# DDEC6 charges by PACMAN v1.1 (https://github.com/mtap-research/PACMAN-charge/)
data_OWEBEA_FSR_pacman
_symmetry_space_group_name_H-M   'P 1'
_cell_length_a   34.08970000
_cell_length_b   27.90170000
_cell_length_c   36.14450000
_cell_angle_alpha   90.00000000
_cell_angle_beta   109.43600000
_cell_angle_gamma   90.00000000
_symmetry_Int_Tables_number   1
_chemical_formula_structural   Zn4H36C60(N2O7)3
_chemical_formula_sum   'Zn32 H288 C480 N48 O168'
_cell_volume   32420.08128445
_cell_formula_units_Z   8
loop_
 _symmetry_equiv_pos_site_id
 _symmetry_equiv_pos_as_xyz
  1  'x, y, z'
loop_
 _atom_site_type_symbol
 _atom_site_label
 _atom_site_symmetry_multiplicity
 _atom_site_fract_x
 _atom_site_fract_y
 _atom_site_fract_z
 _atom_site_occupancy
 _atom_site_charge
Zn  Zn1  1  0.28455000  0.99794000  0.39756000  1.0 0.9403893961
Zn  Zn2  1  0.21127000  0.07506000  0.37717000  1.0 1.0294757824
Zn  Zn3  1  0.19745000  0.96823000  0.40251000  1.0 0.951412546
Zn  Zn4  1  0.21033000  0.98632000  0.32080000  1.0 0.9403893961
Zn  Zn5  1  0.21032000  0.01570000  0.95047000  1.0 1.1222681145
Zn  Zn6  1  0.21314000  0.92650000  0.89646000  1.0 0.9403893961
Zn  Zn7  1  0.13745000  0.99794000  0.87254000  1.0 0.9349843602
Zn  Zn8  1  0.22281000  0.03125000  0.86596000  1.0 0.951412546
Zn  Zn9  1  0.78455000  0.50206000  0.39756000  1.0 0.9403893961
Zn  Zn10  1  0.71127000  0.42494000  0.37717000  1.0 1.0294757824
Zn  Zn11  1  0.69745000  0.53177000  0.40251000  1.0 0.951412546
Zn  Zn12  1  0.71033000  0.51368000  0.32080000  1.0 0.9403893961
Zn  Zn13  1  0.71032000  0.48430000  0.95047000  1.0 1.1222681145
Zn  Zn14  1  0.71314000  0.57350000  0.89646000  1.0 0.9403893961
Zn  Zn15  1  0.63745000  0.50206000  0.87254000  1.0 0.9349843602
Zn  Zn16  1  0.72281000  0.46875000  0.86596000  1.0 0.951412546
Zn  Zn17  1  0.21545000  0.49794000  0.60244000  1.0 0.9403893961
Zn  Zn18  1  0.28873000  0.57506000  0.62283000  1.0 1.0294757824
Zn  Zn19  1  0.30255000  0.46823000  0.59749000  1.0 0.951412546
Zn  Zn20  1  0.28967000  0.48632000  0.67920000  1.0 0.9403893961
Zn  Zn21  1  0.28968000  0.51570000  0.04953000  1.0 1.1222681145
Zn  Zn22  1  0.28686000  0.42650000  0.10354000  1.0 0.9403893961
Zn  Zn23  1  0.36255000  0.49794000  0.12746000  1.0 0.9349843602
Zn  Zn24  1  0.27719000  0.53125000  0.13404000  1.0 0.951412546
Zn  Zn25  1  0.71545000  0.00206000  0.60244000  1.0 0.9403893961
Zn  Zn26  1  0.78873000  0.92494000  0.62283000  1.0 1.0294757824
Zn  Zn27  1  0.80255000  0.03177000  0.59749000  1.0 0.951412546
Zn  Zn28  1  0.78967000  0.01368000  0.67920000  1.0 0.9403893961
Zn  Zn29  1  0.78968000  0.98430000  0.04953000  1.0 1.1222681145
Zn  Zn30  1  0.78686000  0.07350000  0.10354000  1.0 0.951412546
Zn  Zn31  1  0.86255000  0.00206000  0.12746000  1.0 0.9349843602
Zn  Zn32  1  0.77719000  0.96875000  0.13404000  1.0 0.951412546
H  H1  1  0.44500000  0.21906000  0.51672000  1.0 0.2781226268
H  H2  1  0.54698000  0.40624000  0.52440000  1.0 0.2781226268
H  H3  1  0.57258000  0.35622000  0.64389000  1.0 0.2781226268
H  H4  1  0.34332000  0.85386000  0.62534000  1.0 0.2781226268
H  H5  1  0.51639000  0.77417000  0.78085000  1.0 0.2888797748
H  H6  1  0.36158000  0.89534000  0.73690000  1.0 0.2781226268
H  H7  1  0.38166000  0.85930000  0.22664000  1.0 0.2781226268
H  H8  1  0.40784000  0.89660000  0.12563000  1.0 0.2781226268
H  H9  1  0.52347000  0.73789000  0.26984000  1.0 0.2738504302
H  H10  1  0.04803000  0.15375000  0.03747000  1.0 0.2738504302
H  H11  1  0.02263000  0.11769000  0.14278000  1.0 0.2888797748
H  H12  1  0.91564000  0.28426000  0.00403000  1.0 0.2781226268
H  H13  1  0.38124000  0.09294000  0.44746000  1.0 0.1224795529
H  H14  1  0.43011000  0.14795000  0.48520000  1.0 0.1294111331
H  H15  1  0.33925000  0.22249000  0.50443000  1.0 0.1294111331
H  H16  1  0.29066000  0.16640000  0.46852000  1.0 0.1294111331
H  H17  1  0.46686000  0.28958000  0.49799000  1.0 0.1224795529
H  H18  1  0.54698000  0.37471000  0.57886000  1.0 0.0995287495
H  H19  1  0.45213000  0.30976000  0.60334000  1.0 0.1294111331
H  H20  1  0.59335000  0.33503000  0.47099000  1.0 0.1294111331
H  H21  1  0.63373000  0.36400000  0.43529000  1.0 0.1294111331
H  H22  1  0.61452000  0.49901000  0.46468000  1.0 0.1294111331
H  H23  1  0.56973000  0.47103000  0.49591000  1.0 0.1294111331
H  H24  1  0.63247000  0.35701000  0.69749000  1.0 0.1294111331
H  H25  1  0.66939000  0.38709000  0.75959000  1.0 0.1224795529
H  H26  1  0.56610000  0.45286000  0.76315000  1.0 0.1224795529
H  H27  1  0.53010000  0.42566000  0.70055000  1.0 0.1392322003
H  H28  1  0.35460000  0.92433000  0.49648000  1.0 0.1294111331
H  H29  1  0.38980000  0.89000000  0.55606000  1.0 0.1392322003
H  H30  1  0.28182000  0.86827000  0.57543000  1.0 0.1294111331
H  H31  1  0.24711000  0.89770000  0.51346000  1.0 0.1294111331
H  H32  1  0.46041000  0.79010000  0.66405000  1.0 0.1392322003
H  H33  1  0.44716000  0.78274000  0.77102000  1.0 0.1294111331
H  H34  1  0.36764000  0.86412000  0.68649000  1.0 0.0995287495
H  H35  1  0.51607000  0.65579000  0.75805000  1.0 0.1392322003
H  H36  1  0.56056000  0.59768000  0.79700000  1.0 0.1224795529
H  H37  1  0.63313000  0.70154000  0.86259000  1.0 0.1294111331
H  H38  1  0.58564000  0.75950000  0.82691000  1.0 0.1294111331
H  H39  1  0.32213000  0.82749000  0.79664000  1.0 0.1294111331
H  H40  1  0.27987000  0.85828000  0.83092000  1.0 0.1294111331
H  H41  1  0.29595000  0.99140000  0.79736000  1.0 0.1294111331
H  H42  1  0.33754000  0.96087000  0.76205000  1.0 0.1224795529
H  H43  1  0.27833000  0.92343000  0.25805000  1.0 0.1294111331
H  H44  1  0.31914000  0.88392000  0.22719000  1.0 0.1224795529
H  H45  1  0.42038000  0.90785000  0.32272000  1.0 0.1392322003
H  H46  1  0.37705000  0.94212000  0.35419000  1.0 0.1294111331
H  H47  1  0.40732000  0.87007000  0.18117000  1.0 0.0995287495
H  H48  1  0.48711000  0.78021000  0.15429000  1.0 0.1392322003
H  H49  1  0.50325000  0.81061000  0.26796000  1.0 0.1224795529
H  H50  1  0.37506000  0.95813000  0.08561000  1.0 0.1224795529
H  H51  1  0.32425000  0.98321000  0.02805000  1.0 0.1294111331
H  H52  1  0.30420000  0.84674000  0.99069000  1.0 0.1224795529
H  H53  1  0.35924000  0.82216000  0.04633000  1.0 0.1392322003
H  H54  1  0.60777000  0.70197000  0.24068000  1.0 0.1392322003
H  H55  1  0.65757000  0.64610000  0.27550000  1.0 0.1224795529
H  H56  1  0.59506000  0.62726000  0.35170000  1.0 0.1294111331
H  H57  1  0.54392000  0.67907000  0.31595000  1.0 0.1224795529
H  H58  1  0.14348000  0.10261000  0.98995000  1.0 0.1392322003
H  H59  1  0.10720000  0.13508000  0.02596000  1.0 0.1224795529
H  H60  1  0.00055000  0.09295000  0.94905000  1.0 0.1392322003
H  H61  1  0.03711000  0.05438000  0.91342000  1.0 0.1294111331
H  H62  1  0.02644000  0.14484000  0.08681000  1.0 0.1076758954
H  H63  1  0.95576000  0.24159000  0.11880000  1.0 0.1294111331
H  H64  1  0.93224000  0.21125000  0.00506000  1.0 0.1224795529
H  H65  1  0.06455000  0.05477000  0.17239000  1.0 0.1294111331
H  H66  1  0.12198000  0.02951000  0.22488000  1.0 0.1224795529
H  H67  1  0.11763000  0.14870000  0.28559000  1.0 0.1224795529
H  H68  1  0.06796000  0.18142000  0.23138000  1.0 0.1294111331
H  H69  1  0.88332000  0.32375000  0.94801000  1.0 0.1294111331
H  H70  1  0.82981000  0.37387000  0.91099000  1.0 0.1224795529
H  H71  1  0.78173000  0.37538000  0.99894000  1.0 0.1294111331
H  H72  1  0.83710000  0.32830000  0.03770000  1.0 0.1294111331
H  H73  1  0.94500000  0.28094000  0.51672000  1.0 0.2781226268
H  H74  1  0.04698000  0.09376000  0.52440000  1.0 0.2781226268
H  H75  1  0.07258000  0.14378000  0.64389000  1.0 0.2781226268
H  H76  1  0.84332000  0.64614000  0.62534000  1.0 0.2781226268
H  H77  1  0.01639000  0.72583000  0.78085000  1.0 0.2888797748
H  H78  1  0.86158000  0.60466000  0.73690000  1.0 0.2781226268
H  H79  1  0.88166000  0.64070000  0.22664000  1.0 0.2781226268
H  H80  1  0.90784000  0.60340000  0.12563000  1.0 0.2781226268
H  H81  1  0.02347000  0.76211000  0.26984000  1.0 0.2738504302
H  H82  1  0.54803000  0.34625000  0.03747000  1.0 0.2738504302
H  H83  1  0.52263000  0.38231000  0.14278000  1.0 0.2888797748
H  H84  1  0.41564000  0.21574000  0.00403000  1.0 0.2781226268
H  H85  1  0.88124000  0.40706000  0.44746000  1.0 0.1224795529
H  H86  1  0.93011000  0.35205000  0.48520000  1.0 0.1294111331
H  H87  1  0.83925000  0.27751000  0.50443000  1.0 0.1294111331
H  H88  1  0.79066000  0.33360000  0.46852000  1.0 0.1294111331
H  H89  1  0.96686000  0.21042000  0.49799000  1.0 0.1224795529
H  H90  1  0.04698000  0.12529000  0.57886000  1.0 0.0995287495
H  H91  1  0.95213000  0.19024000  0.60334000  1.0 0.1294111331
H  H92  1  0.09335000  0.16497000  0.47099000  1.0 0.1294111331
H  H93  1  0.13373000  0.13600000  0.43529000  1.0 0.1294111331
H  H94  1  0.11452000  0.00099000  0.46468000  1.0 0.1294111331
H  H95  1  0.06973000  0.02897000  0.49591000  1.0 0.1294111331
H  H96  1  0.13247000  0.14299000  0.69749000  1.0 0.1294111331
H  H97  1  0.16939000  0.11291000  0.75959000  1.0 0.1224795529
H  H98  1  0.06610000  0.04714000  0.76315000  1.0 0.1224795529
H  H99  1  0.03010000  0.07434000  0.70055000  1.0 0.1392322003
H  H100  1  0.85460000  0.57567000  0.49648000  1.0 0.1294111331
H  H101  1  0.88980000  0.61000000  0.55606000  1.0 0.1392322003
H  H102  1  0.78182000  0.63173000  0.57543000  1.0 0.1294111331
H  H103  1  0.74711000  0.60230000  0.51346000  1.0 0.1294111331
H  H104  1  0.96041000  0.70990000  0.66405000  1.0 0.1392322003
H  H105  1  0.94716000  0.71726000  0.77102000  1.0 0.1294111331
H  H106  1  0.86764000  0.63588000  0.68649000  1.0 0.0995287495
H  H107  1  0.01607000  0.84421000  0.75805000  1.0 0.1392322003
H  H108  1  0.06056000  0.90232000  0.79700000  1.0 0.1224795529
H  H109  1  0.13313000  0.79846000  0.86259000  1.0 0.1294111331
H  H110  1  0.08564000  0.74050000  0.82691000  1.0 0.1294111331
H  H111  1  0.82213000  0.67251000  0.79664000  1.0 0.1392322003
H  H112  1  0.77987000  0.64172000  0.83092000  1.0 0.1294111331
H  H113  1  0.79595000  0.50860000  0.79736000  1.0 0.1294111331
H  H114  1  0.83754000  0.53913000  0.76205000  1.0 0.1224795529
H  H115  1  0.77833000  0.57657000  0.25805000  1.0 0.1294111331
H  H116  1  0.81914000  0.61608000  0.22719000  1.0 0.1294111331
H  H117  1  0.92038000  0.59215000  0.32272000  1.0 0.1392322003
H  H118  1  0.87705000  0.55788000  0.35419000  1.0 0.1294111331
H  H119  1  0.90732000  0.62993000  0.18117000  1.0 0.0995287495
H  H120  1  0.98711000  0.71979000  0.15429000  1.0 0.1392322003
H  H121  1  0.00325000  0.68939000  0.26796000  1.0 0.1224795529
H  H122  1  0.87506000  0.54187000  0.08561000  1.0 0.1224795529
H  H123  1  0.82425000  0.51679000  0.02805000  1.0 0.1294111331
H  H124  1  0.80420000  0.65326000  0.99069000  1.0 0.1224795529
H  H125  1  0.85924000  0.67784000  0.04633000  1.0 0.1392322003
H  H126  1  0.10777000  0.79803000  0.24068000  1.0 0.1392322003
H  H127  1  0.15757000  0.85390000  0.27550000  1.0 0.1224795529
H  H128  1  0.09506000  0.87274000  0.35170000  1.0 0.1294111331
H  H129  1  0.04392000  0.82093000  0.31595000  1.0 0.1224795529
H  H130  1  0.64348000  0.39739000  0.98995000  1.0 0.1392322003
H  H131  1  0.60720000  0.36492000  0.02596000  1.0 0.1224795529
H  H132  1  0.50055000  0.40705000  0.94905000  1.0 0.1392322003
H  H133  1  0.53711000  0.44562000  0.91342000  1.0 0.1294111331
H  H134  1  0.52644000  0.35516000  0.08681000  1.0 0.1076758954
H  H135  1  0.45576000  0.25841000  0.11880000  1.0 0.1294111331
H  H136  1  0.43224000  0.28875000  0.00506000  1.0 0.1224795529
H  H137  1  0.56455000  0.44523000  0.17239000  1.0 0.1294111331
H  H138  1  0.62198000  0.47049000  0.22488000  1.0 0.1224795529
H  H139  1  0.61763000  0.35130000  0.28559000  1.0 0.1224795529
H  H140  1  0.56796000  0.31858000  0.23138000  1.0 0.1294111331
H  H141  1  0.38332000  0.17625000  0.94801000  1.0 0.1294111331
H  H142  1  0.32981000  0.12613000  0.91099000  1.0 0.1224795529
H  H143  1  0.28173000  0.12462000  0.99894000  1.0 0.1294111331
H  H144  1  0.33710000  0.17170000  0.03770000  1.0 0.1294111331
H  H145  1  0.05500000  0.71906000  0.48328000  1.0 0.2781226268
H  H146  1  0.95302000  0.90624000  0.47560000  1.0 0.2781226268
H  H147  1  0.92742000  0.85622000  0.35611000  1.0 0.2781226268
H  H148  1  0.15668000  0.35386000  0.37466000  1.0 0.2738504302
H  H149  1  0.98361000  0.27417000  0.21915000  1.0 0.2888797748
H  H150  1  0.13842000  0.39534000  0.26310000  1.0 0.2781226268
H  H151  1  0.11834000  0.35930000  0.77336000  1.0 0.2781226268
H  H152  1  0.09216000  0.39660000  0.87437000  1.0 0.2781226268
H  H153  1  0.97653000  0.23789000  0.73016000  1.0 0.2738504302
H  H154  1  0.45197000  0.65375000  0.96253000  1.0 0.2781226268
H  H155  1  0.47737000  0.61769000  0.85722000  1.0 0.2888797748
H  H156  1  0.58436000  0.78426000  0.99597000  1.0 0.2781226268
H  H157  1  0.11876000  0.59294000  0.55254000  1.0 0.1224795529
H  H158  1  0.06989000  0.64795000  0.51480000  1.0 0.1294111331
H  H159  1  0.16075000  0.72249000  0.49557000  1.0 0.1224795529
H  H160  1  0.20934000  0.66640000  0.53148000  1.0 0.1294111331
H  H161  1  0.03314000  0.78958000  0.50201000  1.0 0.1224795529
H  H162  1  0.95302000  0.87471000  0.42114000  1.0 0.0995287495
H  H163  1  0.04787000  0.80976000  0.39666000  1.0 0.1294111331
H  H164  1  0.90665000  0.83503000  0.52901000  1.0 0.1294111331
H  H165  1  0.86627000  0.86400000  0.56471000  1.0 0.1294111331
H  H166  1  0.88548000  0.99901000  0.53532000  1.0 0.1294111331
H  H167  1  0.93027000  0.97103000  0.50409000  1.0 0.1294111331
H  H168  1  0.86753000  0.85701000  0.30251000  1.0 0.1294111331
H  H169  1  0.83061000  0.88709000  0.24041000  1.0 0.1224795529
H  H170  1  0.93390000  0.95286000  0.23685000  1.0 0.1224795529
H  H171  1  0.96990000  0.92566000  0.29945000  1.0 0.1392322003
H  H172  1  0.14540000  0.42433000  0.50352000  1.0 0.1294111331
H  H173  1  0.11020000  0.39000000  0.44394000  1.0 0.1392322003
H  H174  1  0.21818000  0.36827000  0.42457000  1.0 0.1294111331
H  H175  1  0.25289000  0.39770000  0.48654000  1.0 0.1294111331
H  H176  1  0.03959000  0.29010000  0.33595000  1.0 0.1392322003
H  H177  1  0.05284000  0.28274000  0.22898000  1.0 0.1294111331
H  H178  1  0.13236000  0.36412000  0.31351000  1.0 0.0995287495
H  H179  1  0.98393000  0.15579000  0.24195000  1.0 0.1392322003
H  H180  1  0.93944000  0.09768000  0.20300000  1.0 0.1224795529
H  H181  1  0.86687000  0.20154000  0.13741000  1.0 0.1294111331
H  H182  1  0.91436000  0.25950000  0.17309000  1.0 0.1294111331
H  H183  1  0.17787000  0.32749000  0.20336000  1.0 0.1294111331
H  H184  1  0.22013000  0.35828000  0.16908000  1.0 0.1294111331
H  H185  1  0.20405000  0.49140000  0.20264000  1.0 0.1294111331
H  H186  1  0.16246000  0.46087000  0.23795000  1.0 0.1224795529
H  H187  1  0.22167000  0.42343000  0.74195000  1.0 0.1294111331
H  H188  1  0.18086000  0.38392000  0.77281000  1.0 0.1294111331
H  H189  1  0.07962000  0.40785000  0.67728000  1.0 0.1392322003
H  H190  1  0.12295000  0.44212000  0.64581000  1.0 0.1294111331
H  H191  1  0.09268000  0.37007000  0.81883000  1.0 0.0995287495
H  H192  1  0.01289000  0.28021000  0.84571000  1.0 0.1392322003
H  H193  1  0.99675000  0.31061000  0.73204000  1.0 0.1224795529
H  H194  1  0.12494000  0.45813000  0.91439000  1.0 0.1224795529
H  H195  1  0.17575000  0.48321000  0.97195000  1.0 0.1294111331
H  H196  1  0.19580000  0.34674000  0.00931000  1.0 0.1224795529
H  H197  1  0.14076000  0.32216000  0.95367000  1.0 0.1392322003
H  H198  1  0.89223000  0.20197000  0.75932000  1.0 0.1392322003
H  H199  1  0.84243000  0.14610000  0.72450000  1.0 0.1224795529
H  H200  1  0.90494000  0.12726000  0.64830000  1.0 0.1294111331
H  H201  1  0.95608000  0.17907000  0.68405000  1.0 0.1224795529
H  H202  1  0.35652000  0.60261000  0.01005000  1.0 0.1392322003
H  H203  1  0.39280000  0.63508000  0.97404000  1.0 0.1224795529
H  H204  1  0.49945000  0.59295000  0.05095000  1.0 0.1392322003
H  H205  1  0.46289000  0.55438000  0.08658000  1.0 0.1294111331
H  H206  1  0.47356000  0.64484000  0.91319000  1.0 0.1076758954
H  H207  1  0.54424000  0.74159000  0.88120000  1.0 0.1294111331
H  H208  1  0.56776000  0.71125000  0.99494000  1.0 0.1224795529
H  H209  1  0.43545000  0.55477000  0.82761000  1.0 0.1294111331
H  H210  1  0.37802000  0.52951000  0.77512000  1.0 0.1224795529
H  H211  1  0.38237000  0.64870000  0.71441000  1.0 0.1224795529
H  H212  1  0.43204000  0.68142000  0.76862000  1.0 0.1294111331
H  H213  1  0.61668000  0.82375000  0.05199000  1.0 0.1294111331
H  H214  1  0.67019000  0.87387000  0.08901000  1.0 0.1224795529
H  H215  1  0.71827000  0.87538000  0.00106000  1.0 0.1294111331
H  H216  1  0.66290000  0.82830000  0.96230000  1.0 0.1294111331
H  H217  1  0.55500000  0.78094000  0.48328000  1.0 0.2738504302
H  H218  1  0.45302000  0.59376000  0.47560000  1.0 0.2781226268
H  H219  1  0.42742000  0.64378000  0.35611000  1.0 0.2781226268
H  H220  1  0.65668000  0.14614000  0.37466000  1.0 0.2738504302
H  H221  1  0.48361000  0.22583000  0.21915000  1.0 0.2888797748
H  H222  1  0.63842000  0.10466000  0.26310000  1.0 0.2781226268
H  H223  1  0.61834000  0.14070000  0.77336000  1.0 0.2781226268
H  H224  1  0.59216000  0.10340000  0.87437000  1.0 0.2738504302
H  H225  1  0.47653000  0.26211000  0.73016000  1.0 0.2738504302
H  H226  1  0.95197000  0.84625000  0.96253000  1.0 0.2781226268
H  H227  1  0.97737000  0.88231000  0.85722000  1.0 0.2888797748
H  H228  1  0.08436000  0.71574000  0.99597000  1.0 0.2781226268
H  H229  1  0.61876000  0.90706000  0.55254000  1.0 0.1224795529
H  H230  1  0.56989000  0.85205000  0.51480000  1.0 0.1294111331
H  H231  1  0.66075000  0.77751000  0.49557000  1.0 0.1224795529
H  H232  1  0.70934000  0.83360000  0.53148000  1.0 0.1294111331
H  H233  1  0.53314000  0.71042000  0.50201000  1.0 0.1224795529
H  H234  1  0.45302000  0.62529000  0.42114000  1.0 0.0995287495
H  H235  1  0.54787000  0.69024000  0.39666000  1.0 0.1294111331
H  H236  1  0.40665000  0.66497000  0.52901000  1.0 0.1294111331
H  H237  1  0.36627000  0.63600000  0.56471000  1.0 0.1294111331
H  H238  1  0.38548000  0.50099000  0.53532000  1.0 0.1294111331
H  H239  1  0.43027000  0.52897000  0.50409000  1.0 0.1294111331
H  H240  1  0.36753000  0.64299000  0.30251000  1.0 0.1294111331
H  H241  1  0.33061000  0.61291000  0.24041000  1.0 0.1224795529
H  H242  1  0.43390000  0.54714000  0.23685000  1.0 0.1224795529
H  H243  1  0.46990000  0.57434000  0.29945000  1.0 0.1392322003
H  H244  1  0.64540000  0.07567000  0.50352000  1.0 0.1294111331
H  H245  1  0.61020000  0.11000000  0.44394000  1.0 0.1392322003
H  H246  1  0.71818000  0.13173000  0.42457000  1.0 0.1294111331
H  H247  1  0.75289000  0.10230000  0.48654000  1.0 0.1294111331
H  H248  1  0.53959000  0.20990000  0.33595000  1.0 0.1392322003
H  H249  1  0.55284000  0.21726000  0.22898000  1.0 0.1294111331
H  H250  1  0.63236000  0.13588000  0.31351000  1.0 0.0995287495
H  H251  1  0.48393000  0.34421000  0.24195000  1.0 0.1392322003
H  H252  1  0.43944000  0.40232000  0.20300000  1.0 0.1224795529
H  H253  1  0.36687000  0.29846000  0.13741000  1.0 0.1294111331
H  H254  1  0.41436000  0.24050000  0.17309000  1.0 0.1294111331
H  H255  1  0.67787000  0.17251000  0.20336000  1.0 0.1294111331
H  H256  1  0.72013000  0.14172000  0.16908000  1.0 0.1294111331
H  H257  1  0.70405000  0.00860000  0.20264000  1.0 0.1294111331
H  H258  1  0.66246000  0.03913000  0.23795000  1.0 0.1224795529
H  H259  1  0.72167000  0.07657000  0.74195000  1.0 0.1294111331
H  H260  1  0.68086000  0.11608000  0.77281000  1.0 0.1294111331
H  H261  1  0.57962000  0.09215000  0.67728000  1.0 0.1294111331
H  H262  1  0.62295000  0.05788000  0.64581000  1.0 0.1294111331
H  H263  1  0.59268000  0.12993000  0.81883000  1.0 0.0995287495
H  H264  1  0.51289000  0.21979000  0.84571000  1.0 0.1392322003
H  H265  1  0.49675000  0.18939000  0.73204000  1.0 0.1224795529
H  H266  1  0.62494000  0.04187000  0.91439000  1.0 0.1224795529
H  H267  1  0.67575000  0.01679000  0.97195000  1.0 0.1294111331
H  H268  1  0.69580000  0.15326000  0.00931000  1.0 0.1224795529
H  H269  1  0.64076000  0.17784000  0.95367000  1.0 0.1392322003
H  H270  1  0.39223000  0.29803000  0.75932000  1.0 0.1392322003
H  H271  1  0.34243000  0.35390000  0.72450000  1.0 0.1224795529
H  H272  1  0.40494000  0.37274000  0.64830000  1.0 0.1294111331
H  H273  1  0.45608000  0.32093000  0.68405000  1.0 0.1224795529
H  H274  1  0.85652000  0.89739000  0.01005000  1.0 0.1392322003
H  H275  1  0.89280000  0.86492000  0.97404000  1.0 0.1294111331
H  H276  1  0.99945000  0.90705000  0.05095000  1.0 0.1392322003
H  H277  1  0.96289000  0.94562000  0.08658000  1.0 0.1294111331
H  H278  1  0.97356000  0.85516000  0.91319000  1.0 0.1076758954
H  H279  1  0.04424000  0.75841000  0.88120000  1.0 0.1294111331
H  H280  1  0.06776000  0.78875000  0.99494000  1.0 0.1224795529
H  H281  1  0.93545000  0.94523000  0.82761000  1.0 0.1294111331
H  H282  1  0.87802000  0.97049000  0.77512000  1.0 0.1224795529
H  H283  1  0.88237000  0.85130000  0.71441000  1.0 0.1224795529
H  H284  1  0.93204000  0.81858000  0.76862000  1.0 0.1294111331
H  H285  1  0.11668000  0.67625000  0.05199000  1.0 0.1294111331
H  H286  1  0.17019000  0.62613000  0.08901000  1.0 0.1224795529
H  H287  1  0.21827000  0.62462000  0.00106000  1.0 0.1294111331
H  H288  1  0.16290000  0.67170000  0.96230000  1.0 0.1294111331
C  C1  1  0.29860000  0.09180000  0.42780000  1.0 0.5804546218
C  C2  1  0.33020000  0.12740000  0.45270000  1.0 -0.0487817943
C  C3  1  0.37240000  0.11990000  0.45870000  1.0 -0.0721151579
C  C4  1  0.40140000  0.15260000  0.48140000  1.0 -0.2121928197
C  C5  1  0.38957000  0.19070000  0.49800000  1.0 0.2215597478
C  C6  1  0.34826000  0.19600000  0.49280000  1.0 -0.1802660811
C  C7  1  0.31900000  0.16300000  0.47060000  1.0 -0.1007348532
C  C8  1  0.41655000  0.26300000  0.53779000  1.0 0.4589451794
C  C9  1  0.45412000  0.29408000  0.54883000  1.0 -0.0261503586
C  C10  1  0.47576000  0.30392000  0.52327000  1.0 -0.1438964118
C  C11  1  0.50967000  0.33382000  0.53354000  1.0 -0.0030673469
C  C12  1  0.52339000  0.35419000  0.57129000  1.0 -0.1996164919
C  C13  1  0.50258000  0.34437000  0.59745000  1.0 -0.0114461007
C  C14  1  0.46725000  0.31520000  0.58589000  1.0 -0.1290524413
C  C15  1  0.53075000  0.34256000  0.50407000  1.0 0.4532983791
C  C16  1  0.57598000  0.40079000  0.48616000  1.0 0.2300888462
C  C17  1  0.59660000  0.36861000  0.46876000  1.0 -0.1802660811
C  C18  1  0.62162000  0.38595000  0.44845000  1.0 -0.0890645892
C  C19  1  0.62923000  0.43326000  0.44687000  1.0 -0.0487817943
C  C20  1  0.60952000  0.46558000  0.46532000  1.0 -0.0721151579
C  C21  1  0.58316000  0.44888000  0.48414000  1.0 -0.2121928197
C  C22  1  0.65747000  0.45130000  0.42525000  1.0 0.591398447
C  C23  1  0.51503000  0.36696000  0.63684000  1.0 0.4532983791
C  C24  1  0.57663000  0.38618000  0.69381000  1.0 0.2300888462
C  C25  1  0.61862000  0.37620000  0.71103000  1.0 -0.2121928197
C  C26  1  0.64061000  0.39410000  0.74814000  1.0 -0.0606584113
C  C27  1  0.62141000  0.42169000  0.76833000  1.0 -0.0812018556
C  C28  1  0.57990000  0.43310000  0.74996000  1.0 -0.0721151579
C  C29  1  0.55821000  0.41620000  0.71293000  1.0 -0.1996164919
C  C30  1  0.64401000  0.44118000  0.80696000  1.0 0.591398447
C  C31  1  0.27478000  0.93606000  0.45922000  1.0 0.591398447
C  C32  1  0.29756000  0.91411000  0.49930000  1.0 -0.0373560876
C  C33  1  0.33956000  0.91210000  0.51233000  1.0 -0.0890645892
C  C34  1  0.36038000  0.89280000  0.54796000  1.0 -0.1690878269
C  C35  1  0.33978000  0.87730000  0.57245000  1.0 0.2215597478
C  C36  1  0.29700000  0.87920000  0.55930000  1.0 -0.1996164919
C  C37  1  0.27666000  0.89710000  0.52276000  1.0 -0.0890645892
C  C38  1  0.40029000  0.84910000  0.62786000  1.0 0.4532983791
C  C39  1  0.41250000  0.83080000  0.66841000  1.0 -0.0183065624
C  C40  1  0.44605000  0.79920000  0.68141000  1.0 -0.1060368155
C  C41  1  0.45883000  0.78096000  0.71934000  1.0 -0.0183065624
C  C42  1  0.43793000  0.79425000  0.74479000  1.0 -0.1497801334
C  C43  1  0.40326000  0.82459000  0.73192000  1.0 -0.0030673469
C  C44  1  0.39082000  0.84304000  0.69480000  1.0 -0.1901929866
C  C45  1  0.49330000  0.74460000  0.73080000  1.0 0.4589451794
C  C46  1  0.54688000  0.71281000  0.78862000  1.0 0.2215597478
C  C47  1  0.53950000  0.66520000  0.77966000  1.0 -0.1901929866
C  C48  1  0.56644000  0.63070000  0.80233000  1.0 -0.0812018556
C  C49  1  0.60199000  0.64457000  0.83281000  1.0 -0.0606584113
C  C50  1  0.60909000  0.69198000  0.84166000  1.0 -0.0721151579
C  C51  1  0.58114000  0.72660000  0.82005000  1.0 -0.1996164919
C  C52  1  0.63070000  0.60647000  0.85537000  1.0 0.591398447
C  C53  1  0.37949000  0.83390000  0.75897000  1.0 0.4589451794
C  C54  1  0.33420000  0.89150000  0.77706000  1.0 0.2215597478
C  C55  1  0.31719000  0.86100000  0.79678000  1.0 -0.1901929866
C  C56  1  0.29211000  0.87970000  0.81745000  1.0 -0.0812018556
C  C57  1  0.28503000  0.92701000  0.81862000  1.0 -0.0487817943
C  C58  1  0.30144000  0.95800000  0.79759000  1.0 -0.0812018556
C  C59  1  0.32630000  0.93980000  0.77660000  1.0 -0.2121928197
C  C60  1  0.25846000  0.94606000  0.84063000  1.0 0.591398447
C  C61  1  0.29687000  0.95919000  0.32915000  1.0 0.5983136784
C  C62  1  0.32471000  0.93670000  0.30925000  1.0 -0.0487817943
C  C63  1  0.30730000  0.91960000  0.27138000  1.0 -0.0812018556
C  C64  1  0.33158000  0.89700000  0.25270000  1.0 -0.2121928197
C  C65  1  0.37414000  0.89340000  0.27139000  1.0 0.2300888462
C  C66  1  0.39131000  0.91040000  0.30933000  1.0 -0.1802660811
C  C67  1  0.36537000  0.93140000  0.32784000  1.0 -0.0890645892
C  C68  1  0.43849000  0.86490000  0.25966000  1.0 0.4589451794
C  C69  1  0.45161000  0.84190000  0.22872000  1.0 -0.0030673469
C  C70  1  0.43076000  0.84940000  0.18916000  1.0 -0.1901929866
C  C71  1  0.44368000  0.82700000  0.16138000  1.0 -0.0114461007
C  C72  1  0.47838000  0.79630000  0.17339000  1.0 -0.1060368155
C  C73  1  0.49949000  0.78940000  0.21223000  1.0 -0.0183065624
C  C74  1  0.48741000  0.81350000  0.24092000  1.0 -0.1802660811
C  C75  1  0.42040000  0.83220000  0.11846000  1.0 0.4698911797
C  C76  1  0.37158000  0.88680000  0.07165000  1.0 0.2300888462
C  C77  1  0.36109000  0.93530000  0.06618000  1.0 -0.216654401
C  C78  1  0.33019000  0.95000000  0.03226000  1.0 -0.0606584113
C  C79  1  0.30749000  0.91690000  0.00402000  1.0 -0.0812018556
C  C80  1  0.31860000  0.86980000  0.00966000  1.0 -0.0721151579
C  C81  1  0.35130000  0.85500000  0.04339000  1.0 -0.1901929866
C  C82  1  0.27270000  0.93350000  0.97063000  1.0 0.5804546218
C  C83  1  0.53513000  0.75480000  0.22361000  1.0 0.4589451794
C  C84  1  0.57217000  0.69900000  0.27575000  1.0 0.255877171
C  C85  1  0.60516000  0.68710000  0.26340000  1.0 -0.1901929866
C  C86  1  0.63478000  0.65350000  0.28409000  1.0 -0.0812018556
C  C87  1  0.63135000  0.63103000  0.31643000  1.0 -0.0487817943
C  C88  1  0.59733000  0.64210000  0.32883000  1.0 -0.0606584113
C  C89  1  0.56773000  0.67370000  0.30841000  1.0 -0.1996164919
C  C90  1  0.66224000  0.59410000  0.33770000  1.0 0.591398447
C  C91  1  0.11859000  0.04890000  0.92630000  1.0 0.5590619336
C  C92  1  0.09407000  0.07410000  0.94869000  1.0 -0.0373560876
C  C93  1  0.11409000  0.09920000  0.98160000  1.0 -0.0812018556
C  C94  1  0.09224000  0.11930000  0.00220000  1.0 -0.1996164919
C  C95  1  0.05092000  0.11851000  0.99149000  1.0 0.2066656362
C  C96  1  0.03008000  0.09430000  0.95787000  1.0 -0.1802660811
C  C97  1  0.05177000  0.07160000  0.93655000  1.0 -0.0890645892
C  C98  1  0.99110000  0.14974000  0.00799000  1.0 0.4589451794
C  C99  1  0.98114000  0.17499000  0.04088000  1.0 0.0029984255
C  C100  1  0.00412000  0.16716000  0.08006000  1.0 -0.1901929866
C  C101  1  0.99476000  0.19157000  0.10916000  1.0 -0.0114461007
C  C102  1  0.96225000  0.22441000  0.09889000  1.0 -0.1290524413
C  C103  1  0.93942000  0.23223000  0.06013000  1.0 -0.0114461007
C  C104  1  0.94871000  0.20676000  0.03177000  1.0 -0.1497801334
C  C105  1  0.02054000  0.18540000  0.15161000  1.0 0.4698911797
C  C106  1  0.06130000  0.12360000  0.19651000  1.0 0.2300888462
C  C107  1  0.07650000  0.07460000  0.19460000  1.0 -0.2121928197
C  C108  1  0.10870000  0.05900000  0.22650000  1.0 -0.0812018556
C  C109  1  0.12210000  0.08490000  0.26050000  1.0 -0.0373560876
C  C110  1  0.10720000  0.13050000  0.26213000  1.0 -0.0812018556
C  C111  1  0.07750000  0.14960000  0.23017000  1.0 -0.1901929866
C  C112  1  0.15830000  0.06310000  0.29530000  1.0 0.5657321851
C  C113  1  0.90422000  0.26740000  0.05075000  1.0 0.4589451794
C  C114  1  0.86392000  0.32050000  0.99597000  1.0 0.2215597478
C  C115  1  0.86260000  0.33450000  0.95834000  1.0 -0.1996164919
C  C116  1  0.83080000  0.36400000  0.93644000  1.0 -0.0812018556
C  C117  1  0.80050000  0.37930000  0.95125000  1.0 -0.0487817943
C  C118  1  0.80270000  0.36520000  0.98874000  1.0 -0.0812018556
C  C119  1  0.83511000  0.33650000  0.01164000  1.0 -0.1901929866
C  C120  1  0.76583000  0.41090000  0.92810000  1.0 0.591398447
C  C121  1  0.79860000  0.40820000  0.42780000  1.0 0.5804546218
C  C122  1  0.83020000  0.37260000  0.45270000  1.0 -0.0487817943
C  C123  1  0.87240000  0.38010000  0.45870000  1.0 -0.0721151579
C  C124  1  0.90140000  0.34740000  0.48140000  1.0 -0.2121928197
C  C125  1  0.88957000  0.30930000  0.49800000  1.0 0.2215597478
C  C126  1  0.84826000  0.30400000  0.49280000  1.0 -0.1802660811
C  C127  1  0.81900000  0.33700000  0.47060000  1.0 -0.1007348532
C  C128  1  0.91655000  0.23700000  0.53779000  1.0 0.4589451794
C  C129  1  0.95412000  0.20592000  0.54883000  1.0 -0.0261503586
C  C130  1  0.97576000  0.19608000  0.52327000  1.0 -0.1438964118
C  C131  1  0.00967000  0.16618000  0.53354000  1.0 -0.0114461007
C  C132  1  0.02339000  0.14581000  0.57129000  1.0 -0.1996164919
C  C133  1  0.00258000  0.15563000  0.59745000  1.0 -0.0114461007
C  C134  1  0.96725000  0.18480000  0.58589000  1.0 -0.1290524413
C  C135  1  0.03075000  0.15744000  0.50407000  1.0 0.4532983791
C  C136  1  0.07598000  0.09921000  0.48616000  1.0 0.2300888462
C  C137  1  0.09660000  0.13139000  0.46876000  1.0 -0.1802660811
C  C138  1  0.12162000  0.11405000  0.44845000  1.0 -0.0890645892
C  C139  1  0.12923000  0.06674000  0.44687000  1.0 -0.0487817943
C  C140  1  0.10952000  0.03442000  0.46532000  1.0 -0.0721151579
C  C141  1  0.08316000  0.05112000  0.48414000  1.0 -0.2121928197
C  C142  1  0.15747000  0.04870000  0.42525000  1.0 0.591398447
C  C143  1  0.01503000  0.13304000  0.63684000  1.0 0.4532983791
C  C144  1  0.07663000  0.11382000  0.69381000  1.0 0.2300888462
C  C145  1  0.11862000  0.12380000  0.71103000  1.0 -0.2121928197
C  C146  1  0.14061000  0.10590000  0.74814000  1.0 -0.0606584113
C  C147  1  0.12141000  0.07831000  0.76833000  1.0 -0.0812018556
C  C148  1  0.07990000  0.06690000  0.74996000  1.0 -0.0721151579
C  C149  1  0.05821000  0.08380000  0.71293000  1.0 -0.1996164919
C  C150  1  0.14401000  0.05882000  0.80696000  1.0 0.591398447
C  C151  1  0.77478000  0.56394000  0.45922000  1.0 0.591398447
C  C152  1  0.79756000  0.58589000  0.49930000  1.0 -0.0373560876
C  C153  1  0.83956000  0.58790000  0.51233000  1.0 -0.0890645892
C  C154  1  0.86038000  0.60720000  0.54796000  1.0 -0.1690878269
C  C155  1  0.83978000  0.62270000  0.57245000  1.0 0.2215597478
C  C156  1  0.79700000  0.62080000  0.55930000  1.0 -0.1996164919
C  C157  1  0.77666000  0.60290000  0.52276000  1.0 -0.0890645892
C  C158  1  0.90029000  0.65090000  0.62786000  1.0 0.4532983791
C  C159  1  0.91250000  0.66920000  0.66841000  1.0 -0.0183065624
C  C160  1  0.94605000  0.70080000  0.68141000  1.0 -0.1007348532
C  C161  1  0.95883000  0.71904000  0.71934000  1.0 -0.0183065624
C  C162  1  0.93793000  0.70575000  0.74479000  1.0 -0.1497801334
C  C163  1  0.90326000  0.67541000  0.73192000  1.0 -0.0030673469
C  C164  1  0.89082000  0.65696000  0.69480000  1.0 -0.1901929866
C  C165  1  0.99330000  0.75540000  0.73080000  1.0 0.4589451794
C  C166  1  0.04688000  0.78719000  0.78862000  1.0 0.2215597478
C  C167  1  0.03950000  0.83480000  0.77966000  1.0 -0.1901929866
C  C168  1  0.06644000  0.86930000  0.80233000  1.0 -0.0812018556
C  C169  1  0.10199000  0.85543000  0.83281000  1.0 -0.0606584113
C  C170  1  0.10909000  0.80802000  0.84166000  1.0 -0.0721151579
C  C171  1  0.08114000  0.77340000  0.82005000  1.0 -0.1996164919
C  C172  1  0.13070000  0.89353000  0.85537000  1.0 0.591398447
C  C173  1  0.87949000  0.66610000  0.75897000  1.0 0.4589451794
C  C174  1  0.83420000  0.60850000  0.77706000  1.0 0.2215597478
C  C175  1  0.81719000  0.63900000  0.79678000  1.0 -0.1901929866
C  C176  1  0.79211000  0.62030000  0.81745000  1.0 -0.0812018556
C  C177  1  0.78503000  0.57299000  0.81862000  1.0 -0.0487817943
C  C178  1  0.80144000  0.54200000  0.79759000  1.0 -0.0812018556
C  C179  1  0.82630000  0.56020000  0.77660000  1.0 -0.2121928197
C  C180  1  0.75846000  0.55394000  0.84063000  1.0 0.591398447
C  C181  1  0.79687000  0.54081000  0.32915000  1.0 0.5983136784
C  C182  1  0.82471000  0.56330000  0.30925000  1.0 -0.0487817943
C  C183  1  0.80730000  0.58040000  0.27138000  1.0 -0.0812018556
C  C184  1  0.83158000  0.60300000  0.25270000  1.0 -0.2121928197
C  C185  1  0.87414000  0.60660000  0.27139000  1.0 0.2300888462
C  C186  1  0.89131000  0.58960000  0.30933000  1.0 -0.1802660811
C  C187  1  0.86537000  0.56860000  0.32784000  1.0 -0.0890645892
C  C188  1  0.93849000  0.63510000  0.25966000  1.0 0.4589451794
C  C189  1  0.95161000  0.65810000  0.22872000  1.0 -0.0030673469
C  C190  1  0.93076000  0.65060000  0.18916000  1.0 -0.1901929866
C  C191  1  0.94368000  0.67300000  0.16138000  1.0 -0.0114461007
C  C192  1  0.97838000  0.70370000  0.17339000  1.0 -0.1060368155
C  C193  1  0.99949000  0.71060000  0.21223000  1.0 -0.0183065624
C  C194  1  0.98741000  0.68650000  0.24092000  1.0 -0.1802660811
C  C195  1  0.92040000  0.66780000  0.11846000  1.0 0.4589451794
C  C196  1  0.87158000  0.61320000  0.07165000  1.0 0.2300888462
C  C197  1  0.86109000  0.56470000  0.06618000  1.0 -0.216654401
C  C198  1  0.83019000  0.55000000  0.03226000  1.0 -0.0606584113
C  C199  1  0.80749000  0.58310000  0.00402000  1.0 -0.0812018556
C  C200  1  0.81860000  0.63020000  0.00966000  1.0 -0.0721151579
C  C201  1  0.85130000  0.64500000  0.04339000  1.0 -0.1901929866
C  C202  1  0.77270000  0.56650000  0.97063000  1.0 0.5804546218
C  C203  1  0.03513000  0.74520000  0.22361000  1.0 0.4589451794
C  C204  1  0.07217000  0.80100000  0.27575000  1.0 0.2548667531
C  C205  1  0.10516000  0.81290000  0.26340000  1.0 -0.1901929866
C  C206  1  0.13478000  0.84650000  0.28409000  1.0 -0.0812018556
C  C207  1  0.13135000  0.86897000  0.31643000  1.0 -0.0487817943
C  C208  1  0.09733000  0.85790000  0.32883000  1.0 -0.0606584113
C  C209  1  0.06773000  0.82630000  0.30841000  1.0 -0.1996164919
C  C210  1  0.16224000  0.90590000  0.33770000  1.0 0.591398447
C  C211  1  0.61859000  0.45110000  0.92630000  1.0 0.5590619336
C  C212  1  0.59407000  0.42590000  0.94869000  1.0 -0.0373560876
C  C213  1  0.61409000  0.40080000  0.98160000  1.0 -0.0812018556
C  C214  1  0.59224000  0.38070000  0.00220000  1.0 -0.1996164919
C  C215  1  0.55092000  0.38149000  0.99149000  1.0 0.2066656362
C  C216  1  0.53008000  0.40570000  0.95787000  1.0 -0.1802660811
C  C217  1  0.55177000  0.42840000  0.93655000  1.0 -0.0890645892
C  C218  1  0.49110000  0.35026000  0.00799000  1.0 0.4589451794
C  C219  1  0.48114000  0.32501000  0.04088000  1.0 0.0029984255
C  C220  1  0.50412000  0.33284000  0.08006000  1.0 -0.1901929866
C  C221  1  0.49476000  0.30843000  0.10916000  1.0 -0.0114461007
C  C222  1  0.46225000  0.27559000  0.09889000  1.0 -0.1290524413
C  C223  1  0.43942000  0.26777000  0.06013000  1.0 -0.0114461007
C  C224  1  0.44871000  0.29324000  0.03177000  1.0 -0.1497801334
C  C225  1  0.52054000  0.31460000  0.15161000  1.0 0.4698911797
C  C226  1  0.56130000  0.37640000  0.19651000  1.0 0.2300888462
C  C227  1  0.57650000  0.42540000  0.19460000  1.0 -0.2121928197
C  C228  1  0.60870000  0.44100000  0.22650000  1.0 -0.0812018556
C  C229  1  0.62210000  0.41510000  0.26050000  1.0 -0.0373560876
C  C230  1  0.60720000  0.36950000  0.26213000  1.0 -0.0812018556
C  C231  1  0.57750000  0.35040000  0.23017000  1.0 -0.1901929866
C  C232  1  0.65830000  0.43690000  0.29530000  1.0 0.5657321851
C  C233  1  0.40422000  0.23260000  0.05075000  1.0 0.4589451794
C  C234  1  0.36392000  0.17950000  0.99597000  1.0 0.2215597478
C  C235  1  0.36260000  0.16550000  0.95834000  1.0 -0.1996164919
C  C236  1  0.33080000  0.13600000  0.93644000  1.0 -0.0812018556
C  C237  1  0.30050000  0.12070000  0.95125000  1.0 -0.0487817943
C  C238  1  0.30270000  0.13480000  0.98874000  1.0 -0.0812018556
C  C239  1  0.33511000  0.16350000  0.01164000  1.0 -0.1901929866
C  C240  1  0.26583000  0.08910000  0.92810000  1.0 0.5804546218
C  C241  1  0.20140000  0.59180000  0.57220000  1.0 0.5804546218
C  C242  1  0.16980000  0.62740000  0.54730000  1.0 -0.0487817943
C  C243  1  0.12760000  0.61990000  0.54130000  1.0 -0.0721151579
C  C244  1  0.09860000  0.65260000  0.51860000  1.0 -0.216654401
C  C245  1  0.11043000  0.69070000  0.50200000  1.0 0.2215597478
C  C246  1  0.15174000  0.69600000  0.50720000  1.0 -0.1802660811
C  C247  1  0.18100000  0.66300000  0.52940000  1.0 -0.1007348532
C  C248  1  0.08345000  0.76300000  0.46221000  1.0 0.4589451794
C  C249  1  0.04588000  0.79408000  0.45117000  1.0 -0.0261503586
C  C250  1  0.02424000  0.80392000  0.47673000  1.0 -0.1438964118
C  C251  1  0.99033000  0.83382000  0.46646000  1.0 -0.0030673469
C  C252  1  0.97661000  0.85419000  0.42871000  1.0 -0.1996164919
C  C253  1  0.99742000  0.84437000  0.40255000  1.0 -0.0114461007
C  C254  1  0.03275000  0.81520000  0.41411000  1.0 -0.1290524413
C  C255  1  0.96925000  0.84256000  0.49593000  1.0 0.4589451794
C  C256  1  0.92402000  0.90079000  0.51384000  1.0 0.2300888462
C  C257  1  0.90340000  0.86861000  0.53124000  1.0 -0.1802660811
C  C258  1  0.87838000  0.88595000  0.55155000  1.0 -0.0890645892
C  C259  1  0.87077000  0.93326000  0.55313000  1.0 -0.0487817943
C  C260  1  0.89048000  0.96558000  0.53468000  1.0 -0.0721151579
C  C261  1  0.91684000  0.94888000  0.51586000  1.0 -0.2121928197
C  C262  1  0.84253000  0.95130000  0.57475000  1.0 0.591398447
C  C263  1  0.98497000  0.86696000  0.36316000  1.0 0.4532983791
C  C264  1  0.92337000  0.88618000  0.30619000  1.0 0.2300888462
C  C265  1  0.88138000  0.87620000  0.28897000  1.0 -0.2121928197
C  C266  1  0.85939000  0.89410000  0.25186000  1.0 -0.0606584113
C  C267  1  0.87859000  0.92169000  0.23167000  1.0 -0.0812018556
C  C268  1  0.92010000  0.93310000  0.25004000  1.0 -0.0721151579
C  C269  1  0.94179000  0.91620000  0.28707000  1.0 -0.1996164919
C  C270  1  0.85599000  0.94118000  0.19304000  1.0 0.591398447
C  C271  1  0.22522000  0.43606000  0.54078000  1.0 0.591398447
C  C272  1  0.20244000  0.41411000  0.50070000  1.0 -0.0373560876
C  C273  1  0.16044000  0.41210000  0.48767000  1.0 -0.0890645892
C  C274  1  0.13962000  0.39280000  0.45204000  1.0 -0.1690878269
C  C275  1  0.16022000  0.37730000  0.42755000  1.0 0.2215597478
C  C276  1  0.20300000  0.37920000  0.44070000  1.0 -0.1996164919
C  C277  1  0.22334000  0.39710000  0.47724000  1.0 -0.0890645892
C  C278  1  0.09971000  0.34910000  0.37214000  1.0 0.4532983791
C  C279  1  0.08750000  0.33080000  0.33159000  1.0 -0.0183065624
C  C280  1  0.05395000  0.29920000  0.31859000  1.0 -0.1060368155
C  C281  1  0.04117000  0.28096000  0.28066000  1.0 -0.0183065624
C  C282  1  0.06207000  0.29425000  0.25521000  1.0 -0.1497801334
C  C283  1  0.09674000  0.32459000  0.26808000  1.0 -0.0030673469
C  C284  1  0.10918000  0.34304000  0.30520000  1.0 -0.1901929866
C  C285  1  0.00670000  0.24460000  0.26920000  1.0 0.4589451794
C  C286  1  0.95312000  0.21281000  0.21138000  1.0 0.2215597478
C  C287  1  0.96050000  0.16520000  0.22034000  1.0 -0.1901929866
C  C288  1  0.93356000  0.13070000  0.19767000  1.0 -0.0812018556
C  C289  1  0.89801000  0.14457000  0.16719000  1.0 -0.0606584113
C  C290  1  0.89091000  0.19198000  0.15834000  1.0 -0.0721151579
C  C291  1  0.91886000  0.22660000  0.17995000  1.0 -0.1996164919
C  C292  1  0.86930000  0.10647000  0.14463000  1.0 0.591398447
C  C293  1  0.12051000  0.33390000  0.24103000  1.0 0.4589451794
C  C294  1  0.16580000  0.39150000  0.22294000  1.0 0.2215597478
C  C295  1  0.18281000  0.36100000  0.20322000  1.0 -0.1901929866
C  C296  1  0.20789000  0.37970000  0.18255000  1.0 -0.0812018556
C  C297  1  0.21497000  0.42701000  0.18138000  1.0 -0.0487817943
C  C298  1  0.19856000  0.45800000  0.20241000  1.0 -0.0812018556
C  C299  1  0.17370000  0.43980000  0.22340000  1.0 -0.2121928197
C  C300  1  0.24154000  0.44606000  0.15937000  1.0 0.591398447
C  C301  1  0.20313000  0.45919000  0.67085000  1.0 0.5983136784
C  C302  1  0.17529000  0.43670000  0.69075000  1.0 -0.0487817943
C  C303  1  0.19270000  0.41960000  0.72862000  1.0 -0.0812018556
C  C304  1  0.16842000  0.39700000  0.74730000  1.0 -0.2121928197
C  C305  1  0.12586000  0.39340000  0.72861000  1.0 0.2300888462
C  C306  1  0.10869000  0.41040000  0.69067000  1.0 -0.1802660811
C  C307  1  0.13463000  0.43140000  0.67216000  1.0 -0.0890645892
C  C308  1  0.06151000  0.36490000  0.74034000  1.0 0.4532983791
C  C309  1  0.04839000  0.34190000  0.77128000  1.0 -0.0030673469
C  C310  1  0.06924000  0.34940000  0.81084000  1.0 -0.1901929866
C  C311  1  0.05632000  0.32700000  0.83862000  1.0 -0.0114461007
C  C312  1  0.02162000  0.29630000  0.82661000  1.0 -0.1060368155
C  C313  1  0.00051000  0.28940000  0.78777000  1.0 -0.0183065624
C  C314  1  0.01259000  0.31350000  0.75908000  1.0 -0.1802660811
C  C315  1  0.07960000  0.33220000  0.88154000  1.0 0.4589451794
C  C316  1  0.12842000  0.38680000  0.92835000  1.0 0.2300888462
C  C317  1  0.13891000  0.43530000  0.93382000  1.0 -0.216654401
C  C318  1  0.16981000  0.45000000  0.96774000  1.0 -0.0606584113
C  C319  1  0.19251000  0.41690000  0.99598000  1.0 -0.0812018556
C  C320  1  0.18140000  0.36980000  0.99034000  1.0 -0.0721151579
C  C321  1  0.14870000  0.35500000  0.95661000  1.0 -0.1901929866
C  C322  1  0.22730000  0.43350000  0.02937000  1.0 0.5804546218
C  C323  1  0.96487000  0.25480000  0.77639000  1.0 0.4589451794
C  C324  1  0.92783000  0.19900000  0.72425000  1.0 0.255877171
C  C325  1  0.89484000  0.18710000  0.73660000  1.0 -0.1901929866
C  C326  1  0.86522000  0.15350000  0.71591000  1.0 -0.0812018556
C  C327  1  0.86865000  0.13103000  0.68357000  1.0 -0.0487817943
C  C328  1  0.90267000  0.14210000  0.67117000  1.0 -0.0606584113
C  C329  1  0.93227000  0.17370000  0.69159000  1.0 -0.1996164919
C  C330  1  0.83776000  0.09410000  0.66230000  1.0 0.591398447
C  C331  1  0.38141000  0.54890000  0.07370000  1.0 0.5590619336
C  C332  1  0.40593000  0.57410000  0.05131000  1.0 -0.0373560876
C  C333  1  0.38591000  0.59920000  0.01840000  1.0 -0.0812018556
C  C334  1  0.40776000  0.61930000  0.99780000  1.0 -0.1996164919
C  C335  1  0.44908000  0.61851000  0.00851000  1.0 0.2066656362
C  C336  1  0.46992000  0.59430000  0.04213000  1.0 -0.1802660811
C  C337  1  0.44823000  0.57160000  0.06345000  1.0 -0.0890645892
C  C338  1  0.50890000  0.64974000  0.99201000  1.0 0.4532983791
C  C339  1  0.51886000  0.67499000  0.95912000  1.0 0.0097043247
C  C340  1  0.49588000  0.66716000  0.91994000  1.0 -0.1901929866
C  C341  1  0.50524000  0.69157000  0.89084000  1.0 -0.0114461007
C  C342  1  0.53775000  0.72441000  0.90111000  1.0 -0.1290524413
C  C343  1  0.56058000  0.73223000  0.93987000  1.0 -0.0114461007
C  C344  1  0.55129000  0.70676000  0.96823000  1.0 -0.1497801334
C  C345  1  0.47946000  0.68540000  0.84839000  1.0 0.4698911797
C  C346  1  0.43870000  0.62360000  0.80349000  1.0 0.2300888462
C  C347  1  0.42350000  0.57460000  0.80540000  1.0 -0.2121928197
C  C348  1  0.39130000  0.55900000  0.77350000  1.0 -0.0812018556
C  C349  1  0.37790000  0.58490000  0.73950000  1.0 -0.0373560876
C  C350  1  0.39280000  0.63050000  0.73787000  1.0 -0.0812018556
C  C351  1  0.42250000  0.64960000  0.76983000  1.0 -0.1901929866
C  C352  1  0.34170000  0.56310000  0.70470000  1.0 0.5657321851
C  C353  1  0.59578000  0.76740000  0.94925000  1.0 0.4589451794
C  C354  1  0.63608000  0.82050000  0.00403000  1.0 0.2215597478
C  C355  1  0.63740000  0.83450000  0.04166000  1.0 -0.1996164919
C  C356  1  0.66920000  0.86400000  0.06356000  1.0 -0.0812018556
C  C357  1  0.69950000  0.87930000  0.04875000  1.0 -0.0487817943
C  C358  1  0.69730000  0.86520000  0.01126000  1.0 -0.0812018556
C  C359  1  0.66489000  0.83650000  0.98836000  1.0 -0.1901929866
C  C360  1  0.73417000  0.91090000  0.07190000  1.0 0.5804546218
C  C361  1  0.70140000  0.90820000  0.57220000  1.0 0.5804546218
C  C362  1  0.66980000  0.87260000  0.54730000  1.0 -0.0487817943
C  C363  1  0.62760000  0.88010000  0.54130000  1.0 -0.0721151579
C  C364  1  0.59860000  0.84740000  0.51860000  1.0 -0.2121928197
C  C365  1  0.61043000  0.80930000  0.50200000  1.0 0.2215597478
C  C366  1  0.65174000  0.80400000  0.50720000  1.0 -0.1802660811
C  C367  1  0.68100000  0.83700000  0.52940000  1.0 -0.1007348532
C  C368  1  0.58345000  0.73700000  0.46221000  1.0 0.4589451794
C  C369  1  0.54588000  0.70592000  0.45117000  1.0 -0.0261503586
C  C370  1  0.52424000  0.69608000  0.47673000  1.0 -0.1438964118
C  C371  1  0.49033000  0.66618000  0.46646000  1.0 -0.0030673469
C  C372  1  0.47661000  0.64581000  0.42871000  1.0 -0.1996164919
C  C373  1  0.49742000  0.65563000  0.40255000  1.0 -0.0114461007
C  C374  1  0.53275000  0.68480000  0.41411000  1.0 -0.1290524413
C  C375  1  0.46925000  0.65744000  0.49593000  1.0 0.4532983791
C  C376  1  0.42402000  0.59921000  0.51384000  1.0 0.2300888462
C  C377  1  0.40340000  0.63139000  0.53124000  1.0 -0.1802660811
C  C378  1  0.37838000  0.61405000  0.55155000  1.0 -0.0890645892
C  C379  1  0.37077000  0.56674000  0.55313000  1.0 -0.0487817943
C  C380  1  0.39048000  0.53442000  0.53468000  1.0 -0.0721151579
C  C381  1  0.41684000  0.55112000  0.51586000  1.0 -0.2121928197
C  C382  1  0.34253000  0.54870000  0.57475000  1.0 0.591398447
C  C383  1  0.48497000  0.63304000  0.36316000  1.0 0.4532983791
C  C384  1  0.42337000  0.61382000  0.30619000  1.0 0.2300888462
C  C385  1  0.38138000  0.62380000  0.28897000  1.0 -0.2121928197
C  C386  1  0.35939000  0.60590000  0.25186000  1.0 -0.0606584113
C  C387  1  0.37859000  0.57831000  0.23167000  1.0 -0.0812018556
C  C388  1  0.42010000  0.56690000  0.25004000  1.0 -0.0721151579
C  C389  1  0.44179000  0.58380000  0.28707000  1.0 -0.1996164919
C  C390  1  0.35599000  0.55882000  0.19304000  1.0 0.591398447
C  C391  1  0.72522000  0.06394000  0.54078000  1.0 0.591398447
C  C392  1  0.70244000  0.08589000  0.50070000  1.0 -0.0373560876
C  C393  1  0.66044000  0.08790000  0.48767000  1.0 -0.0890645892
C  C394  1  0.63962000  0.10720000  0.45204000  1.0 -0.1690878269
C  C395  1  0.66022000  0.12270000  0.42755000  1.0 0.2215597478
C  C396  1  0.70300000  0.12080000  0.44070000  1.0 -0.1996164919
C  C397  1  0.72334000  0.10290000  0.47724000  1.0 -0.0890645892
C  C398  1  0.59971000  0.15090000  0.37214000  1.0 0.4532983791
C  C399  1  0.58750000  0.16920000  0.33159000  1.0 -0.0183065624
C  C400  1  0.55395000  0.20080000  0.31859000  1.0 -0.1060368155
C  C401  1  0.54117000  0.21904000  0.28066000  1.0 -0.0183065624
C  C402  1  0.56207000  0.20575000  0.25521000  1.0 -0.1497801334
C  C403  1  0.59674000  0.17541000  0.26808000  1.0 -0.0030673469
C  C404  1  0.60918000  0.15696000  0.30520000  1.0 -0.1901929866
C  C405  1  0.50670000  0.25540000  0.26920000  1.0 0.4589451794
C  C406  1  0.45312000  0.28719000  0.21138000  1.0 0.2215597478
C  C407  1  0.46050000  0.33480000  0.22034000  1.0 -0.1901929866
C  C408  1  0.43356000  0.36930000  0.19767000  1.0 -0.0812018556
C  C409  1  0.39801000  0.35543000  0.16719000  1.0 -0.0606584113
C  C410  1  0.39091000  0.30802000  0.15834000  1.0 -0.0721151579
C  C411  1  0.41886000  0.27340000  0.17995000  1.0 -0.1996164919
C  C412  1  0.36930000  0.39353000  0.14463000  1.0 0.591398447
C  C413  1  0.62051000  0.16610000  0.24103000  1.0 0.4589451794
C  C414  1  0.66580000  0.10850000  0.22294000  1.0 0.2215597478
C  C415  1  0.68281000  0.13900000  0.20322000  1.0 -0.1901929866
C  C416  1  0.70789000  0.12030000  0.18255000  1.0 -0.0812018556
C  C417  1  0.71497000  0.07299000  0.18138000  1.0 -0.0487817943
C  C418  1  0.69856000  0.04200000  0.20241000  1.0 -0.0812018556
C  C419  1  0.67370000  0.06020000  0.22340000  1.0 -0.2121928197
C  C420  1  0.74154000  0.05394000  0.15937000  1.0 0.591398447
C  C421  1  0.70313000  0.04081000  0.67085000  1.0 0.5983136784
C  C422  1  0.67529000  0.06330000  0.69075000  1.0 -0.0487817943
C  C423  1  0.69270000  0.08040000  0.72862000  1.0 -0.0812018556
C  C424  1  0.66842000  0.10300000  0.74730000  1.0 -0.1996164919
C  C425  1  0.62586000  0.10660000  0.72861000  1.0 0.2300888462
C  C426  1  0.60869000  0.08960000  0.69067000  1.0 -0.1802660811
C  C427  1  0.63463000  0.06860000  0.67216000  1.0 -0.0890645892
C  C428  1  0.56151000  0.13510000  0.74034000  1.0 0.4532983791
C  C429  1  0.54839000  0.15810000  0.77128000  1.0 -0.0030673469
C  C430  1  0.56924000  0.15060000  0.81084000  1.0 -0.1802660811
C  C431  1  0.55632000  0.17300000  0.83862000  1.0 -0.0114461007
C  C432  1  0.52162000  0.20370000  0.82661000  1.0 -0.1007348532
C  C433  1  0.50051000  0.21060000  0.78777000  1.0 -0.0183065624
C  C434  1  0.51259000  0.18650000  0.75908000  1.0 -0.1802660811
C  C435  1  0.57960000  0.16780000  0.88154000  1.0 0.4698911797
C  C436  1  0.62842000  0.11320000  0.92835000  1.0 0.2300888462
C  C437  1  0.63891000  0.06470000  0.93382000  1.0 -0.2121928197
C  C438  1  0.66981000  0.05000000  0.96774000  1.0 -0.0606584113
C  C439  1  0.69251000  0.08310000  0.99598000  1.0 -0.0812018556
C  C440  1  0.68140000  0.13020000  0.99034000  1.0 -0.0721151579
C  C441  1  0.64870000  0.14500000  0.95661000  1.0 -0.1901929866
C  C442  1  0.72730000  0.06650000  0.02937000  1.0 0.5804546218
C  C443  1  0.46487000  0.24520000  0.77639000  1.0 0.4589451794
C  C444  1  0.42783000  0.30100000  0.72425000  1.0 0.2548667531
C  C445  1  0.39484000  0.31290000  0.73660000  1.0 -0.1901929866
C  C446  1  0.36522000  0.34650000  0.71591000  1.0 -0.0812018556
C  C447  1  0.36865000  0.36897000  0.68357000  1.0 -0.0487817943
C  C448  1  0.40267000  0.35790000  0.67117000  1.0 -0.0606584113
C  C449  1  0.43227000  0.32630000  0.69159000  1.0 -0.1996164919
C  C450  1  0.33776000  0.40590000  0.66230000  1.0 0.591398447
C  C451  1  0.88141000  0.95110000  0.07370000  1.0 0.5590619336
C  C452  1  0.90593000  0.92590000  0.05131000  1.0 -0.0373560876
C  C453  1  0.88591000  0.90080000  0.01840000  1.0 -0.0812018556
C  C454  1  0.90776000  0.88070000  0.99780000  1.0 -0.1996164919
C  C455  1  0.94908000  0.88149000  0.00851000  1.0 0.2066656362
C  C456  1  0.96992000  0.90570000  0.04213000  1.0 -0.1802660811
C  C457  1  0.94823000  0.92840000  0.06345000  1.0 -0.0890645892
C  C458  1  0.00890000  0.85026000  0.99201000  1.0 0.4589451794
C  C459  1  0.01886000  0.82501000  0.95912000  1.0 0.0097043247
C  C460  1  0.99588000  0.83284000  0.91994000  1.0 -0.1901929866
C  C461  1  0.00524000  0.80843000  0.89084000  1.0 -0.0114461007
C  C462  1  0.03775000  0.77559000  0.90111000  1.0 -0.1290524413
C  C463  1  0.06058000  0.76777000  0.93987000  1.0 -0.0114461007
C  C464  1  0.05129000  0.79324000  0.96823000  1.0 -0.1497801334
C  C465  1  0.97946000  0.81460000  0.84839000  1.0 0.4698911797
C  C466  1  0.93870000  0.87640000  0.80349000  1.0 0.2300888462
C  C467  1  0.92350000  0.92540000  0.80540000  1.0 -0.2121928197
C  C468  1  0.89130000  0.94100000  0.77350000  1.0 -0.0812018556
C  C469  1  0.87790000  0.91510000  0.73950000  1.0 -0.0373560876
C  C470  1  0.89280000  0.86950000  0.73787000  1.0 -0.0812018556
C  C471  1  0.92250000  0.85040000  0.76983000  1.0 -0.1901929866
C  C472  1  0.84170000  0.93690000  0.70470000  1.0 0.5657321851
C  C473  1  0.09578000  0.73260000  0.94925000  1.0 0.4589451794
C  C474  1  0.13608000  0.67950000  0.00403000  1.0 0.2215597478
C  C475  1  0.13740000  0.66550000  0.04166000  1.0 -0.1996164919
C  C476  1  0.16920000  0.63600000  0.06356000  1.0 -0.0812018556
C  C477  1  0.19950000  0.62070000  0.04875000  1.0 -0.0487817943
C  C478  1  0.19730000  0.63480000  0.01126000  1.0 -0.0812018556
C  C479  1  0.16489000  0.66350000  0.98836000  1.0 -0.1901929866
C  C480  1  0.23417000  0.58910000  0.07190000  1.0 0.5804546218
N  N1  1  0.41996000  0.22442000  0.51780000  1.0 -0.3693855414
N  N2  1  0.55060000  0.38582000  0.50728000  1.0 -0.3613169232
N  N3  1  0.55653000  0.36815000  0.65630000  1.0 -0.3512362013
N  N4  1  0.35937000  0.85908000  0.61107000  1.0 -0.3693855414
N  N5  1  0.51812000  0.74787000  0.76803000  1.0 -0.3512362013
N  N6  1  0.35916000  0.87569000  0.75506000  1.0 -0.3613169232
N  N7  1  0.39667000  0.87091000  0.24963000  1.0 -0.3613169232
N  N8  1  0.40112000  0.87390000  0.10767000  1.0 -0.3693855414
N  N9  1  0.54130000  0.73156000  0.25762000  1.0 -0.3512362013
N  N10  1  0.03130000  0.14233000  0.01508000  1.0 -0.3693855414
N  N11  1  0.03319000  0.13954000  0.16093000  1.0 -0.3512362013
N  N12  1  0.89724000  0.28964000  0.01579000  1.0 -0.3512362013
N  N13  1  0.91996000  0.27558000  0.51780000  1.0 -0.3613169232
N  N14  1  0.05060000  0.11418000  0.50728000  1.0 -0.3613169232
N  N15  1  0.05653000  0.13185000  0.65630000  1.0 -0.3512362013
N  N16  1  0.85937000  0.64092000  0.61107000  1.0 -0.3693855414
N  N17  1  0.01812000  0.75213000  0.76803000  1.0 -0.3512362013
N  N18  1  0.85916000  0.62431000  0.75506000  1.0 -0.3613169232
N  N19  1  0.89667000  0.62909000  0.24963000  1.0 -0.3693855414
N  N20  1  0.90112000  0.62610000  0.10767000  1.0 -0.3758918752
N  N21  1  0.04130000  0.76844000  0.25762000  1.0 -0.3512362013
N  N22  1  0.53130000  0.35767000  0.01508000  1.0 -0.3693855414
N  N23  1  0.53319000  0.36046000  0.16093000  1.0 -0.3512362013
N  N24  1  0.39724000  0.21036000  0.01579000  1.0 -0.3613169232
N  N25  1  0.08004000  0.72442000  0.48220000  1.0 -0.3613169232
N  N26  1  0.94940000  0.88582000  0.49272000  1.0 -0.3613169232
N  N27  1  0.94347000  0.86815000  0.34370000  1.0 -0.3512362013
N  N28  1  0.14063000  0.35908000  0.38893000  1.0 -0.3693855414
N  N29  1  0.98188000  0.24787000  0.23197000  1.0 -0.3512362013
N  N30  1  0.14084000  0.37569000  0.24494000  1.0 -0.3613169232
N  N31  1  0.10333000  0.37091000  0.75037000  1.0 -0.3613169232
N  N32  1  0.09888000  0.37390000  0.89233000  1.0 -0.3758918752
N  N33  1  0.95870000  0.23156000  0.74238000  1.0 -0.3512362013
N  N34  1  0.46870000  0.64233000  0.98492000  1.0 -0.3693855414
N  N35  1  0.46681000  0.63954000  0.83907000  1.0 -0.3512362013
N  N36  1  0.60276000  0.78964000  0.98421000  1.0 -0.3512362013
N  N37  1  0.58004000  0.77558000  0.48220000  1.0 -0.3613169232
N  N38  1  0.44940000  0.61418000  0.49272000  1.0 -0.3613169232
N  N39  1  0.44347000  0.63185000  0.34370000  1.0 -0.3512362013
N  N40  1  0.64063000  0.14092000  0.38893000  1.0 -0.3693855414
N  N41  1  0.48188000  0.25213000  0.23197000  1.0 -0.3512362013
N  N42  1  0.64084000  0.12431000  0.24494000  1.0 -0.3613169232
N  N43  1  0.60333000  0.12909000  0.75037000  1.0 -0.3613169232
N  N44  1  0.59888000  0.12610000  0.89233000  1.0 -0.3693855414
N  N45  1  0.45870000  0.26844000  0.74238000  1.0 -0.3512362013
N  N46  1  0.96870000  0.85767000  0.98492000  1.0 -0.3693855414
N  N47  1  0.96681000  0.86046000  0.83907000  1.0 -0.3512362013
N  N48  1  0.10276000  0.71036000  0.98421000  1.0 -0.3512362013
O  O1  1  0.31642000  0.05190000  0.42033000  1.0 -0.5514709536
O  O2  1  0.26193000  0.10170000  0.41810000  1.0 -0.5182511186
O  O3  1  0.38559000  0.27320000  0.54610000  1.0 -0.4590433561
O  O4  1  0.53057000  0.31257000  0.47978000  1.0 -0.4423141822
O  O5  1  0.66173000  0.49671000  0.42514000  1.0 -0.5304925103
O  O6  1  0.67428000  0.42158000  0.41062000  1.0 -0.5304925103
O  O7  1  0.48851000  0.38293000  0.65025000  1.0 -0.4492196067
O  O8  1  0.68276000  0.43543000  0.82085000  1.0 -0.5304925103
O  O9  1  0.62306000  0.46244000  0.82476000  1.0 -0.5304925103
O  O10  1  0.29606000  0.95161000  0.44064000  1.0 -0.5096565842
O  O11  1  0.23529000  0.93516000  0.44855000  1.0 -0.5398226191
O  O12  1  0.42570000  0.85330000  0.61147000  1.0 -0.4492196067
O  O13  1  0.49629000  0.71524000  0.70787000  1.0 -0.4191537012
O  O14  1  0.61574000  0.56427000  0.85032000  1.0 -0.5514709536
O  O15  1  0.66699000  0.61881000  0.87648000  1.0 -0.5182511186
O  O16  1  0.37964000  0.80330000  0.78440000  1.0 -0.4590433561
O  O17  1  0.24313000  0.91688000  0.85815000  1.0 -0.5304925103
O  O18  1  0.25290000  0.99100000  0.83963000  1.0 -0.5398226191
O  O19  1  0.31294000  0.96903000  0.36426000  1.0 -0.5014454767
O  O20  1  0.25913000  0.96693000  0.30839000  1.0 -0.5398226191
O  O21  1  0.46325000  0.87600000  0.29161000  1.0 -0.4492196067
O  O22  1  0.41832000  0.79870000  0.09581000  1.0 -0.4590433561
O  O23  1  0.25369000  0.90236000  0.94479000  1.0 -0.5182511186
O  O24  1  0.26500000  0.97735000  0.96894000  1.0 -0.5304925103
O  O25  1  0.55627000  0.74895000  0.20262000  1.0 -0.4492196067
O  O26  1  0.68777000  0.57998000  0.32221000  1.0 -0.5398226191
O  O27  1  0.65989000  0.57919000  0.37030000  1.0 -0.5398226191
O  O28  1  0.15468000  0.05854000  0.93410000  1.0 -0.479568619
O  O29  1  0.09939000  0.02228000  0.89761000  1.0 -0.4924105365
O  O30  1  0.96350000  0.13934000  0.97776000  1.0 -0.4590433561
O  O31  1  0.02727000  0.21831000  0.17438000  1.0 -0.410021763
O  O32  1  0.17900000  0.02990000  0.28800000  1.0 -0.5014454767
O  O33  1  0.16865000  0.09080000  0.32804000  1.0 -0.5642563958
O  O34  1  0.88415000  0.27405000  0.07261000  1.0 -0.4423141822
O  O35  1  0.76562000  0.42433000  0.89485000  1.0 -0.5182511186
O  O36  1  0.73938000  0.42261000  0.94310000  1.0 -0.5182511186
O  O37  1  0.22574000  0.00679000  0.37513000  1.0 -1.0171674152
O  O38  1  0.20950000  0.15290000  0.37550000  1.0 0.2066656362
O  O39  1  0.25470000  0.08190000  0.33980000  1.0 0.0175684116
O  O40  1  0.19670000  0.99254000  0.89483000  1.0 -1.0086366196
O  O41  1  0.17257000  0.95585000  0.95564000  1.0 -0.2470246141
O  O42  1  0.21890000  0.03680000  0.00767000  1.0 -0.4669978131
O  O43  1  0.81642000  0.44810000  0.42033000  1.0 -0.5514709536
O  O44  1  0.76193000  0.39830000  0.41810000  1.0 -0.5182511186
O  O45  1  0.88559000  0.22680000  0.54610000  1.0 -0.4590433561
O  O46  1  0.03057000  0.18743000  0.47978000  1.0 -0.4423141822
O  O47  1  0.16173000  0.00329000  0.42514000  1.0 -0.5304925103
O  O48  1  0.17428000  0.07842000  0.41062000  1.0 -0.5304925103
O  O49  1  0.98851000  0.11707000  0.65025000  1.0 -0.4492196067
O  O50  1  0.18276000  0.06457000  0.82085000  1.0 -0.5304925103
O  O51  1  0.12306000  0.03756000  0.82476000  1.0 -0.5304925103
O  O52  1  0.79606000  0.54839000  0.44064000  1.0 -0.5096565842
O  O53  1  0.73529000  0.56484000  0.44855000  1.0 -0.5398226191
O  O54  1  0.92570000  0.64670000  0.61147000  1.0 -0.4492196067
O  O55  1  0.99629000  0.78476000  0.70787000  1.0 -0.4191537012
O  O56  1  0.11574000  0.93573000  0.85032000  1.0 -0.5514709536
O  O57  1  0.16699000  0.88119000  0.87648000  1.0 -0.5182511186
O  O58  1  0.87964000  0.69670000  0.78440000  1.0 -0.4669978131
O  O59  1  0.74313000  0.58312000  0.85815000  1.0 -0.5304925103
O  O60  1  0.75290000  0.50900000  0.83963000  1.0 -0.5398226191
O  O61  1  0.81294000  0.53097000  0.36426000  1.0 -0.5014454767
O  O62  1  0.75913000  0.53307000  0.30839000  1.0 -0.5398226191
O  O63  1  0.96325000  0.62400000  0.29161000  1.0 -0.4492196067
O  O64  1  0.91832000  0.70130000  0.09581000  1.0 -0.4590433561
O  O65  1  0.75369000  0.59764000  0.94479000  1.0 -0.5182511186
O  O66  1  0.76500000  0.52265000  0.96894000  1.0 -0.5304925103
O  O67  1  0.05627000  0.75105000  0.20262000  1.0 -0.4492196067
O  O68  1  0.18777000  0.92002000  0.32221000  1.0 -0.5398226191
O  O69  1  0.15989000  0.92081000  0.37030000  1.0 -0.5398226191
O  O70  1  0.65468000  0.44146000  0.93410000  1.0 -0.479568619
O  O71  1  0.59939000  0.47772000  0.89761000  1.0 -0.4924105365
O  O72  1  0.46350000  0.36066000  0.97776000  1.0 -0.4590433561
O  O73  1  0.52727000  0.28169000  0.17438000  1.0 -0.410021763
O  O74  1  0.67900000  0.47010000  0.28800000  1.0 -0.5014454767
O  O75  1  0.66865000  0.40920000  0.32804000  1.0 -0.5642563958
O  O76  1  0.38415000  0.22595000  0.07261000  1.0 -0.4423141822
O  O77  1  0.26562000  0.07567000  0.89485000  1.0 -0.5182511186
O  O78  1  0.23938000  0.07739000  0.94310000  1.0 -0.5182511186
O  O79  1  0.72574000  0.49321000  0.37513000  1.0 -1.0171674152
O  O80  1  0.70950000  0.34710000  0.37550000  1.0 0.2300888462
O  O81  1  0.75470000  0.41810000  0.33980000  1.0 0.0175684116
O  O82  1  0.69670000  0.50746000  0.89483000  1.0 -1.0086366196
O  O83  1  0.67257000  0.54415000  0.95564000  1.0 -0.244713362
O  O84  1  0.71890000  0.46320000  0.00767000  1.0 -0.4669978131
O  O85  1  0.18358000  0.55190000  0.57967000  1.0 -0.5514709536
O  O86  1  0.23807000  0.60170000  0.58190000  1.0 -0.5182511186
O  O87  1  0.11441000  0.77320000  0.45390000  1.0 -0.4590433561
O  O88  1  0.96943000  0.81257000  0.52022000  1.0 -0.4492196067
O  O89  1  0.83827000  0.99671000  0.57486000  1.0 -0.5304925103
O  O90  1  0.82572000  0.92158000  0.58938000  1.0 -0.5304925103
O  O91  1  0.01149000  0.88293000  0.34975000  1.0 -0.4492196067
O  O92  1  0.81724000  0.93543000  0.17915000  1.0 -0.5304925103
O  O93  1  0.87694000  0.96244000  0.17524000  1.0 -0.5304925103
O  O94  1  0.20394000  0.45161000  0.55936000  1.0 -0.5096565842
O  O95  1  0.26471000  0.43516000  0.55145000  1.0 -0.5398226191
O  O96  1  0.07430000  0.35330000  0.38853000  1.0 -0.4492196067
O  O97  1  0.00371000  0.21524000  0.29213000  1.0 -0.4191537012
O  O98  1  0.88426000  0.06427000  0.14968000  1.0 -0.5514709536
O  O99  1  0.83301000  0.11881000  0.12352000  1.0 -0.5182511186
O  O100  1  0.12036000  0.30330000  0.21560000  1.0 -0.4590433561
O  O101  1  0.25687000  0.41688000  0.14185000  1.0 -0.5304925103
O  O102  1  0.24710000  0.49100000  0.16037000  1.0 -0.5398226191
O  O103  1  0.18706000  0.46903000  0.63574000  1.0 -0.5014454767
O  O104  1  0.24087000  0.46693000  0.69161000  1.0 -0.5398226191
O  O105  1  0.03675000  0.37600000  0.70839000  1.0 -0.4492196067
O  O106  1  0.08168000  0.29870000  0.90419000  1.0 -0.4590433561
O  O107  1  0.24631000  0.40236000  0.05521000  1.0 -0.5096565842
O  O108  1  0.23500000  0.47735000  0.03106000  1.0 -0.5304925103
O  O109  1  0.94373000  0.24895000  0.79738000  1.0 -0.4590433561
O  O110  1  0.81223000  0.07998000  0.67779000  1.0 -0.5398226191
O  O111  1  0.84011000  0.07919000  0.62970000  1.0 -0.5398226191
O  O112  1  0.34532000  0.55854000  0.06590000  1.0 -0.479568619
O  O113  1  0.40061000  0.52228000  0.10239000  1.0 -0.4924105365
O  O114  1  0.53650000  0.63934000  0.02224000  1.0 -0.4492196067
O  O115  1  0.47273000  0.71831000  0.82562000  1.0 -0.410021763
O  O116  1  0.32100000  0.52990000  0.71200000  1.0 -0.5014454767
O  O117  1  0.33135000  0.59080000  0.67196000  1.0 -0.5642563958
O  O118  1  0.61585000  0.77405000  0.92739000  1.0 -0.4423141822
O  O119  1  0.73438000  0.92433000  0.10515000  1.0 -0.5182511186
O  O120  1  0.76062000  0.92261000  0.05690000  1.0 -0.5182511186
O  O121  1  0.27426000  0.50679000  0.62487000  1.0 -1.0171674152
O  O122  1  0.29050000  0.65290000  0.62450000  1.0 0.2300888462
O  O123  1  0.24530000  0.58190000  0.66020000  1.0 0.0097043247
O  O124  1  0.30330000  0.49254000  0.10517000  1.0 -1.0086366196
O  O125  1  0.32743000  0.45585000  0.04436000  1.0 -0.2608598728
O  O126  1  0.28110000  0.53680000  0.99233000  1.0 -0.4669978131
O  O127  1  0.68358000  0.94810000  0.57967000  1.0 -0.5514709536
O  O128  1  0.73807000  0.89830000  0.58190000  1.0 -0.5182511186
O  O129  1  0.61441000  0.72680000  0.45390000  1.0 -0.4590433561
O  O130  1  0.46943000  0.68743000  0.52022000  1.0 -0.4423141822
O  O131  1  0.33827000  0.50329000  0.57486000  1.0 -0.5304925103
O  O132  1  0.32572000  0.57842000  0.58938000  1.0 -0.5304925103
O  O133  1  0.51149000  0.61707000  0.34975000  1.0 -0.4492196067
O  O134  1  0.31724000  0.56457000  0.17915000  1.0 -0.5304925103
O  O135  1  0.37694000  0.53756000  0.17524000  1.0 -0.5304925103
O  O136  1  0.70394000  0.04839000  0.55936000  1.0 -0.5096565842
O  O137  1  0.76471000  0.06484000  0.55145000  1.0 -0.5398226191
O  O138  1  0.57430000  0.14670000  0.38853000  1.0 -0.4492196067
O  O139  1  0.50371000  0.28476000  0.29213000  1.0 -0.4191537012
O  O140  1  0.38426000  0.43573000  0.14968000  1.0 -0.5514709536
O  O141  1  0.33301000  0.38119000  0.12352000  1.0 -0.5182511186
O  O142  1  0.62036000  0.19670000  0.21560000  1.0 -0.4590433561
O  O143  1  0.75687000  0.08312000  0.14185000  1.0 -0.5304925103
O  O144  1  0.74710000  0.00900000  0.16037000  1.0 -0.5398226191
O  O145  1  0.68706000  0.03097000  0.63574000  1.0 -0.5096565842
O  O146  1  0.74087000  0.03307000  0.69161000  1.0 -0.5398226191
O  O147  1  0.53675000  0.12400000  0.70839000  1.0 -0.4492196067
O  O148  1  0.58168000  0.20130000  0.90419000  1.0 -0.4669978131
O  O149  1  0.74631000  0.09764000  0.05521000  1.0 -0.5182511186
O  O150  1  0.73500000  0.02265000  0.03106000  1.0 -0.5304925103
O  O151  1  0.44373000  0.25105000  0.79738000  1.0 -0.4492196067
O  O152  1  0.31223000  0.42002000  0.67779000  1.0 -0.5398226191
O  O153  1  0.34011000  0.42081000  0.62970000  1.0 -0.5398226191
O  O154  1  0.84532000  0.94146000  0.06590000  1.0 -0.479568619
O  O155  1  0.90061000  0.97772000  0.10239000  1.0 -0.4924105365
O  O156  1  0.03650000  0.86066000  0.02224000  1.0 -0.4590433561
O  O157  1  0.97273000  0.78169000  0.82562000  1.0 -0.410021763
O  O158  1  0.82100000  0.97010000  0.71200000  1.0 -0.5014454767
O  O159  1  0.83135000  0.90920000  0.67196000  1.0 -0.5642563958
O  O160  1  0.11585000  0.72595000  0.92739000  1.0 -0.4423141822
O  O161  1  0.23438000  0.57567000  0.10515000  1.0 -0.5182511186
O  O162  1  0.26062000  0.57739000  0.05690000  1.0 -0.5182511186
O  O163  1  0.77426000  0.99321000  0.62487000  1.0 -1.0171674152
O  O164  1  0.79050000  0.84710000  0.62450000  1.0 0.2215597478
O  O165  1  0.74530000  0.91810000  0.66020000  1.0 0.0097043247
O  O166  1  0.80330000  0.00746000  0.10517000  1.0 -1.0086366196
O  O167  1  0.82743000  0.04415000  0.04436000  1.0 -0.2470246141
O  O168  1  0.78110000  0.96320000  0.99233000  1.0 -0.4669978131
