# DDEC6 charges by PACMAN v1.1 (https://github.com/mtap-research/PACMAN-charge/)
data_OWIYUP_ASR_pacman
_symmetry_space_group_name_H-M   'P 1'
_cell_length_a   36.57650000
_cell_length_b   31.25580000
_cell_length_c   21.36780000
_cell_angle_alpha   85.89280000
_cell_angle_beta   58.46690000
_cell_angle_gamma   35.64030000
_symmetry_Int_Tables_number   1
_chemical_formula_structural   Cu6H64C121(NO14)2
_chemical_formula_sum   'Cu12 H128 C242 N4 O56'
_cell_volume   8524.28692747
_cell_formula_units_Z   2
loop_
 _symmetry_equiv_pos_site_id
 _symmetry_equiv_pos_as_xyz
  1  'x, y, z'
loop_
 _atom_site_type_symbol
 _atom_site_label
 _atom_site_symmetry_multiplicity
 _atom_site_fract_x
 _atom_site_fract_y
 _atom_site_fract_z
 _atom_site_occupancy
 _atom_site_charge
Cu  Cu1  1  0.55042000  0.70760000  0.71818000  1.0 0.8321764951
Cu  Cu2  1  0.70760000  0.55042000  0.02380000  1.0 0.8321764951
Cu  Cu3  1  0.71818000  0.02380000  0.55042000  1.0 0.8321764951
Cu  Cu4  1  0.02380000  0.71818000  0.70760000  1.0 0.8321764951
Cu  Cu5  1  0.69958000  0.54240000  0.53182000  1.0 0.8321764951
Cu  Cu6  1  0.54240000  0.69958000  0.22620000  1.0 0.8321764951
Cu  Cu7  1  0.53182000  0.22620000  0.69958000  1.0 0.8321764951
Cu  Cu8  1  0.22620000  0.53182000  0.54240000  1.0 0.8321764951
Cu  Cu9  1  0.52106000  0.52106000  0.47894000  1.0 0.6859960367
Cu  Cu10  1  0.47894000  0.47894000  0.52106000  1.0 0.6859960367
Cu  Cu11  1  0.72894000  0.72894000  0.77106000  1.0 0.6859960367
Cu  Cu12  1  0.77106000  0.77106000  0.72894000  1.0 0.6859960367
H  H1  1  0.93680000  0.12900000  0.74240000  1.0 0.118506439
H  H2  1  0.12900000  0.93680000  0.19180000  1.0 0.118506439
H  H3  1  0.74240000  0.19180000  0.93680000  1.0 0.118506439
H  H4  1  0.19180000  0.74240000  0.12900000  1.0 0.118506439
H  H5  1  0.31320000  0.12100000  0.50760000  1.0 0.118506439
H  H6  1  0.12100000  0.31320000  0.05820000  1.0 0.118506439
H  H7  1  0.50760000  0.05820000  0.31320000  1.0 0.118506439
H  H8  1  0.05820000  0.50760000  0.12100000  1.0 0.118506439
H  H9  1  0.08830000  0.97810000  0.67930000  1.0 0.118506439
H  H10  1  0.97810000  0.08830000  0.25430000  1.0 0.118506439
H  H11  1  0.67930000  0.25430000  0.08830000  1.0 0.118506439
H  H12  1  0.25430000  0.67930000  0.97810000  1.0 0.118506439
H  H13  1  0.16170000  0.27190000  0.57070000  1.0 0.118506439
H  H14  1  0.27190000  0.16170000  0.99570000  1.0 0.118506439
H  H15  1  0.57070000  0.99570000  0.16170000  1.0 0.118506439
H  H16  1  0.99570000  0.57070000  0.27190000  1.0 0.118506439
H  H17  1  0.07300000  0.86720000  0.65940000  1.0 0.118506439
H  H18  1  0.86720000  0.07300000  0.40040000  1.0 0.118506439
H  H19  1  0.65940000  0.40040000  0.07300000  1.0 0.118506439
H  H20  1  0.40040000  0.65940000  0.86720000  1.0 0.118506439
H  H21  1  0.17700000  0.38280000  0.59060000  1.0 0.118506439
H  H22  1  0.38280000  0.17700000  0.84960000  1.0 0.118506439
H  H23  1  0.59060000  0.84960000  0.17700000  1.0 0.118506439
H  H24  1  0.84960000  0.59060000  0.38280000  1.0 0.118506439
H  H25  1  0.92150000  0.01810000  0.72250000  1.0 0.109331846
H  H26  1  0.01810000  0.92150000  0.33790000  1.0 0.109331846
H  H27  1  0.72250000  0.33790000  0.92150000  1.0 0.109331846
H  H28  1  0.33790000  0.72250000  0.01810000  1.0 0.109331846
H  H29  1  0.32850000  0.23190000  0.52750000  1.0 0.109331846
H  H30  1  0.23190000  0.32850000  0.91210000  1.0 0.109331846
H  H31  1  0.52750000  0.91210000  0.32850000  1.0 0.109331846
H  H32  1  0.91210000  0.52750000  0.23190000  1.0 0.109331846
H  H33  1  0.07330000  0.33410000  0.25350000  1.0 0.118506439
H  H34  1  0.33410000  0.07330000  0.33910000  1.0 0.118506439
H  H35  1  0.25350000  0.33910000  0.07330000  1.0 0.118506439
H  H36  1  0.33910000  0.25350000  0.33410000  1.0 0.118506439
H  H37  1  0.17670000  0.91590000  0.99650000  1.0 0.118506439
H  H38  1  0.91590000  0.17670000  0.91090000  1.0 0.118506439
H  H39  1  0.99650000  0.91090000  0.17670000  1.0 0.118506439
H  H40  1  0.91090000  0.99650000  0.91590000  1.0 0.118506439
H  H41  1  0.21000000  0.25220000  0.17420000  1.0 0.109331846
H  H42  1  0.25220000  0.21000000  0.36360000  1.0 0.109331846
H  H43  1  0.17420000  0.36360000  0.21000000  1.0 0.109331846
H  H44  1  0.36360000  0.17420000  0.25220000  1.0 0.109331846
H  H45  1  0.04000000  0.99780000  0.07580000  1.0 0.109331846
H  H46  1  0.99780000  0.04000000  0.88640000  1.0 0.109331846
H  H47  1  0.07580000  0.88640000  0.04000000  1.0 0.109331846
H  H48  1  0.88640000  0.07580000  0.99780000  1.0 0.109331846
H  H49  1  0.06880000  0.39360000  0.45280000  1.0 0.109331846
H  H50  1  0.39360000  0.06880000  0.08480000  1.0 0.109331846
H  H51  1  0.45280000  0.08480000  0.06880000  1.0 0.109331846
H  H52  1  0.08480000  0.45280000  0.39360000  1.0 0.109331846
H  H53  1  0.18120000  0.85640000  0.79720000  1.0 0.109331846
H  H54  1  0.85640000  0.18120000  0.16520000  1.0 0.109331846
H  H55  1  0.79720000  0.16520000  0.18120000  1.0 0.109331846
H  H56  1  0.16520000  0.79720000  0.85640000  1.0 0.109331846
H  H57  1  0.93210000  0.47550000  0.53210000  1.0 0.118506439
H  H58  1  0.47550000  0.93210000  0.06030000  1.0 0.118506439
H  H59  1  0.53210000  0.06030000  0.93210000  1.0 0.118506439
H  H60  1  0.06030000  0.53210000  0.47550000  1.0 0.118506439
H  H61  1  0.31790000  0.77450000  0.71790000  1.0 0.118506439
H  H62  1  0.77450000  0.31790000  0.18970000  1.0 0.118506439
H  H63  1  0.71790000  0.18970000  0.31790000  1.0 0.118506439
H  H64  1  0.18970000  0.71790000  0.77450000  1.0 0.118506439
H  H65  1  0.63130000  0.39730000  0.90070000  1.0 0.109331846
H  H66  1  0.39730000  0.63130000  0.07070000  1.0 0.109331846
H  H67  1  0.90070000  0.07070000  0.63130000  1.0 0.109331846
H  H68  1  0.07070000  0.90070000  0.39730000  1.0 0.109331846
H  H69  1  0.61870000  0.85270000  0.34930000  1.0 0.109331846
H  H70  1  0.85270000  0.61870000  0.17930000  1.0 0.109331846
H  H71  1  0.34930000  0.17930000  0.61870000  1.0 0.109331846
H  H72  1  0.17930000  0.34930000  0.85270000  1.0 0.109331846
H  H73  1  0.60740000  0.47740000  0.84800000  1.0 0.109331846
H  H74  1  0.47740000  0.60740000  0.06720000  1.0 0.109331846
H  H75  1  0.84800000  0.06720000  0.60740000  1.0 0.109331846
H  H76  1  0.06720000  0.84800000  0.47740000  1.0 0.109331846
H  H77  1  0.64260000  0.77260000  0.40200000  1.0 0.109331846
H  H78  1  0.77260000  0.64260000  0.18280000  1.0 0.109331846
H  H79  1  0.40200000  0.18280000  0.64260000  1.0 0.109331846
H  H80  1  0.18280000  0.40200000  0.77260000  1.0 0.109331846
H  H81  1  0.91710000  0.20030000  0.56950000  1.0 0.118506439
H  H82  1  0.20030000  0.91710000  0.31310000  1.0 0.118506439
H  H83  1  0.56950000  0.31310000  0.91710000  1.0 0.118506439
H  H84  1  0.31310000  0.56950000  0.20030000  1.0 0.118506439
H  H85  1  0.33290000  0.04970000  0.68050000  1.0 0.118506439
H  H86  1  0.04970000  0.33290000  0.93690000  1.0 0.118506439
H  H87  1  0.68050000  0.93690000  0.33290000  1.0 0.118506439
H  H88  1  0.93690000  0.68050000  0.04970000  1.0 0.118506439
H  H89  1  0.94100000  0.12020000  0.62220000  1.0 0.118506439
H  H90  1  0.12020000  0.94100000  0.31660000  1.0 0.118506439
H  H91  1  0.62220000  0.31660000  0.94100000  1.0 0.118506439
H  H92  1  0.31660000  0.62220000  0.12020000  1.0 0.118506439
H  H93  1  0.30900000  0.12980000  0.62780000  1.0 0.118506439
H  H94  1  0.12980000  0.30900000  0.93340000  1.0 0.118506439
H  H95  1  0.62780000  0.93340000  0.30900000  1.0 0.118506439
H  H96  1  0.93340000  0.62780000  0.12980000  1.0 0.118506439
H  H97  1  0.79750000  0.57210000  0.58630000  1.0 0.1381452267
H  H98  1  0.57210000  0.79750000  0.04410000  1.0 0.1381452267
H  H99  1  0.58630000  0.04410000  0.79750000  1.0 0.1381452267
H  H100  1  0.04410000  0.58630000  0.57210000  1.0 0.1381452267
H  H101  1  0.45250000  0.67790000  0.66370000  1.0 0.1381452267
H  H102  1  0.67790000  0.45250000  0.20590000  1.0 0.1381452267
H  H103  1  0.66370000  0.20590000  0.45250000  1.0 0.1381452267
H  H104  1  0.20590000  0.66370000  0.67790000  1.0 0.1381452267
H  H105  1  0.79420000  0.35740000  0.59960000  1.0 0.118506439
H  H106  1  0.35740000  0.79420000  0.24880000  1.0 0.118506439
H  H107  1  0.59960000  0.24880000  0.79420000  1.0 0.118506439
H  H108  1  0.24880000  0.59960000  0.35740000  1.0 0.118506439
H  H109  1  0.45580000  0.89260000  0.65040000  1.0 0.118506439
H  H110  1  0.89260000  0.45580000  0.00120000  1.0 0.118506439
H  H111  1  0.65040000  0.00120000  0.45580000  1.0 0.118506439
H  H112  1  0.00120000  0.65040000  0.89260000  1.0 0.118506439
H  H113  1  0.93270000  0.41410000  0.39810000  1.0 0.1323089113
H  H114  1  0.41410000  0.93270000  0.25510000  1.0 0.1323089113
H  H115  1  0.39810000  0.25510000  0.93270000  1.0 0.1323089113
H  H116  1  0.25510000  0.39810000  0.41410000  1.0 0.1323089113
H  H117  1  0.31730000  0.83590000  0.85190000  1.0 0.1323089113
H  H118  1  0.83590000  0.31730000  0.99490000  1.0 0.1323089113
H  H119  1  0.85190000  0.99490000  0.31730000  1.0 0.1323089113
H  H120  1  0.99490000  0.85190000  0.83590000  1.0 0.1323089113
H  H121  1  0.61500000  0.54180000  0.80220000  1.0 0.1381452267
H  H122  1  0.54180000  0.61500000  0.04100000  1.0 0.1381452267
H  H123  1  0.80220000  0.04100000  0.61500000  1.0 0.1381452267
H  H124  1  0.04100000  0.80220000  0.54180000  1.0 0.1381452267
H  H125  1  0.63500000  0.70820000  0.44780000  1.0 0.1381452267
H  H126  1  0.70820000  0.63500000  0.20900000  1.0 0.1381452267
H  H127  1  0.44780000  0.20900000  0.63500000  1.0 0.1381452267
H  H128  1  0.20900000  0.44780000  0.70820000  1.0 0.1381452267
C  C1  1  0.91414000  0.08850000  0.73870000  1.0 0.0653076654
C  C2  1  0.08850000  0.91414000  0.25866000  1.0 0.0653076654
C  C3  1  0.73870000  0.25866000  0.91414000  1.0 0.0653076654
C  C4  1  0.25866000  0.73870000  0.08850000  1.0 0.0653076654
C  C5  1  0.33586000  0.16150000  0.51130000  1.0 0.0653076654
C  C6  1  0.16150000  0.33586000  0.99134000  1.0 0.0653076654
C  C7  1  0.51130000  0.99134000  0.33586000  1.0 0.0653076654
C  C8  1  0.99134000  0.51130000  0.16150000  1.0 0.0653076654
C  C9  1  0.96403000  0.07663000  0.72577000  1.0 -0.1481498613
C  C10  1  0.07663000  0.96403000  0.23357000  1.0 -0.1481498613
C  C11  1  0.72577000  0.23357000  0.96403000  1.0 -0.1481498613
C  C12  1  0.23357000  0.72577000  0.07663000  1.0 -0.1481498613
C  C13  1  0.28597000  0.17337000  0.52423000  1.0 -0.1481498613
C  C14  1  0.17337000  0.28597000  0.01643000  1.0 -0.1481498613
C  C15  1  0.52423000  0.01643000  0.28597000  1.0 -0.1481498613
C  C16  1  0.01643000  0.52423000  0.17337000  1.0 -0.1481498613
C  C17  1  0.05491000  0.98611000  0.68789000  1.0 -0.1481498613
C  C18  1  0.98611000  0.05491000  0.27109000  1.0 -0.1481498613
C  C19  1  0.68789000  0.27109000  0.05491000  1.0 -0.1481498613
C  C20  1  0.27109000  0.68789000  0.98611000  1.0 -0.1481498613
C  C21  1  0.19509000  0.26389000  0.56211000  1.0 -0.1481498613
C  C22  1  0.26389000  0.19509000  0.97891000  1.0 -0.1481498613
C  C23  1  0.56211000  0.97891000  0.19509000  1.0 -0.1481498613
C  C24  1  0.97891000  0.56211000  0.26389000  1.0 -0.1481498613
C  C25  1  0.09560000  0.90780000  0.66300000  1.0 0.0802743693
C  C26  1  0.90780000  0.09560000  0.33360000  1.0 0.0802743693
C  C27  1  0.66300000  0.33360000  0.09560000  1.0 0.0802743693
C  C28  1  0.33360000  0.66300000  0.90780000  1.0 0.0802743693
C  C29  1  0.15440000  0.34220000  0.58700000  1.0 0.0802743693
C  C30  1  0.34220000  0.15440000  0.91640000  1.0 0.0802743693
C  C31  1  0.58700000  0.91640000  0.15440000  1.0 0.0802743693
C  C32  1  0.91640000  0.58700000  0.34220000  1.0 0.0802743693
C  C33  1  0.04567000  0.91967000  0.67593000  1.0 -0.1481498613
C  C34  1  0.91967000  0.04567000  0.35873000  1.0 -0.1481498613
C  C35  1  0.67593000  0.35873000  0.04567000  1.0 -0.1481498613
C  C36  1  0.35873000  0.67593000  0.91967000  1.0 -0.1481498613
C  C37  1  0.20433000  0.33033000  0.57407000  1.0 -0.1481498613
C  C38  1  0.33033000  0.20433000  0.89127000  1.0 -0.1481498613
C  C39  1  0.57407000  0.89127000  0.20433000  1.0 -0.1481498613
C  C40  1  0.89127000  0.57407000  0.33033000  1.0 -0.1481498613
C  C41  1  0.95489000  0.01009000  0.71391000  1.0 -0.1574341518
C  C42  1  0.01009000  0.95489000  0.32111000  1.0 -0.1574341518
C  C43  1  0.71391000  0.32111000  0.95489000  1.0 -0.1574341518
C  C44  1  0.32111000  0.71391000  0.01009000  1.0 -0.1574341518
C  C45  1  0.29511000  0.23991000  0.53609000  1.0 -0.1574341518
C  C46  1  0.23991000  0.29511000  0.92889000  1.0 -0.1574341518
C  C47  1  0.53609000  0.92889000  0.29511000  1.0 -0.1574341518
C  C48  1  0.92889000  0.53609000  0.23991000  1.0 -0.1574341518
C  C49  1  0.98922000  0.41282000  0.40058000  1.0 0.1041118984
C  C50  1  0.41282000  0.98922000  0.19738000  1.0 0.1041118984
C  C51  1  0.40058000  0.19738000  0.98922000  1.0 0.1041118984
C  C52  1  0.19738000  0.40058000  0.41282000  1.0 0.1041118984
C  C53  1  0.26078000  0.83718000  0.84942000  1.0 0.1041118984
C  C54  1  0.83718000  0.26078000  0.05262000  1.0 0.1041118984
C  C55  1  0.84942000  0.05262000  0.26078000  1.0 0.1041118984
C  C56  1  0.05262000  0.84942000  0.83718000  1.0 0.1041118984
C  C57  1  0.07242000  0.34594000  0.29346000  1.0 -0.1481498613
C  C58  1  0.34594000  0.07242000  0.28818000  1.0 -0.1481498613
C  C59  1  0.29346000  0.28818000  0.07242000  1.0 -0.1481498613
C  C60  1  0.28818000  0.29346000  0.34594000  1.0 -0.1481498613
C  C61  1  0.17758000  0.90406000  0.95654000  1.0 -0.1481498613
C  C62  1  0.90406000  0.17758000  0.96182000  1.0 -0.1481498613
C  C63  1  0.95654000  0.96182000  0.17758000  1.0 -0.1481498613
C  C64  1  0.96182000  0.95654000  0.90406000  1.0 -0.1481498613
C  C65  1  0.15431000  0.29691000  0.24589000  1.0 -0.1391869743
C  C66  1  0.29691000  0.15431000  0.30289000  1.0 -0.1391869743
C  C67  1  0.24589000  0.30289000  0.15431000  1.0 -0.1391869743
C  C68  1  0.30289000  0.24589000  0.29691000  1.0 -0.1391869743
C  C69  1  0.09569000  0.95309000  0.00411000  1.0 -0.1391869743
C  C70  1  0.95309000  0.09569000  0.94711000  1.0 -0.1391869743
C  C71  1  0.00411000  0.94711000  0.09569000  1.0 -0.1391869743
C  C72  1  0.94711000  0.00411000  0.95309000  1.0 -0.1391869743
C  C73  1  0.15298000  0.31478000  0.30562000  1.0 0.0583846269
C  C74  1  0.31478000  0.15298000  0.22662000  1.0 0.0583846269
C  C75  1  0.30562000  0.22662000  0.15298000  1.0 0.0583846269
C  C76  1  0.22662000  0.30562000  0.31478000  1.0 0.0583846269
C  C77  1  0.09702000  0.93522000  0.94438000  1.0 0.0583846269
C  C78  1  0.93522000  0.09702000  0.02338000  1.0 0.0583846269
C  C79  1  0.94438000  0.02338000  0.09702000  1.0 0.0583846269
C  C80  1  0.02338000  0.94438000  0.93522000  1.0 0.0583846269
C  C81  1  0.06978000  0.38164000  0.41276000  1.0 -0.1391869743
C  C82  1  0.38164000  0.06978000  0.13582000  1.0 -0.1391869743
C  C83  1  0.41276000  0.13582000  0.06978000  1.0 -0.1391869743
C  C84  1  0.13582000  0.41276000  0.38164000  1.0 -0.1391869743
C  C85  1  0.18022000  0.86836000  0.83724000  1.0 -0.1391869743
C  C86  1  0.86836000  0.18022000  0.11418000  1.0 -0.1391869743
C  C87  1  0.83724000  0.11418000  0.18022000  1.0 -0.1391869743
C  C88  1  0.11418000  0.83724000  0.86836000  1.0 -0.1391869743
C  C89  1  0.98788000  0.43068000  0.46032000  1.0 -0.1391869743
C  C90  1  0.43068000  0.98788000  0.12112000  1.0 -0.1391869743
C  C91  1  0.46032000  0.12112000  0.98788000  1.0 -0.1391869743
C  C92  1  0.12112000  0.46032000  0.43068000  1.0 -0.1391869743
C  C93  1  0.26212000  0.81932000  0.78968000  1.0 -0.1391869743
C  C94  1  0.81932000  0.26212000  0.12888000  1.0 -0.1391869743
C  C95  1  0.78968000  0.12888000  0.26212000  1.0 -0.1391869743
C  C96  1  0.12888000  0.78968000  0.81932000  1.0 -0.1391869743
C  C97  1  0.78852000  0.25070000  0.76670000  1.0 0.0583846269
C  C98  1  0.25070000  0.78852000  0.19408000  1.0 0.0583846269
C  C99  1  0.76670000  0.19408000  0.78852000  1.0 0.0583846269
C  C100  1  0.19408000  0.76670000  0.25070000  1.0 0.0583846269
C  C101  1  0.46148000  0.99930000  0.48330000  1.0 0.0583846269
C  C102  1  0.99930000  0.46148000  0.05592000  1.0 0.0583846269
C  C103  1  0.48330000  0.05592000  0.46148000  1.0 0.0583846269
C  C104  1  0.05592000  0.48330000  0.99930000  1.0 0.0583846269
C  C105  1  0.68856000  0.35776000  0.83444000  1.0 -0.1481498613
C  C106  1  0.35776000  0.68856000  0.11924000  1.0 -0.1481498613
C  C107  1  0.83444000  0.11924000  0.68856000  1.0 -0.1481498613
C  C108  1  0.11924000  0.83444000  0.35776000  1.0 -0.1481498613
C  C109  1  0.56144000  0.89224000  0.41556000  1.0 -0.1481498613
C  C110  1  0.89224000  0.56144000  0.13076000  1.0 -0.1481498613
C  C111  1  0.41556000  0.13076000  0.56144000  1.0 -0.1481498613
C  C112  1  0.13076000  0.41556000  0.89224000  1.0 -0.1481498613
C  C113  1  0.67422000  0.40582000  0.80278000  1.0 -0.1481498613
C  C114  1  0.40582000  0.67422000  0.11718000  1.0 -0.1481498613
C  C115  1  0.80278000  0.11718000  0.67422000  1.0 -0.1481498613
C  C116  1  0.11718000  0.80278000  0.40582000  1.0 -0.1481498613
C  C117  1  0.57578000  0.84418000  0.44722000  1.0 -0.1481498613
C  C118  1  0.84418000  0.57578000  0.13282000  1.0 -0.1481498613
C  C119  1  0.44722000  0.13282000  0.57578000  1.0 -0.1481498613
C  C120  1  0.13282000  0.44722000  0.84418000  1.0 -0.1481498613
C  C121  1  0.75984000  0.34684000  0.70356000  1.0 0.109331846
C  C122  1  0.34684000  0.75984000  0.18976000  1.0 0.109331846
C  C123  1  0.70356000  0.18976000  0.75984000  1.0 0.109331846
C  C124  1  0.18976000  0.70356000  0.34684000  1.0 0.109331846
C  C125  1  0.49016000  0.90316000  0.54644000  1.0 0.1041118984
C  C126  1  0.90316000  0.49016000  0.06024000  1.0 0.109331846
C  C127  1  0.54644000  0.06024000  0.49016000  1.0 0.1041118984
C  C128  1  0.06024000  0.54644000  0.90316000  1.0 0.109331846
C  C129  1  0.85979000  0.23979000  0.63581000  1.0 -0.1481498613
C  C130  1  0.23979000  0.85979000  0.26461000  1.0 -0.1481498613
C  C131  1  0.63581000  0.26461000  0.85979000  1.0 -0.1481498613
C  C132  1  0.26461000  0.63581000  0.23979000  1.0 -0.1481498613
C  C133  1  0.39021000  0.01021000  0.61419000  1.0 -0.1481498613
C  C134  1  0.01021000  0.39021000  0.98539000  1.0 -0.1481498613
C  C135  1  0.61419000  0.98539000  0.39021000  1.0 -0.1481498613
C  C136  1  0.98539000  0.61419000  0.01021000  1.0 -0.1481498613
C  C137  1  0.87413000  0.19173000  0.66747000  1.0 -0.1574341518
C  C138  1  0.19173000  0.87413000  0.26667000  1.0 -0.1574341518
C  C139  1  0.66747000  0.26667000  0.87413000  1.0 -0.1574341518
C  C140  1  0.26667000  0.66747000  0.19173000  1.0 -0.1574341518
C  C141  1  0.37587000  0.05827000  0.58253000  1.0 -0.1574341518
C  C142  1  0.05827000  0.37587000  0.98333000  1.0 -0.1574341518
C  C143  1  0.58253000  0.98333000  0.37587000  1.0 -0.1574341518
C  C144  1  0.98333000  0.58253000  0.05827000  1.0 -0.1574341518
C  C145  1  0.80200000  0.19800000  0.80200000  1.0 -0.0173489612
C  C146  1  0.19800000  0.80200000  0.19800000  1.0 -0.0173489612
C  C147  1  0.44800000  0.05200000  0.44800000  1.0 -0.0173489612
C  C148  1  0.05200000  0.44800000  0.05200000  1.0 -0.0173489612
C  C149  1  0.81820000  0.53500000  0.53960000  1.0 -0.1803493111
C  C150  1  0.53500000  0.81820000  0.10720000  1.0 -0.1803493111
C  C151  1  0.53960000  0.10720000  0.81820000  1.0 -0.1803493111
C  C152  1  0.10720000  0.53960000  0.53500000  1.0 -0.1803493111
C  C153  1  0.43180000  0.71500000  0.71040000  1.0 -0.1803493111
C  C154  1  0.71500000  0.43180000  0.14280000  1.0 -0.1803493111
C  C155  1  0.71040000  0.14280000  0.43180000  1.0 -0.1803493111
C  C156  1  0.14280000  0.71040000  0.71500000  1.0 -0.1803493111
C  C157  1  0.74320000  0.39960000  0.67120000  1.0 -0.0825496737
C  C158  1  0.39960000  0.74320000  0.18600000  1.0 -0.0825496737
C  C159  1  0.67120000  0.18600000  0.74320000  1.0 -0.0825496737
C  C160  1  0.18600000  0.67120000  0.39960000  1.0 -0.0825496737
C  C161  1  0.50680000  0.85040000  0.57880000  1.0 -0.0825496737
C  C162  1  0.85040000  0.50680000  0.06400000  1.0 -0.0825496737
C  C163  1  0.57880000  0.06400000  0.50680000  1.0 -0.0825496737
C  C164  1  0.06400000  0.57880000  0.85040000  1.0 -0.0825496737
C  C165  1  0.25000000  0.25000000  0.25000000  1.0 -0.0133417698
C  C166  1  0.00000000  0.00000000  0.00000000  1.0 -0.0133417698
C  C167  1  0.91220000  0.45200000  0.44360000  1.0 -0.0894176158
C  C168  1  0.45200000  0.91220000  0.19220000  1.0 -0.0894176158
C  C169  1  0.44360000  0.19220000  0.91220000  1.0 -0.0894176158
C  C170  1  0.19220000  0.44360000  0.45200000  1.0 -0.0894176158
C  C171  1  0.33780000  0.79800000  0.80640000  1.0 -0.0894176158
C  C172  1  0.79800000  0.33780000  0.05780000  1.0 -0.0894176158
C  C173  1  0.80640000  0.05780000  0.33780000  1.0 -0.0894176158
C  C174  1  0.05780000  0.80640000  0.79800000  1.0 -0.0894176158
C  C175  1  0.56910000  0.56910000  0.43090000  1.0 0.4593143895
C  C176  1  0.43090000  0.43090000  0.56910000  1.0 0.4593143895
C  C177  1  0.68090000  0.68090000  0.81910000  1.0 0.4593143895
C  C178  1  0.81910000  0.81910000  0.68090000  1.0 0.4593143895
C  C179  1  0.18450000  0.82030000  0.63370000  1.0 -0.0487581685
C  C180  1  0.82030000  0.18450000  0.36150000  1.0 -0.0487581685
C  C181  1  0.63370000  0.36150000  0.18450000  1.0 -0.0487581685
C  C182  1  0.36150000  0.63370000  0.82030000  1.0 -0.0487581685
C  C183  1  0.06550000  0.42970000  0.61630000  1.0 -0.0487581685
C  C184  1  0.42970000  0.06550000  0.88850000  1.0 -0.0487581685
C  C185  1  0.61630000  0.88850000  0.06550000  1.0 -0.0487581685
C  C186  1  0.88850000  0.61630000  0.42970000  1.0 -0.0487581685
C  C187  1  0.66540000  0.49880000  0.73060000  1.0 -0.2226160208
C  C188  1  0.49880000  0.66540000  0.10520000  1.0 -0.2226160208
C  C189  1  0.73060000  0.10520000  0.66540000  1.0 -0.2226160208
C  C190  1  0.10520000  0.73060000  0.49880000  1.0 -0.2226160208
C  C191  1  0.58460000  0.75120000  0.51940000  1.0 -0.2226160208
C  C192  1  0.75120000  0.58460000  0.14480000  1.0 -0.2226160208
C  C193  1  0.51940000  0.14480000  0.58460000  1.0 -0.2226160208
C  C194  1  0.14480000  0.51940000  0.75120000  1.0 -0.2226160208
C  C195  1  0.73500000  0.57740000  0.58240000  1.0 0.6204325368
C  C196  1  0.57740000  0.73500000  0.10520000  1.0 0.6204325368
C  C197  1  0.58240000  0.10520000  0.73500000  1.0 0.6204325368
C  C198  1  0.10520000  0.58240000  0.57740000  1.0 0.6204325368
C  C199  1  0.51500000  0.67260000  0.66760000  1.0 0.6204325368
C  C200  1  0.67260000  0.51500000  0.14480000  1.0 0.6204325368
C  C201  1  0.66760000  0.14480000  0.51500000  1.0 0.6204325368
C  C202  1  0.14480000  0.66760000  0.67260000  1.0 0.6204325368
C  C203  1  0.65170000  0.54790000  0.69210000  1.0 0.6124638353
C  C204  1  0.54790000  0.65170000  0.10830000  1.0 0.6124638353
C  C205  1  0.69210000  0.10830000  0.65170000  1.0 0.6124638353
C  C206  1  0.10830000  0.69210000  0.54790000  1.0 0.6124638353
C  C207  1  0.59830000  0.70210000  0.55790000  1.0 0.6124638353
C  C208  1  0.70210000  0.59830000  0.14170000  1.0 0.6124638353
C  C209  1  0.55790000  0.14170000  0.59830000  1.0 0.6124638353
C  C210  1  0.14170000  0.55790000  0.70210000  1.0 0.6124638353
C  C211  1  0.33240000  0.66160000  0.57640000  1.0 0.4593143895
C  C212  1  0.66160000  0.33240000  0.42960000  1.0 0.4593143895
C  C213  1  0.57640000  0.42960000  0.33240000  1.0 0.4593143895
C  C214  1  0.42960000  0.57640000  0.66160000  1.0 0.4593143895
C  C215  1  0.91760000  0.58840000  0.67360000  1.0 0.4593143895
C  C216  1  0.58840000  0.91760000  0.82040000  1.0 0.4593143895
C  C217  1  0.67360000  0.82040000  0.91760000  1.0 0.4593143895
C  C218  1  0.82040000  0.67360000  0.58840000  1.0 0.4593143895
C  C219  1  0.69580000  0.51560000  0.30640000  1.0 -0.0894176158
C  C220  1  0.51560000  0.69580000  0.48220000  1.0 -0.0894176158
C  C221  1  0.30640000  0.48220000  0.69580000  1.0 -0.0894176158
C  C222  1  0.48220000  0.30640000  0.51560000  1.0 -0.0894176158
C  C223  1  0.55420000  0.73440000  0.94360000  1.0 -0.0894176158
C  C224  1  0.73440000  0.55420000  0.76780000  1.0 -0.0894176158
C  C225  1  0.94360000  0.76780000  0.55420000  1.0 -0.0894176158
C  C226  1  0.76780000  0.94360000  0.73440000  1.0 -0.0894176158
C  C227  1  0.23980000  0.74320000  0.60880000  1.0 -0.0487581685
C  C228  1  0.74320000  0.23980000  0.40820000  1.0 -0.0487581685
C  C229  1  0.60880000  0.40820000  0.23980000  1.0 -0.0487581685
C  C230  1  0.40820000  0.60880000  0.74320000  1.0 -0.0487581685
C  C231  1  0.01020000  0.50680000  0.64120000  1.0 -0.0487581685
C  C232  1  0.50680000  0.01020000  0.84180000  1.0 -0.0487581685
C  C233  1  0.64120000  0.84180000  0.01020000  1.0 -0.0487581685
C  C234  1  0.84180000  0.64120000  0.50680000  1.0 -0.0487581685
C  C235  1  0.77530000  0.25390000  0.36010000  1.0 0.0101009707
C  C236  1  0.25390000  0.77530000  0.61070000  1.0 0.0101009707
C  C237  1  0.36010000  0.61070000  0.77530000  1.0 0.0101009707
C  C238  1  0.61070000  0.36010000  0.25390000  1.0 0.0101009707
C  C239  1  0.47470000  0.99610000  0.88990000  1.0 0.0101009707
C  C240  1  0.99610000  0.47470000  0.63930000  1.0 0.0101009707
C  C241  1  0.88990000  0.63930000  0.47470000  1.0 0.0101009707
C  C242  1  0.63930000  0.88990000  0.99610000  1.0 0.0101009707
N  N1  1  0.59140000  0.59140000  0.40860000  1.0 -0.0633817895
N  N2  1  0.40860000  0.40860000  0.59140000  1.0 -0.0633817895
N  N3  1  0.65860000  0.65860000  0.84140000  1.0 -0.0633817895
N  N4  1  0.84140000  0.84140000  0.65860000  1.0 -0.0633817895
O  O1  1  0.64480000  0.66040000  0.67760000  1.0 -0.4968370835
O  O2  1  0.66040000  0.64480000  0.01720000  1.0 -0.4968370835
O  O3  1  0.67760000  0.01720000  0.64480000  1.0 -0.4968370835
O  O4  1  0.01720000  0.67760000  0.66040000  1.0 -0.4968370835
O  O5  1  0.60520000  0.58960000  0.57240000  1.0 -0.4968370835
O  O6  1  0.58960000  0.60520000  0.23280000  1.0 -0.4968370835
O  O7  1  0.57240000  0.23280000  0.60520000  1.0 -0.4968370835
O  O8  1  0.23280000  0.57240000  0.58960000  1.0 -0.4968370835
O  O9  1  0.58880000  0.62980000  0.75320000  1.0 -0.3891631442
O  O10  1  0.62980000  0.58880000  0.02820000  1.0 -0.3891631442
O  O11  1  0.75320000  0.02820000  0.58880000  1.0 -0.3891631442
O  O12  1  0.02820000  0.75320000  0.62980000  1.0 -0.3891631442
O  O13  1  0.66120000  0.62020000  0.49680000  1.0 -0.3891631442
O  O14  1  0.62020000  0.66120000  0.22180000  1.0 -0.3891631442
O  O15  1  0.49680000  0.22180000  0.66120000  1.0 -0.3891631442
O  O16  1  0.22180000  0.49680000  0.62020000  1.0 -0.3891631442
O  O17  1  0.78184000  0.51004000  0.50636000  1.0 -0.5612662922
O  O18  1  0.51004000  0.78184000  0.20176000  1.0 -0.5612662922
O  O19  1  0.50636000  0.20176000  0.78184000  1.0 -0.5612662922
O  O20  1  0.20176000  0.50636000  0.51004000  1.0 -0.5612662922
O  O21  1  0.46816000  0.73996000  0.74364000  1.0 -0.5612662922
O  O22  1  0.73996000  0.46816000  0.04824000  1.0 -0.5612662922
O  O23  1  0.74364000  0.04824000  0.46816000  1.0 -0.5612662922
O  O24  1  0.04824000  0.74364000  0.73996000  1.0 -0.5612662922
O  O25  1  0.71862000  0.48362000  0.59138000  1.0 -0.5612662922
O  O26  1  0.48362000  0.71862000  0.20638000  1.0 -0.5612662922
O  O27  1  0.59138000  0.20638000  0.71862000  1.0 -0.5612662922
O  O28  1  0.20638000  0.59138000  0.48362000  1.0 -0.5612662922
O  O29  1  0.53138000  0.76638000  0.65862000  1.0 -0.5612662922
O  O30  1  0.76638000  0.53138000  0.04362000  1.0 -0.5612662922
O  O31  1  0.65862000  0.04362000  0.53138000  1.0 -0.5612662922
O  O32  1  0.04362000  0.65862000  0.76638000  1.0 -0.5612662922
O  O33  1  0.36800000  0.66460000  0.56860000  1.0 -0.4096064496
O  O34  1  0.66460000  0.36800000  0.39880000  1.0 -0.4096064496
O  O35  1  0.56860000  0.39880000  0.36800000  1.0 -0.4096064496
O  O36  1  0.39880000  0.56860000  0.66460000  1.0 -0.4096064496
O  O37  1  0.88200000  0.58540000  0.68140000  1.0 -0.4096064496
O  O38  1  0.58540000  0.88200000  0.85120000  1.0 -0.4096064496
O  O39  1  0.68140000  0.85120000  0.88200000  1.0 -0.4096064496
O  O40  1  0.85120000  0.68140000  0.58540000  1.0 -0.4096064496
O  O41  1  0.36410000  0.60030000  0.56170000  1.0 -0.4031995612
O  O42  1  0.60030000  0.36410000  0.47390000  1.0 -0.4031995612
O  O43  1  0.56170000  0.47390000  0.36410000  1.0 -0.4031995612
O  O44  1  0.47390000  0.56170000  0.60030000  1.0 -0.4031995612
O  O45  1  0.88590000  0.64970000  0.68830000  1.0 -0.4031995612
O  O46  1  0.64970000  0.88590000  0.77610000  1.0 -0.4031995612
O  O47  1  0.68830000  0.77610000  0.88590000  1.0 -0.4031995612
O  O48  1  0.77610000  0.68830000  0.64970000  1.0 -0.4031995612
O  O49  1  0.60410000  0.50690000  0.39690000  1.0 -0.0894176158
O  O50  1  0.50690000  0.60410000  0.49210000  1.0 -0.0894176158
O  O51  1  0.39690000  0.49210000  0.60410000  1.0 -0.0894176158
O  O52  1  0.49210000  0.39690000  0.50690000  1.0 -0.0894176158
O  O53  1  0.64590000  0.74310000  0.85310000  1.0 -0.0825496737
O  O54  1  0.74310000  0.64590000  0.75790000  1.0 -0.0894176158
O  O55  1  0.85310000  0.75790000  0.64590000  1.0 -0.0894176158
O  O56  1  0.75790000  0.85310000  0.74310000  1.0 -0.0894176158
