# DDEC6 charges by PACMAN v1.1 (https://github.com/mtap-research/PACMAN-charge/)
data_OWUJIB_FSR_pacman
_symmetry_space_group_name_H-M   'P 1'
_cell_length_a   14.61110000
_cell_length_b   15.93580000
_cell_length_c   32.31300000
_cell_angle_alpha   90.00000000
_cell_angle_beta   90.00000000
_cell_angle_gamma   90.00000000
_symmetry_Int_Tables_number   1
_chemical_formula_structural   ZnH10C17N3O4
_chemical_formula_sum   'Zn16 H160 C272 N48 O64'
_cell_volume   7523.74494075
_cell_formula_units_Z   16
loop_
 _symmetry_equiv_pos_site_id
 _symmetry_equiv_pos_as_xyz
  1  'x, y, z'
loop_
 _atom_site_type_symbol
 _atom_site_label
 _atom_site_symmetry_multiplicity
 _atom_site_fract_x
 _atom_site_fract_y
 _atom_site_fract_z
 _atom_site_occupancy
 _atom_site_charge
Zn  Zn1  1  0.43820000  0.85894000  0.37641000  1.0 0.8334339172
Zn  Zn2  1  0.93820000  0.64106000  0.62359000  1.0 0.8334339172
Zn  Zn3  1  0.93820000  0.85894000  0.12359000  1.0 0.8334339172
Zn  Zn4  1  0.43820000  0.64106000  0.87641000  1.0 0.8334339172
Zn  Zn5  1  0.44374000  0.67507000  0.37364000  1.0 0.8334339172
Zn  Zn6  1  0.94374000  0.82493000  0.62636000  1.0 0.8334339172
Zn  Zn7  1  0.94374000  0.67507000  0.12636000  1.0 0.8334339172
Zn  Zn8  1  0.44374000  0.82493000  0.87364000  1.0 0.8334339172
Zn  Zn9  1  0.06180000  0.14106000  0.87641000  1.0 0.8334339172
Zn  Zn10  1  0.56180000  0.35894000  0.12359000  1.0 0.8334339172
Zn  Zn11  1  0.56180000  0.14106000  0.62359000  1.0 0.8334339172
Zn  Zn12  1  0.06180000  0.35894000  0.37641000  1.0 0.8334339172
Zn  Zn13  1  0.05626000  0.32493000  0.87364000  1.0 0.8334339172
Zn  Zn14  1  0.55626000  0.17507000  0.12636000  1.0 0.8334339172
Zn  Zn15  1  0.55626000  0.32493000  0.62636000  1.0 0.8334339172
Zn  Zn16  1  0.05626000  0.17507000  0.37364000  1.0 0.8334339172
H  H1  1  0.31130000  0.53610000  0.35980000  1.0 0.122289798
H  H2  1  0.81130000  0.96390000  0.64020000  1.0 0.122289798
H  H3  1  0.81130000  0.53610000  0.14020000  1.0 0.122289798
H  H4  1  0.31130000  0.96390000  0.85980000  1.0 0.122289798
H  H5  1  0.58140000  0.65200000  0.49030000  1.0 0.122289798
H  H6  1  0.08140000  0.84800000  0.50970000  1.0 0.122289798
H  H7  1  0.08140000  0.65200000  0.00970000  1.0 0.122289798
H  H8  1  0.58140000  0.84800000  0.99030000  1.0 0.122289798
H  H9  1  0.56640000  0.53100000  0.39070000  1.0 0.122289798
H  H10  1  0.06640000  0.96900000  0.60930000  1.0 0.122289798
H  H11  1  0.06640000  0.53100000  0.10930000  1.0 0.122289798
H  H12  1  0.56640000  0.96900000  0.89070000  1.0 0.122289798
H  H13  1  0.68480000  0.63800000  0.54410000  1.0 0.112469194
H  H14  1  0.18480000  0.86200000  0.45590000  1.0 0.112469194
H  H15  1  0.18480000  0.63800000  0.95590000  1.0 0.112469194
H  H16  1  0.68480000  0.86200000  0.04410000  1.0 0.112469194
H  H17  1  0.87970000  0.86780000  0.53120000  1.0 0.122289798
H  H18  1  0.37970000  0.63220000  0.46880000  1.0 0.122289798
H  H19  1  0.37970000  0.86780000  0.96880000  1.0 0.122289798
H  H20  1  0.87970000  0.63220000  0.03120000  1.0 0.122289798
H  H21  1  0.89100000  0.98030000  0.48660000  1.0 0.112469194
H  H22  1  0.39100000  0.51970000  0.51340000  1.0 0.112469194
H  H23  1  0.39100000  0.98030000  0.01340000  1.0 0.112469194
H  H24  1  0.89100000  0.51970000  0.98660000  1.0 0.112469194
H  H25  1  0.78610000  0.99580000  0.43210000  1.0 0.112469194
H  H26  1  0.28610000  0.50420000  0.56790000  1.0 0.112469194
H  H27  1  0.28610000  0.99580000  0.06790000  1.0 0.112469194
H  H28  1  0.78610000  0.50420000  0.93210000  1.0 0.112469194
H  H29  1  0.67020000  0.90010000  0.42270000  1.0 0.1279036353
H  H30  1  0.17020000  0.59990000  0.57730000  1.0 0.1279036353
H  H31  1  0.17020000  0.90010000  0.07730000  1.0 0.1279036353
H  H32  1  0.67020000  0.59990000  0.92270000  1.0 0.1279036353
H  H33  1  0.60640000  0.66170000  0.26670000  1.0 0.122289798
H  H34  1  0.10640000  0.83830000  0.73330000  1.0 0.122289798
H  H35  1  0.10640000  0.66170000  0.23330000  1.0 0.122289798
H  H36  1  0.60640000  0.83830000  0.76670000  1.0 0.122289798
H  H37  1  0.71140000  0.65840000  0.21230000  1.0 0.112469194
H  H38  1  0.21140000  0.84160000  0.78770000  1.0 0.112469194
H  H39  1  0.21140000  0.65840000  0.28770000  1.0 0.112469194
H  H40  1  0.71140000  0.84160000  0.71230000  1.0 0.112469194
H  H41  1  0.89110000  0.89550000  0.23090000  1.0 0.1279036353
H  H42  1  0.39110000  0.60450000  0.76910000  1.0 0.1279036353
H  H43  1  0.39110000  0.89550000  0.26910000  1.0 0.1279036353
H  H44  1  0.89110000  0.60450000  0.73090000  1.0 0.1279036353
H  H45  1  0.90020000  0.99880000  0.28080000  1.0 0.112469194
H  H46  1  0.40020000  0.50120000  0.71920000  1.0 0.112469194
H  H47  1  0.40020000  0.99880000  0.21920000  1.0 0.112469194
H  H48  1  0.90020000  0.50120000  0.78080000  1.0 0.112469194
H  H49  1  0.79480000  0.00290000  0.33550000  1.0 0.112469194
H  H50  1  0.29480000  0.49710000  0.66450000  1.0 0.112469194
H  H51  1  0.29480000  0.00290000  0.16450000  1.0 0.112469194
H  H52  1  0.79480000  0.49710000  0.83550000  1.0 0.112469194
H  H53  1  0.68160000  0.90300000  0.34060000  1.0 0.122289798
H  H54  1  0.18160000  0.59700000  0.65940000  1.0 0.122289798
H  H55  1  0.18160000  0.90300000  0.15940000  1.0 0.122289798
H  H56  1  0.68160000  0.59700000  0.84060000  1.0 0.122289798
H  H57  1  0.35260000  0.00010000  0.42180000  1.0 0.1279036353
H  H58  1  0.85260000  0.49990000  0.57820000  1.0 0.1279036353
H  H59  1  0.85260000  0.00010000  0.07820000  1.0 0.1279036353
H  H60  1  0.35260000  0.49990000  0.92180000  1.0 0.1279036353
H  H61  1  0.33760000  0.14490000  0.41650000  1.0 0.1279036353
H  H62  1  0.83760000  0.35510000  0.58350000  1.0 0.1279036353
H  H63  1  0.83760000  0.14490000  0.08350000  1.0 0.1279036353
H  H64  1  0.33760000  0.35510000  0.91650000  1.0 0.1279036353
H  H65  1  0.50060000  0.14320000  0.31980000  1.0 0.1279036353
H  H66  1  0.00060000  0.35680000  0.68020000  1.0 0.1279036353
H  H67  1  0.00060000  0.14320000  0.18020000  1.0 0.1279036353
H  H68  1  0.50060000  0.35680000  0.81980000  1.0 0.1279036353
H  H69  1  0.50490000  0.99820000  0.32340000  1.0 0.1279036353
H  H70  1  0.00490000  0.50180000  0.67660000  1.0 0.1279036353
H  H71  1  0.00490000  0.99820000  0.17660000  1.0 0.1279036353
H  H72  1  0.50490000  0.50180000  0.82340000  1.0 0.1279036353
H  H73  1  0.30730000  0.39100000  0.35710000  1.0 0.138781166
H  H74  1  0.80730000  0.10900000  0.64290000  1.0 0.138781166
H  H75  1  0.80730000  0.39100000  0.14290000  1.0 0.138781166
H  H76  1  0.30730000  0.10900000  0.85710000  1.0 0.138781166
H  H77  1  0.56630000  0.38720000  0.38780000  1.0 0.1279036353
H  H78  1  0.06630000  0.11280000  0.61220000  1.0 0.1279036353
H  H79  1  0.06630000  0.38720000  0.11220000  1.0 0.1279036353
H  H80  1  0.56630000  0.11280000  0.88780000  1.0 0.1279036353
H  H81  1  0.18870000  0.46390000  0.85980000  1.0 0.122289798
H  H82  1  0.68870000  0.03610000  0.14020000  1.0 0.122289798
H  H83  1  0.68870000  0.46390000  0.64020000  1.0 0.122289798
H  H84  1  0.18870000  0.03610000  0.35980000  1.0 0.122289798
H  H85  1  0.91860000  0.34800000  0.99030000  1.0 0.122289798
H  H86  1  0.41860000  0.15200000  0.00970000  1.0 0.122289798
H  H87  1  0.41860000  0.34800000  0.50970000  1.0 0.122289798
H  H88  1  0.91860000  0.15200000  0.49030000  1.0 0.122289798
H  H89  1  0.93360000  0.46900000  0.89070000  1.0 0.122289798
H  H90  1  0.43360000  0.03100000  0.10930000  1.0 0.122289798
H  H91  1  0.43360000  0.46900000  0.60930000  1.0 0.122289798
H  H92  1  0.93360000  0.03100000  0.39070000  1.0 0.122289798
H  H93  1  0.81520000  0.36200000  0.04410000  1.0 0.112469194
H  H94  1  0.31520000  0.13800000  0.95590000  1.0 0.112469194
H  H95  1  0.31520000  0.36200000  0.45590000  1.0 0.112469194
H  H96  1  0.81520000  0.13800000  0.54410000  1.0 0.112469194
H  H97  1  0.62030000  0.13220000  0.03120000  1.0 0.122289798
H  H98  1  0.12030000  0.36780000  0.96880000  1.0 0.122289798
H  H99  1  0.12030000  0.13220000  0.46880000  1.0 0.122289798
H  H100  1  0.62030000  0.36780000  0.53120000  1.0 0.122289798
H  H101  1  0.60900000  0.01970000  0.98660000  1.0 0.112469194
H  H102  1  0.10900000  0.48030000  0.01340000  1.0 0.112469194
H  H103  1  0.10900000  0.01970000  0.51340000  1.0 0.112469194
H  H104  1  0.60900000  0.48030000  0.48660000  1.0 0.112469194
H  H105  1  0.71390000  0.00420000  0.93210000  1.0 0.112469194
H  H106  1  0.21390000  0.49580000  0.06790000  1.0 0.112469194
H  H107  1  0.21390000  0.00420000  0.56790000  1.0 0.112469194
H  H108  1  0.71390000  0.49580000  0.43210000  1.0 0.112469194
H  H109  1  0.82980000  0.09990000  0.92270000  1.0 0.1279036353
H  H110  1  0.32980000  0.40010000  0.07730000  1.0 0.1279036353
H  H111  1  0.32980000  0.09990000  0.57730000  1.0 0.1279036353
H  H112  1  0.82980000  0.40010000  0.42270000  1.0 0.1279036353
H  H113  1  0.89360000  0.33830000  0.76670000  1.0 0.122289798
H  H114  1  0.39360000  0.16170000  0.23330000  1.0 0.122289798
H  H115  1  0.39360000  0.33830000  0.73330000  1.0 0.122289798
H  H116  1  0.89360000  0.16170000  0.26670000  1.0 0.122289798
H  H117  1  0.78860000  0.34160000  0.71230000  1.0 0.112469194
H  H118  1  0.28860000  0.15840000  0.28770000  1.0 0.112469194
H  H119  1  0.28860000  0.34160000  0.78770000  1.0 0.112469194
H  H120  1  0.78860000  0.15840000  0.21230000  1.0 0.112469194
H  H121  1  0.60890000  0.10450000  0.73090000  1.0 0.1279036353
H  H122  1  0.10890000  0.39550000  0.26910000  1.0 0.1279036353
H  H123  1  0.10890000  0.10450000  0.76910000  1.0 0.1279036353
H  H124  1  0.60890000  0.39550000  0.23090000  1.0 0.1279036353
H  H125  1  0.59980000  0.00120000  0.78080000  1.0 0.112469194
H  H126  1  0.09980000  0.49880000  0.21920000  1.0 0.112469194
H  H127  1  0.09980000  0.00120000  0.71920000  1.0 0.112469194
H  H128  1  0.59980000  0.49880000  0.28080000  1.0 0.112469194
H  H129  1  0.70520000  0.99710000  0.83550000  1.0 0.112469194
H  H130  1  0.20520000  0.50290000  0.16450000  1.0 0.112469194
H  H131  1  0.20520000  0.99710000  0.66450000  1.0 0.112469194
H  H132  1  0.70520000  0.50290000  0.33550000  1.0 0.112469194
H  H133  1  0.81840000  0.09700000  0.84060000  1.0 0.122289798
H  H134  1  0.31840000  0.40300000  0.15940000  1.0 0.122289798
H  H135  1  0.31840000  0.09700000  0.65940000  1.0 0.122289798
H  H136  1  0.81840000  0.40300000  0.34060000  1.0 0.122289798
H  H137  1  0.14740000  0.99990000  0.92180000  1.0 0.1279036353
H  H138  1  0.64740000  0.50010000  0.07820000  1.0 0.1279036353
H  H139  1  0.64740000  0.99990000  0.57820000  1.0 0.1279036353
H  H140  1  0.14740000  0.50010000  0.42180000  1.0 0.1279036353
H  H141  1  0.16240000  0.85510000  0.91650000  1.0 0.1279036353
H  H142  1  0.66240000  0.64490000  0.08350000  1.0 0.1279036353
H  H143  1  0.66240000  0.85510000  0.58350000  1.0 0.1279036353
H  H144  1  0.16240000  0.64490000  0.41650000  1.0 0.1279036353
H  H145  1  0.99940000  0.85680000  0.81980000  1.0 0.1279036353
H  H146  1  0.49940000  0.64320000  0.18020000  1.0 0.1279036353
H  H147  1  0.49940000  0.85680000  0.68020000  1.0 0.1279036353
H  H148  1  0.99940000  0.64320000  0.31980000  1.0 0.1279036353
H  H149  1  0.99510000  0.00180000  0.82340000  1.0 0.1279036353
H  H150  1  0.49510000  0.49820000  0.17660000  1.0 0.1279036353
H  H151  1  0.49510000  0.00180000  0.67660000  1.0 0.1279036353
H  H152  1  0.99510000  0.49820000  0.32340000  1.0 0.1279036353
H  H153  1  0.19270000  0.60900000  0.85710000  1.0 0.138781166
H  H154  1  0.69270000  0.89100000  0.14290000  1.0 0.138781166
H  H155  1  0.69270000  0.60900000  0.64290000  1.0 0.138781166
H  H156  1  0.19270000  0.89100000  0.35710000  1.0 0.138781166
H  H157  1  0.93370000  0.61280000  0.88780000  1.0 0.1279036353
H  H158  1  0.43370000  0.88720000  0.11220000  1.0 0.1279036353
H  H159  1  0.43370000  0.61280000  0.61220000  1.0 0.1279036353
H  H160  1  0.93370000  0.88720000  0.38780000  1.0 0.1279036353
C  C1  1  0.55820000  0.76370000  0.43410000  1.0 0.5953041896
C  C2  1  0.05820000  0.73630000  0.56590000  1.0 0.5900095261
C  C3  1  0.05820000  0.76370000  0.06590000  1.0 0.5953041896
C  C4  1  0.55820000  0.73630000  0.93410000  1.0 0.5953041896
C  C5  1  0.62970000  0.76120000  0.46740000  1.0 -0.0604161682
C  C6  1  0.12970000  0.73880000  0.53260000  1.0 -0.0604161682
C  C7  1  0.12970000  0.76120000  0.03260000  1.0 -0.0604161682
C  C8  1  0.62970000  0.73880000  0.96740000  1.0 -0.0604161682
C  C9  1  0.36610000  0.50580000  0.36500000  1.0 0.0883931893
C  C10  1  0.86610000  0.99420000  0.63500000  1.0 0.0883931893
C  C11  1  0.86610000  0.50580000  0.13500000  1.0 0.0883931893
C  C12  1  0.36610000  0.99420000  0.86500000  1.0 0.0883931893
C  C13  1  0.62690000  0.69390000  0.49411000  1.0 -0.1212730199
C  C14  1  0.12690000  0.80610000  0.50589000  1.0 -0.1212730199
C  C15  1  0.12690000  0.69390000  0.00589000  1.0 -0.1212730199
C  C16  1  0.62690000  0.80610000  0.99411000  1.0 -0.1212730199
C  C17  1  0.51180000  0.50310000  0.38260000  1.0 0.0883931893
C  C18  1  0.01180000  0.99690000  0.61740000  1.0 0.0883931893
C  C19  1  0.01180000  0.50310000  0.11740000  1.0 0.0883931893
C  C20  1  0.51180000  0.99690000  0.88260000  1.0 0.0883931893
C  C21  1  0.68870000  0.68550000  0.52642000  1.0 -0.1471482865
C  C22  1  0.18870000  0.81450000  0.47358000  1.0 -0.1471482865
C  C23  1  0.18870000  0.68550000  0.97358000  1.0 -0.1471482865
C  C24  1  0.68870000  0.81450000  0.02642000  1.0 -0.1471482865
C  C25  1  0.75550000  0.74450000  0.53330000  1.0 -0.0707558958
C  C26  1  0.25550000  0.75550000  0.46670000  1.0 -0.0707558958
C  C27  1  0.25550000  0.74450000  0.96670000  1.0 -0.0707558958
C  C28  1  0.75550000  0.75550000  0.03330000  1.0 -0.0707558958
C  C29  1  0.83580000  0.87440000  0.50975000  1.0 -0.1385656642
C  C30  1  0.33580000  0.62560000  0.49025000  1.0 -0.1385656642
C  C31  1  0.33580000  0.87440000  0.99025000  1.0 -0.1385656642
C  C32  1  0.83580000  0.62560000  0.00975000  1.0 -0.1385656642
C  C33  1  0.84330000  0.94050000  0.48313000  1.0 -0.109603149
C  C34  1  0.34330000  0.55950000  0.51687000  1.0 -0.109603149
C  C35  1  0.34330000  0.94050000  0.01687000  1.0 -0.109603149
C  C36  1  0.84330000  0.55950000  0.98313000  1.0 -0.109603149
C  C37  1  0.78040000  0.94970000  0.45053000  1.0 -0.109603149
C  C38  1  0.28040000  0.55030000  0.54947000  1.0 -0.109603149
C  C39  1  0.28040000  0.94970000  0.04947000  1.0 -0.109603149
C  C40  1  0.78040000  0.55030000  0.95053000  1.0 -0.109603149
C  C41  1  0.71150000  0.89320000  0.44514000  1.0 -0.1289145962
C  C42  1  0.21150000  0.60680000  0.55486000  1.0 -0.1289145962
C  C43  1  0.21150000  0.89320000  0.05486000  1.0 -0.1289145962
C  C44  1  0.71150000  0.60680000  0.94514000  1.0 -0.1289145962
C  C45  1  0.69990000  0.82390000  0.47249000  1.0 0.0659942761
C  C46  1  0.19990000  0.67610000  0.52751000  1.0 0.0659942761
C  C47  1  0.19990000  0.82390000  0.02751000  1.0 0.0659942761
C  C48  1  0.69990000  0.67610000  0.97249000  1.0 0.0659942761
C  C49  1  0.76350000  0.81510000  0.50590000  1.0 0.0612204311
C  C50  1  0.26350000  0.68490000  0.49410000  1.0 0.0612204311
C  C51  1  0.26350000  0.81510000  0.99410000  1.0 0.0612204311
C  C52  1  0.76350000  0.68490000  0.00590000  1.0 0.0612204311
C  C53  1  0.81620000  0.73380000  0.57019000  1.0 0.5801355526
C  C54  1  0.31620000  0.76620000  0.42981000  1.0 0.5801355526
C  C55  1  0.31620000  0.73380000  0.92981000  1.0 0.5801355526
C  C56  1  0.81620000  0.76620000  0.07019000  1.0 0.5801355526
C  C57  1  0.57460000  0.77210000  0.32316000  1.0 0.5900095261
C  C58  1  0.07460000  0.72790000  0.67684000  1.0 0.5900095261
C  C59  1  0.07460000  0.77210000  0.17684000  1.0 0.5900095261
C  C60  1  0.57460000  0.72790000  0.82316000  1.0 0.5900095261
C  C61  1  0.64890000  0.77220000  0.29117000  1.0 -0.0531635262
C  C62  1  0.14890000  0.72780000  0.70883000  1.0 -0.0531635262
C  C63  1  0.14890000  0.77220000  0.20883000  1.0 -0.0531635262
C  C64  1  0.64890000  0.72780000  0.79117000  1.0 -0.0531635262
C  C65  1  0.64910000  0.70620000  0.26353000  1.0 -0.1289145962
C  C66  1  0.14910000  0.79380000  0.73647000  1.0 -0.1289145962
C  C67  1  0.14910000  0.70620000  0.23647000  1.0 -0.1289145962
C  C68  1  0.64910000  0.79380000  0.76353000  1.0 -0.1289145962
C  C69  1  0.71170000  0.70450000  0.23101000  1.0 -0.1385656642
C  C70  1  0.21170000  0.79550000  0.76899000  1.0 -0.1385656642
C  C71  1  0.21170000  0.70450000  0.26899000  1.0 -0.1385656642
C  C72  1  0.71170000  0.79550000  0.73101000  1.0 -0.1385656642
C  C73  1  0.77340000  0.76790000  0.22555000  1.0 -0.0604161682
C  C74  1  0.27340000  0.73210000  0.77445000  1.0 -0.0604161682
C  C75  1  0.27340000  0.76790000  0.27445000  1.0 -0.0604161682
C  C76  1  0.77340000  0.73210000  0.72555000  1.0 -0.0604161682
C  C77  1  0.84800000  0.89640000  0.25293000  1.0 -0.1471482865
C  C78  1  0.34800000  0.60360000  0.74707000  1.0 -0.1471482865
C  C79  1  0.34800000  0.89640000  0.24707000  1.0 -0.1471482865
C  C80  1  0.84800000  0.60360000  0.75293000  1.0 -0.1471482865
C  C81  1  0.85350000  0.95750000  0.28245000  1.0 -0.103719873
C  C82  1  0.35350000  0.54250000  0.71755000  1.0 -0.103719873
C  C83  1  0.35350000  0.95750000  0.21755000  1.0 -0.103719873
C  C84  1  0.85350000  0.54250000  0.78245000  1.0 -0.103719873
C  C85  1  0.79050000  0.95990000  0.31520000  1.0 -0.103719873
C  C86  1  0.29050000  0.54010000  0.68480000  1.0 -0.103719873
C  C87  1  0.29050000  0.95990000  0.18480000  1.0 -0.103719873
C  C88  1  0.79050000  0.54010000  0.81520000  1.0 -0.103719873
C  C89  1  0.72360000  0.90100000  0.31822000  1.0 -0.1385656642
C  C90  1  0.22360000  0.59900000  0.68178000  1.0 -0.1385656642
C  C91  1  0.22360000  0.90100000  0.18178000  1.0 -0.1385656642
C  C92  1  0.72360000  0.59900000  0.81822000  1.0 -0.1385656642
C  C93  1  0.71610000  0.83650000  0.28801000  1.0 0.0612204311
C  C94  1  0.21610000  0.66350000  0.71199000  1.0 0.0612204311
C  C95  1  0.21610000  0.83650000  0.21199000  1.0 0.0612204311
C  C96  1  0.71610000  0.66350000  0.78801000  1.0 0.0612204311
C  C97  1  0.77900000  0.83430000  0.25480000  1.0 0.0612204311
C  C98  1  0.27900000  0.66570000  0.74520000  1.0 0.0612204311
C  C99  1  0.27900000  0.83430000  0.24520000  1.0 0.0612204311
C  C100  1  0.77900000  0.66570000  0.75480000  1.0 0.0612204311
C  C101  1  0.83300000  0.76420000  0.18756000  1.0 0.5900095261
C  C102  1  0.33300000  0.73580000  0.81244000  1.0 0.5900095261
C  C103  1  0.33300000  0.76420000  0.31244000  1.0 0.5900095261
C  C104  1  0.83300000  0.73580000  0.68756000  1.0 0.5900095261
C  C105  1  0.38340000  0.02890000  0.40010000  1.0 0.1000542427
C  C106  1  0.88340000  0.47110000  0.59990000  1.0 0.1000542427
C  C107  1  0.88340000  0.02890000  0.09990000  1.0 0.1000542427
C  C108  1  0.38340000  0.47110000  0.90010000  1.0 0.1000542427
C  C109  1  0.37580000  0.11570000  0.39760000  1.0 -0.2976578526
C  C110  1  0.87580000  0.38430000  0.60240000  1.0 -0.2976578526
C  C111  1  0.87580000  0.11570000  0.10240000  1.0 -0.2976578526
C  C112  1  0.37580000  0.38430000  0.89760000  1.0 -0.2976578526
C  C113  1  0.42180000  0.15840000  0.36880000  1.0 0.1515529597
C  C114  1  0.92180000  0.34160000  0.63120000  1.0 0.1515529597
C  C115  1  0.92180000  0.15840000  0.13120000  1.0 0.1515529597
C  C116  1  0.42180000  0.34160000  0.86880000  1.0 0.1515529597
C  C117  1  0.46890000  0.11500000  0.34130000  1.0 -0.2817049141
C  C118  1  0.96890000  0.38500000  0.65870000  1.0 -0.2817049141
C  C119  1  0.96890000  0.11500000  0.15870000  1.0 -0.2817049141
C  C120  1  0.46890000  0.38500000  0.84130000  1.0 -0.2817049141
C  C121  1  0.47210000  0.02840000  0.34390000  1.0 0.0883931893
C  C122  1  0.97210000  0.47160000  0.65610000  1.0 0.0883931893
C  C123  1  0.97210000  0.02840000  0.15610000  1.0 0.0883931893
C  C124  1  0.47210000  0.47160000  0.84390000  1.0 0.0883931893
C  C125  1  0.43800000  0.37490000  0.37000000  1.0 0.1515529597
C  C126  1  0.93800000  0.12510000  0.63000000  1.0 0.1515529597
C  C127  1  0.93800000  0.37490000  0.13000000  1.0 0.1515529597
C  C128  1  0.43800000  0.12510000  0.87000000  1.0 0.1515529597
C  C129  1  0.36320000  0.41880000  0.36320000  1.0 -0.3070006683
C  C130  1  0.86320000  0.08120000  0.63680000  1.0 -0.3070006683
C  C131  1  0.86320000  0.41880000  0.13680000  1.0 -0.3070006683
C  C132  1  0.36320000  0.08120000  0.86320000  1.0 -0.3070006683
C  C133  1  0.51200000  0.41690000  0.38100000  1.0 -0.2859436927
C  C134  1  0.01200000  0.08310000  0.61900000  1.0 -0.2859436927
C  C135  1  0.01200000  0.41690000  0.11900000  1.0 -0.2859436927
C  C136  1  0.51200000  0.08310000  0.88100000  1.0 -0.2817049141
C  C137  1  0.94180000  0.23630000  0.93410000  1.0 0.5900095261
C  C138  1  0.44180000  0.26370000  0.06590000  1.0 0.5900095261
C  C139  1  0.44180000  0.23630000  0.56590000  1.0 0.5900095261
C  C140  1  0.94180000  0.26370000  0.43410000  1.0 0.5900095261
C  C141  1  0.87030000  0.23880000  0.96740000  1.0 -0.0604161682
C  C142  1  0.37030000  0.26120000  0.03260000  1.0 -0.0604161682
C  C143  1  0.37030000  0.23880000  0.53260000  1.0 -0.0604161682
C  C144  1  0.87030000  0.26120000  0.46740000  1.0 -0.0604161682
C  C145  1  0.13390000  0.49420000  0.86500000  1.0 0.0883931893
C  C146  1  0.63390000  0.00580000  0.13500000  1.0 0.0883931893
C  C147  1  0.63390000  0.49420000  0.63500000  1.0 0.0883931893
C  C148  1  0.13390000  0.00580000  0.36500000  1.0 0.0883931893
C  C149  1  0.87310000  0.30610000  0.99411000  1.0 -0.1212730199
C  C150  1  0.37310000  0.19390000  0.00589000  1.0 -0.1212730199
C  C151  1  0.37310000  0.30610000  0.50589000  1.0 -0.1212730199
C  C152  1  0.87310000  0.19390000  0.49411000  1.0 -0.1212730199
C  C153  1  0.98820000  0.49690000  0.88260000  1.0 0.0883931893
C  C154  1  0.48820000  0.00310000  0.11740000  1.0 0.0883931893
C  C155  1  0.48820000  0.49690000  0.61740000  1.0 0.0883931893
C  C156  1  0.98820000  0.00310000  0.38260000  1.0 0.0883931893
C  C157  1  0.81130000  0.31450000  0.02642000  1.0 -0.1471482865
C  C158  1  0.31130000  0.18550000  0.97358000  1.0 -0.1471482865
C  C159  1  0.31130000  0.31450000  0.47358000  1.0 -0.1471482865
C  C160  1  0.81130000  0.18550000  0.52642000  1.0 -0.1471482865
C  C161  1  0.74450000  0.25550000  0.03330000  1.0 -0.0707558958
C  C162  1  0.24450000  0.24450000  0.96670000  1.0 -0.0707558958
C  C163  1  0.24450000  0.25550000  0.46670000  1.0 -0.0707558958
C  C164  1  0.74450000  0.24450000  0.53330000  1.0 -0.0707558958
C  C165  1  0.66420000  0.12560000  0.00975000  1.0 -0.1385656642
C  C166  1  0.16420000  0.37440000  0.99025000  1.0 -0.1385656642
C  C167  1  0.16420000  0.12560000  0.49025000  1.0 -0.1385656642
C  C168  1  0.66420000  0.37440000  0.50975000  1.0 -0.1385656642
C  C169  1  0.65670000  0.05950000  0.98313000  1.0 -0.109603149
C  C170  1  0.15670000  0.44050000  0.01687000  1.0 -0.109603149
C  C171  1  0.15670000  0.05950000  0.51687000  1.0 -0.109603149
C  C172  1  0.65670000  0.44050000  0.48313000  1.0 -0.109603149
C  C173  1  0.71960000  0.05030000  0.95053000  1.0 -0.109603149
C  C174  1  0.21960000  0.44970000  0.04947000  1.0 -0.109603149
C  C175  1  0.21960000  0.05030000  0.54947000  1.0 -0.109603149
C  C176  1  0.71960000  0.44970000  0.45053000  1.0 -0.109603149
C  C177  1  0.78850000  0.10680000  0.94514000  1.0 -0.1289145962
C  C178  1  0.28850000  0.39320000  0.05486000  1.0 -0.1289145962
C  C179  1  0.28850000  0.10680000  0.55486000  1.0 -0.1289145962
C  C180  1  0.78850000  0.39320000  0.44514000  1.0 -0.1289145962
C  C181  1  0.80010000  0.17610000  0.97249000  1.0 0.0659942761
C  C182  1  0.30010000  0.32390000  0.02751000  1.0 0.0659942761
C  C183  1  0.30010000  0.17610000  0.52751000  1.0 0.0659942761
C  C184  1  0.80010000  0.32390000  0.47249000  1.0 0.0659942761
C  C185  1  0.73650000  0.18490000  0.00590000  1.0 0.0612204311
C  C186  1  0.23650000  0.31510000  0.99410000  1.0 0.0612204311
C  C187  1  0.23650000  0.18490000  0.49410000  1.0 0.0612204311
C  C188  1  0.73650000  0.31510000  0.50590000  1.0 0.0612204311
C  C189  1  0.68380000  0.26620000  0.07019000  1.0 0.5801355526
C  C190  1  0.18380000  0.23380000  0.92981000  1.0 0.5801355526
C  C191  1  0.18380000  0.26620000  0.42981000  1.0 0.5801355526
C  C192  1  0.68380000  0.23380000  0.57019000  1.0 0.5801355526
C  C193  1  0.92540000  0.22790000  0.82316000  1.0 0.5900095261
C  C194  1  0.42540000  0.27210000  0.17684000  1.0 0.5900095261
C  C195  1  0.42540000  0.22790000  0.67684000  1.0 0.5900095261
C  C196  1  0.92540000  0.27210000  0.32316000  1.0 0.5900095261
C  C197  1  0.85110000  0.22780000  0.79117000  1.0 -0.0531635262
C  C198  1  0.35110000  0.27220000  0.20883000  1.0 -0.0531635262
C  C199  1  0.35110000  0.22780000  0.70883000  1.0 -0.0531635262
C  C200  1  0.85110000  0.27220000  0.29117000  1.0 -0.0531635262
C  C201  1  0.85090000  0.29380000  0.76353000  1.0 -0.1289145962
C  C202  1  0.35090000  0.20620000  0.23647000  1.0 -0.1289145962
C  C203  1  0.35090000  0.29380000  0.73647000  1.0 -0.1289145962
C  C204  1  0.85090000  0.20620000  0.26353000  1.0 -0.1289145962
C  C205  1  0.78830000  0.29550000  0.73101000  1.0 -0.1385656642
C  C206  1  0.28830000  0.20450000  0.26899000  1.0 -0.1385656642
C  C207  1  0.28830000  0.29550000  0.76899000  1.0 -0.1385656642
C  C208  1  0.78830000  0.20450000  0.23101000  1.0 -0.1385656642
C  C209  1  0.72660000  0.23210000  0.72555000  1.0 -0.0604161682
C  C210  1  0.22660000  0.26790000  0.27445000  1.0 -0.0604161682
C  C211  1  0.22660000  0.23210000  0.77445000  1.0 -0.0604161682
C  C212  1  0.72660000  0.26790000  0.22555000  1.0 -0.0604161682
C  C213  1  0.65200000  0.10360000  0.75293000  1.0 -0.1471482865
C  C214  1  0.15200000  0.39640000  0.24707000  1.0 -0.1471482865
C  C215  1  0.15200000  0.10360000  0.74707000  1.0 -0.1471482865
C  C216  1  0.65200000  0.39640000  0.25293000  1.0 -0.1471482865
C  C217  1  0.64650000  0.04250000  0.78245000  1.0 -0.103719873
C  C218  1  0.14650000  0.45750000  0.21755000  1.0 -0.103719873
C  C219  1  0.14650000  0.04250000  0.71755000  1.0 -0.103719873
C  C220  1  0.64650000  0.45750000  0.28245000  1.0 -0.103719873
C  C221  1  0.70950000  0.04010000  0.81520000  1.0 -0.103719873
C  C222  1  0.20950000  0.45990000  0.18480000  1.0 -0.103719873
C  C223  1  0.20950000  0.04010000  0.68480000  1.0 -0.103719873
C  C224  1  0.70950000  0.45990000  0.31520000  1.0 -0.103719873
C  C225  1  0.77640000  0.09900000  0.81822000  1.0 -0.1385656642
C  C226  1  0.27640000  0.40100000  0.18178000  1.0 -0.1385656642
C  C227  1  0.27640000  0.09900000  0.68178000  1.0 -0.1385656642
C  C228  1  0.77640000  0.40100000  0.31822000  1.0 -0.1385656642
C  C229  1  0.78390000  0.16350000  0.78801000  1.0 0.0612204311
C  C230  1  0.28390000  0.33650000  0.21199000  1.0 0.0612204311
C  C231  1  0.28390000  0.16350000  0.71199000  1.0 0.0612204311
C  C232  1  0.78390000  0.33650000  0.28801000  1.0 0.0612204311
C  C233  1  0.72100000  0.16570000  0.75480000  1.0 0.0612204311
C  C234  1  0.22100000  0.33430000  0.24520000  1.0 0.0612204311
C  C235  1  0.22100000  0.16570000  0.74520000  1.0 0.0612204311
C  C236  1  0.72100000  0.33430000  0.25480000  1.0 0.0612204311
C  C237  1  0.66700000  0.23580000  0.68756000  1.0 0.5900095261
C  C238  1  0.16700000  0.26420000  0.31244000  1.0 0.5900095261
C  C239  1  0.16700000  0.23580000  0.81244000  1.0 0.5900095261
C  C240  1  0.66700000  0.26420000  0.18756000  1.0 0.5900095261
C  C241  1  0.11660000  0.97110000  0.90010000  1.0 0.1000542427
C  C242  1  0.61660000  0.52890000  0.09990000  1.0 0.1000542427
C  C243  1  0.61660000  0.97110000  0.59990000  1.0 0.1000542427
C  C244  1  0.11660000  0.52890000  0.40010000  1.0 0.1000542427
C  C245  1  0.12420000  0.88430000  0.89760000  1.0 -0.2976578526
C  C246  1  0.62420000  0.61570000  0.10240000  1.0 -0.2976578526
C  C247  1  0.62420000  0.88430000  0.60240000  1.0 -0.2976578526
C  C248  1  0.12420000  0.61570000  0.39760000  1.0 -0.2976578526
C  C249  1  0.07820000  0.84160000  0.86880000  1.0 0.1515529597
C  C250  1  0.57820000  0.65840000  0.13120000  1.0 0.1515529597
C  C251  1  0.57820000  0.84160000  0.63120000  1.0 0.1515529597
C  C252  1  0.07820000  0.65840000  0.36880000  1.0 0.1515529597
C  C253  1  0.03110000  0.88500000  0.84130000  1.0 -0.2817049141
C  C254  1  0.53110000  0.61500000  0.15870000  1.0 -0.2817049141
C  C255  1  0.53110000  0.88500000  0.65870000  1.0 -0.2817049141
C  C256  1  0.03110000  0.61500000  0.34130000  1.0 -0.2817049141
C  C257  1  0.02790000  0.97160000  0.84390000  1.0 0.0883931893
C  C258  1  0.52790000  0.52840000  0.15610000  1.0 0.0883931893
C  C259  1  0.52790000  0.97160000  0.65610000  1.0 0.0883931893
C  C260  1  0.02790000  0.52840000  0.34390000  1.0 0.0883931893
C  C261  1  0.06200000  0.62510000  0.87000000  1.0 0.1515529597
C  C262  1  0.56200000  0.87490000  0.13000000  1.0 0.1515529597
C  C263  1  0.56200000  0.62510000  0.63000000  1.0 0.1515529597
C  C264  1  0.06200000  0.87490000  0.37000000  1.0 0.1515529597
C  C265  1  0.13680000  0.58120000  0.86320000  1.0 -0.3070006683
C  C266  1  0.63680000  0.91880000  0.13680000  1.0 -0.3070006683
C  C267  1  0.63680000  0.58120000  0.63680000  1.0 -0.3070006683
C  C268  1  0.13680000  0.91880000  0.36320000  1.0 -0.3070006683
C  C269  1  0.98800000  0.58310000  0.88100000  1.0 -0.2859436927
C  C270  1  0.48800000  0.91690000  0.11900000  1.0 -0.2859436927
C  C271  1  0.48800000  0.58310000  0.61900000  1.0 -0.2859436927
C  C272  1  0.98800000  0.91690000  0.38100000  1.0 -0.2859436927
N  N1  1  0.44040000  0.54830000  0.37364000  1.0 -0.1929118369
N  N2  1  0.94040000  0.95170000  0.62636000  1.0 -0.1929118369
N  N3  1  0.94040000  0.54830000  0.12636000  1.0 -0.1929118369
N  N4  1  0.44040000  0.95170000  0.87364000  1.0 -0.1929118369
N  N5  1  0.43150000  0.98620000  0.37370000  1.0 -0.1929118369
N  N6  1  0.93150000  0.51380000  0.62630000  1.0 -0.1929118369
N  N7  1  0.93150000  0.98620000  0.12630000  1.0 -0.1929118369
N  N8  1  0.43150000  0.51380000  0.87370000  1.0 -0.1929118369
N  N9  1  0.39420000  0.24570000  0.37470000  1.0 0.0198806419
N  N10  1  0.89420000  0.25430000  0.62530000  1.0 0.0198806419
N  N11  1  0.89420000  0.24570000  0.12530000  1.0 0.0198806419
N  N12  1  0.39420000  0.25430000  0.87470000  1.0 0.0198806419
N  N13  1  0.46260000  0.28630000  0.36740000  1.0 0.037744596
N  N14  1  0.96260000  0.21370000  0.63260000  1.0 0.037744596
N  N15  1  0.96260000  0.28630000  0.13260000  1.0 0.037744596
N  N16  1  0.46260000  0.21370000  0.86740000  1.0 0.037744596
N  N17  1  0.44710000  0.24590000  0.36170000  1.0 0.1000542427
N  N18  1  0.94710000  0.25410000  0.63830000  1.0 0.1000542427
N  N19  1  0.94710000  0.24590000  0.13830000  1.0 0.1000542427
N  N20  1  0.44710000  0.25410000  0.86170000  1.0 0.1000542427
N  N21  1  0.40210000  0.28940000  0.37090000  1.0 0.0883931893
N  N22  1  0.90210000  0.21060000  0.62910000  1.0 0.0883931893
N  N23  1  0.90210000  0.28940000  0.12910000  1.0 0.0883931893
N  N24  1  0.40210000  0.21060000  0.87090000  1.0 0.0883931893
N  N25  1  0.05960000  0.45170000  0.87364000  1.0 -0.1929118369
N  N26  1  0.55960000  0.04830000  0.12636000  1.0 -0.1929118369
N  N27  1  0.55960000  0.45170000  0.62636000  1.0 -0.1929118369
N  N28  1  0.05960000  0.04830000  0.37364000  1.0 -0.1929118369
N  N29  1  0.06850000  0.01380000  0.87370000  1.0 -0.1929118369
N  N30  1  0.56850000  0.48620000  0.12630000  1.0 -0.1929118369
N  N31  1  0.56850000  0.01380000  0.62630000  1.0 -0.1929118369
N  N32  1  0.06850000  0.48620000  0.37370000  1.0 -0.1929118369
N  N33  1  0.10580000  0.75430000  0.87470000  1.0 0.0198806419
N  N34  1  0.60580000  0.74570000  0.12530000  1.0 0.0198806419
N  N35  1  0.60580000  0.75430000  0.62530000  1.0 0.0198806419
N  N36  1  0.10580000  0.74570000  0.37470000  1.0 0.0198806419
N  N37  1  0.03740000  0.71370000  0.86740000  1.0 0.037744596
N  N38  1  0.53740000  0.78630000  0.13260000  1.0 0.037744596
N  N39  1  0.53740000  0.71370000  0.63260000  1.0 0.037744596
N  N40  1  0.03740000  0.78630000  0.36740000  1.0 0.037744596
N  N41  1  0.05290000  0.75410000  0.86170000  1.0 0.1000542427
N  N42  1  0.55290000  0.74590000  0.13830000  1.0 0.0883931893
N  N43  1  0.55290000  0.75410000  0.63830000  1.0 0.1000542427
N  N44  1  0.05290000  0.74590000  0.36170000  1.0 0.0883931893
N  N45  1  0.09790000  0.71060000  0.87090000  1.0 0.1000542427
N  N46  1  0.59790000  0.78940000  0.12910000  1.0 0.1000542427
N  N47  1  0.59790000  0.71060000  0.62910000  1.0 0.1000542427
N  N48  1  0.09790000  0.78940000  0.37090000  1.0 0.1000542427
O  O1  1  0.53780000  0.83350000  0.41815000  1.0 -0.5305745449
O  O2  1  0.03780000  0.66650000  0.58185000  1.0 -0.5305745449
O  O3  1  0.03780000  0.83350000  0.08185000  1.0 -0.5305745449
O  O4  1  0.53780000  0.66650000  0.91815000  1.0 -0.5305745449
O  O5  1  0.52080000  0.69550000  0.42510000  1.0 -0.5414845288
O  O6  1  0.02080000  0.80450000  0.57490000  1.0 -0.5414845288
O  O7  1  0.02080000  0.69550000  0.07490000  1.0 -0.5414845288
O  O8  1  0.52080000  0.80450000  0.92510000  1.0 -0.5414845288
O  O9  1  0.84510000  0.66138000  0.57757000  1.0 -0.5305745449
O  O10  1  0.34510000  0.83862000  0.42243000  1.0 -0.5305745449
O  O11  1  0.34510000  0.66138000  0.92243000  1.0 -0.5305745449
O  O12  1  0.84510000  0.83862000  0.07757000  1.0 -0.5305745449
O  O13  1  0.83200000  0.79800000  0.59180000  1.0 -0.5524742618
O  O14  1  0.33200000  0.70200000  0.40820000  1.0 -0.5552819982
O  O15  1  0.33200000  0.79800000  0.90820000  1.0 -0.5524742618
O  O16  1  0.83200000  0.70200000  0.09180000  1.0 -0.5524742618
O  O17  1  0.55790000  0.70300000  0.34049000  1.0 -0.5305745449
O  O18  1  0.05790000  0.79700000  0.65951000  1.0 -0.5305745449
O  O19  1  0.05790000  0.70300000  0.15951000  1.0 -0.5305745449
O  O20  1  0.55790000  0.79700000  0.84049000  1.0 -0.5305745449
O  O21  1  0.53280000  0.83990000  0.33030000  1.0 -0.5414845288
O  O22  1  0.03280000  0.66010000  0.66970000  1.0 -0.5414845288
O  O23  1  0.03280000  0.83990000  0.16970000  1.0 -0.5414845288
O  O24  1  0.53280000  0.66010000  0.83030000  1.0 -0.5414845288
O  O25  1  0.84170000  0.83050000  0.16698000  1.0 -0.5524742618
O  O26  1  0.34170000  0.66950000  0.83302000  1.0 -0.5524742618
O  O27  1  0.34170000  0.83050000  0.33302000  1.0 -0.5524742618
O  O28  1  0.84170000  0.66950000  0.66698000  1.0 -0.5524742618
O  O29  1  0.86930000  0.69430000  0.17898000  1.0 -0.5305745449
O  O30  1  0.36930000  0.80570000  0.82102000  1.0 -0.5305745449
O  O31  1  0.36930000  0.69430000  0.32102000  1.0 -0.5305745449
O  O32  1  0.86930000  0.80570000  0.67898000  1.0 -0.5305745449
O  O33  1  0.96220000  0.16650000  0.91815000  1.0 -0.5305745449
O  O34  1  0.46220000  0.33350000  0.08185000  1.0 -0.5305745449
O  O35  1  0.46220000  0.16650000  0.58185000  1.0 -0.5305745449
O  O36  1  0.96220000  0.33350000  0.41815000  1.0 -0.5305745449
O  O37  1  0.97920000  0.30450000  0.92510000  1.0 -0.5414845288
O  O38  1  0.47920000  0.19550000  0.07490000  1.0 -0.5414845288
O  O39  1  0.47920000  0.30450000  0.57490000  1.0 -0.5414845288
O  O40  1  0.97920000  0.19550000  0.42510000  1.0 -0.5414845288
O  O41  1  0.65490000  0.33862000  0.07757000  1.0 -0.5305745449
O  O42  1  0.15490000  0.16138000  0.92243000  1.0 -0.5305745449
O  O43  1  0.15490000  0.33862000  0.42243000  1.0 -0.5305745449
O  O44  1  0.65490000  0.16138000  0.57757000  1.0 -0.5305745449
O  O45  1  0.66800000  0.20200000  0.09180000  1.0 -0.5524742618
O  O46  1  0.16800000  0.29800000  0.90820000  1.0 -0.5524742618
O  O47  1  0.16800000  0.20200000  0.40820000  1.0 -0.5524742618
O  O48  1  0.66800000  0.29800000  0.59180000  1.0 -0.5524742618
O  O49  1  0.94210000  0.29700000  0.84049000  1.0 -0.5305745449
O  O50  1  0.44210000  0.20300000  0.15951000  1.0 -0.5305745449
O  O51  1  0.44210000  0.29700000  0.65951000  1.0 -0.5305745449
O  O52  1  0.94210000  0.20300000  0.34049000  1.0 -0.5305745449
O  O53  1  0.96720000  0.16010000  0.83030000  1.0 -0.5414845288
O  O54  1  0.46720000  0.33990000  0.16970000  1.0 -0.5414845288
O  O55  1  0.46720000  0.16010000  0.66970000  1.0 -0.5414845288
O  O56  1  0.96720000  0.33990000  0.33030000  1.0 -0.5414845288
O  O57  1  0.65830000  0.16950000  0.66698000  1.0 -0.5524742618
O  O58  1  0.15830000  0.33050000  0.33302000  1.0 -0.5524742618
O  O59  1  0.15830000  0.16950000  0.83302000  1.0 -0.5524742618
O  O60  1  0.65830000  0.33050000  0.16698000  1.0 -0.5524742618
O  O61  1  0.63070000  0.30570000  0.67898000  1.0 -0.5305745449
O  O62  1  0.13070000  0.19430000  0.32102000  1.0 -0.5305745449
O  O63  1  0.13070000  0.30570000  0.82102000  1.0 -0.5305745449
O  O64  1  0.63070000  0.19430000  0.17898000  1.0 -0.5305745449
