# DDEC6 charges by PACMAN v1.1 (https://github.com/mtap-research/PACMAN-charge/)
data_OXAMEG_FSR_pacman
_symmetry_space_group_name_H-M   'P 1'
_cell_length_a   10.70290000
_cell_length_b   28.17600000
_cell_length_c   34.01400000
_cell_angle_alpha   90.00000000
_cell_angle_beta   90.00000000
_cell_angle_gamma   90.00000000
_symmetry_Int_Tables_number   1
_chemical_formula_structural   Dy4H75C77N4O35
_chemical_formula_sum   'Dy16 H300 C308 N16 O140'
_cell_volume   10257.42886235
_cell_formula_units_Z   4
loop_
 _symmetry_equiv_pos_site_id
 _symmetry_equiv_pos_as_xyz
  1  'x, y, z'
loop_
 _atom_site_type_symbol
 _atom_site_label
 _atom_site_symmetry_multiplicity
 _atom_site_fract_x
 _atom_site_fract_y
 _atom_site_fract_z
 _atom_site_occupancy
 _atom_site_charge
Dy  Dy1  1  0.03356000  0.19094000  0.75000000  1.0 2.0116286049
Dy  Dy2  1  0.96644000  0.80906000  0.25000000  1.0 2.0116286049
Dy  Dy3  1  0.03356000  0.30906000  0.25000000  1.0 2.0116286049
Dy  Dy4  1  0.96644000  0.69094000  0.75000000  1.0 2.0116286049
Dy  Dy5  1  0.85371000  0.32561000  0.75000000  1.0 2.1548180352
Dy  Dy6  1  0.14629000  0.67439000  0.25000000  1.0 2.1548180352
Dy  Dy7  1  0.85371000  0.17439000  0.25000000  1.0 2.1548180352
Dy  Dy8  1  0.14629000  0.82561000  0.75000000  1.0 2.1548180352
Dy  Dy9  1  0.17890000  0.01253000  0.75000000  1.0 0.9715000312
Dy  Dy10  1  0.82110000  0.98747000  0.25000000  1.0 0.957838433
Dy  Dy11  1  0.17890000  0.48747000  0.25000000  1.0 0.957838433
Dy  Dy12  1  0.82110000  0.51253000  0.75000000  1.0 0.957838433
Dy  Dy13  1  0.88610000  0.50574000  0.75000000  1.0 0.9715000312
Dy  Dy14  1  0.11390000  0.49426000  0.25000000  1.0 0.9796214471
Dy  Dy15  1  0.88610000  0.99426000  0.25000000  1.0 0.9715000312
Dy  Dy16  1  0.11390000  0.00574000  0.75000000  1.0 0.9715000312
H  H1  1  0.34070000  0.30450000  0.51820000  1.0 0.1018104052
H  H2  1  0.65930000  0.69550000  0.01820000  1.0 0.1018104052
H  H3  1  0.34070000  0.19550000  0.48180000  1.0 0.1018104052
H  H4  1  0.65930000  0.80450000  0.98180000  1.0 0.1018104052
H  H5  1  0.65930000  0.69550000  0.48180000  1.0 0.1018104052
H  H6  1  0.34070000  0.30450000  0.98180000  1.0 0.1018104052
H  H7  1  0.65930000  0.80450000  0.51820000  1.0 0.1018104052
H  H8  1  0.34070000  0.19550000  0.01820000  1.0 0.1018104052
H  H9  1  0.46120000  0.31180000  0.54570000  1.0 0.1018104052
H  H10  1  0.53880000  0.68820000  0.04570000  1.0 0.1018104052
H  H11  1  0.46120000  0.18820000  0.45430000  1.0 0.1018104052
H  H12  1  0.53880000  0.81180000  0.95430000  1.0 0.1018104052
H  H13  1  0.53880000  0.68820000  0.45430000  1.0 0.1018104052
H  H14  1  0.46120000  0.31180000  0.95430000  1.0 0.1018104052
H  H15  1  0.53880000  0.81180000  0.54570000  1.0 0.1018104052
H  H16  1  0.46120000  0.18820000  0.04570000  1.0 0.1018104052
H  H17  1  0.31740000  0.41300000  0.49700000  1.0 0.1018104052
H  H18  1  0.68260000  0.58700000  0.99700000  1.0 0.1018104052
H  H19  1  0.31740000  0.08700000  0.50300000  1.0 0.1018104052
H  H20  1  0.68260000  0.91300000  0.00300000  1.0 0.1018104052
H  H21  1  0.68260000  0.58700000  0.50300000  1.0 0.1018104052
H  H22  1  0.31740000  0.41300000  0.00300000  1.0 0.1018104052
H  H23  1  0.68260000  0.91300000  0.49700000  1.0 0.1018104052
H  H24  1  0.31740000  0.08700000  0.99700000  1.0 0.1018104052
H  H25  1  0.40000000  0.41070000  0.45760000  1.0 0.1018104052
H  H26  1  0.60000000  0.58930000  0.95760000  1.0 0.1018104052
H  H27  1  0.40000000  0.08930000  0.54240000  1.0 0.1018104052
H  H28  1  0.60000000  0.91070000  0.04240000  1.0 0.1018104052
H  H29  1  0.60000000  0.58930000  0.54240000  1.0 0.1018104052
H  H30  1  0.40000000  0.41070000  0.04240000  1.0 0.1018104052
H  H31  1  0.60000000  0.91070000  0.45760000  1.0 0.1018104052
H  H32  1  0.40000000  0.08930000  0.95760000  1.0 0.1018104052
H  H33  1  0.57430000  0.30390000  0.48370000  1.0 0.1018104052
H  H34  1  0.42570000  0.69610000  0.98370000  1.0 0.1018104052
H  H35  1  0.57430000  0.19610000  0.51630000  1.0 0.1018104052
H  H36  1  0.42570000  0.80390000  0.01630000  1.0 0.1018104052
H  H37  1  0.42570000  0.69610000  0.51630000  1.0 0.1018104052
H  H38  1  0.57430000  0.30390000  0.01630000  1.0 0.1018104052
H  H39  1  0.42570000  0.80390000  0.48370000  1.0 0.1018104052
H  H40  1  0.57430000  0.19610000  0.98370000  1.0 0.1018104052
H  H41  1  0.44960000  0.30500000  0.45740000  1.0 0.1018104052
H  H42  1  0.55040000  0.69500000  0.95740000  1.0 0.1018104052
H  H43  1  0.44960000  0.19500000  0.54260000  1.0 0.1018104052
H  H44  1  0.55040000  0.80500000  0.04260000  1.0 0.1018104052
H  H45  1  0.55040000  0.69500000  0.54260000  1.0 0.1018104052
H  H46  1  0.44960000  0.30500000  0.04260000  1.0 0.1018104052
H  H47  1  0.55040000  0.80500000  0.45740000  1.0 0.1018104052
H  H48  1  0.44960000  0.19500000  0.95740000  1.0 0.1018104052
H  H49  1  0.58500000  0.41460000  0.49710000  1.0 0.108049355
H  H50  1  0.41500000  0.58540000  0.99710000  1.0 0.108049355
H  H51  1  0.58500000  0.08540000  0.50290000  1.0 0.108049355
H  H52  1  0.41500000  0.91460000  0.00290000  1.0 0.108049355
H  H53  1  0.41500000  0.58540000  0.50290000  1.0 0.108049355
H  H54  1  0.58500000  0.41460000  0.00290000  1.0 0.108049355
H  H55  1  0.41500000  0.91460000  0.49710000  1.0 0.108049355
H  H56  1  0.58500000  0.08540000  0.99710000  1.0 0.108049355
H  H57  1  0.50380000  0.41510000  0.53680000  1.0 0.1018104052
H  H58  1  0.49620000  0.58490000  0.03680000  1.0 0.1018104052
H  H59  1  0.50380000  0.08490000  0.46320000  1.0 0.1018104052
H  H60  1  0.49620000  0.91510000  0.96320000  1.0 0.1018104052
H  H61  1  0.49620000  0.58490000  0.46320000  1.0 0.1018104052
H  H62  1  0.50380000  0.41510000  0.96320000  1.0 0.1018104052
H  H63  1  0.49620000  0.91510000  0.53680000  1.0 0.1018104052
H  H64  1  0.50380000  0.08490000  0.03680000  1.0 0.1018104052
H  H65  1  0.33930000  0.26950000  0.58360000  1.0 0.1206949356
H  H66  1  0.66070000  0.73050000  0.08360000  1.0 0.1206949356
H  H67  1  0.33930000  0.23050000  0.41640000  1.0 0.1206949356
H  H68  1  0.66070000  0.76950000  0.91640000  1.0 0.1206949356
H  H69  1  0.66070000  0.73050000  0.41640000  1.0 0.1206949356
H  H70  1  0.33930000  0.26950000  0.91640000  1.0 0.1206949356
H  H71  1  0.66070000  0.76950000  0.58360000  1.0 0.1206949356
H  H72  1  0.33930000  0.23050000  0.08360000  1.0 0.1206949356
H  H73  1  0.25160000  0.24070000  0.64200000  1.0 0.1206949356
H  H74  1  0.74840000  0.75930000  0.14200000  1.0 0.1206949356
H  H75  1  0.25160000  0.25930000  0.35800000  1.0 0.1206949356
H  H76  1  0.74840000  0.74070000  0.85800000  1.0 0.1206949356
H  H77  1  0.74840000  0.75930000  0.35800000  1.0 0.1206949356
H  H78  1  0.25160000  0.24070000  0.85800000  1.0 0.1206949356
H  H79  1  0.74840000  0.74070000  0.64200000  1.0 0.1206949356
H  H80  1  0.25160000  0.25930000  0.14200000  1.0 0.1206949356
H  H81  1  0.09170000  0.36880000  0.66170000  1.0 0.1287221188
H  H82  1  0.90830000  0.63120000  0.16170000  1.0 0.1287221188
H  H83  1  0.09170000  0.13120000  0.33830000  1.0 0.1287221188
H  H84  1  0.90830000  0.86880000  0.83830000  1.0 0.1287221188
H  H85  1  0.90830000  0.63120000  0.33830000  1.0 0.1287221188
H  H86  1  0.09170000  0.36880000  0.83830000  1.0 0.1287221188
H  H87  1  0.90830000  0.86880000  0.66170000  1.0 0.1287221188
H  H88  1  0.09170000  0.13120000  0.16170000  1.0 0.1287221188
H  H89  1  0.18880000  0.39850000  0.60560000  1.0 0.1394765057
H  H90  1  0.81120000  0.60150000  0.10560000  1.0 0.1394765057
H  H91  1  0.18880000  0.10150000  0.39440000  1.0 0.1394765057
H  H92  1  0.81120000  0.89850000  0.89440000  1.0 0.1394765057
H  H93  1  0.81120000  0.60150000  0.39440000  1.0 0.1394765057
H  H94  1  0.18880000  0.39850000  0.89440000  1.0 0.1394765057
H  H95  1  0.81120000  0.89850000  0.60560000  1.0 0.1394765057
H  H96  1  0.18880000  0.10150000  0.10560000  1.0 0.1394765057
H  H97  1  0.14790000  0.30840000  0.41550000  1.0 0.1394765057
H  H98  1  0.85210000  0.69160000  0.91550000  1.0 0.1394765057
H  H99  1  0.14790000  0.19160000  0.58450000  1.0 0.1394765057
H  H100  1  0.85210000  0.80840000  0.08450000  1.0 0.1394765057
H  H101  1  0.85210000  0.69160000  0.58450000  1.0 0.1394765057
H  H102  1  0.14790000  0.30840000  0.08450000  1.0 0.1394765057
H  H103  1  0.85210000  0.80840000  0.41550000  1.0 0.1394765057
H  H104  1  0.14790000  0.19160000  0.91550000  1.0 0.1394765057
H  H105  1  0.06190000  0.32470000  0.35440000  1.0 0.1206949356
H  H106  1  0.93810000  0.67530000  0.85440000  1.0 0.1206949356
H  H107  1  0.06190000  0.17530000  0.64560000  1.0 0.1206949356
H  H108  1  0.93810000  0.82470000  0.14560000  1.0 0.1206949356
H  H109  1  0.93810000  0.67530000  0.64560000  1.0 0.1206949356
H  H110  1  0.06190000  0.32470000  0.14560000  1.0 0.1206949356
H  H111  1  0.93810000  0.82470000  0.35440000  1.0 0.1206949356
H  H112  1  0.06190000  0.17530000  0.85440000  1.0 0.1206949356
H  H113  1  0.16740000  0.46140000  0.36410000  1.0 0.1206949356
H  H114  1  0.83260000  0.53860000  0.86410000  1.0 0.1206949356
H  H115  1  0.16740000  0.03860000  0.63590000  1.0 0.1206949356
H  H116  1  0.83260000  0.96140000  0.13590000  1.0 0.1206949356
H  H117  1  0.83260000  0.53860000  0.63590000  1.0 0.1206949356
H  H118  1  0.16740000  0.46140000  0.13590000  1.0 0.1206949356
H  H119  1  0.83260000  0.96140000  0.36410000  1.0 0.1206949356
H  H120  1  0.16740000  0.03860000  0.86410000  1.0 0.1206949356
H  H121  1  0.25130000  0.44580000  0.42630000  1.0 0.1287221188
H  H122  1  0.74870000  0.55420000  0.92630000  1.0 0.1287221188
H  H123  1  0.25130000  0.05420000  0.57370000  1.0 0.1287221188
H  H124  1  0.74870000  0.94580000  0.07370000  1.0 0.1287221188
H  H125  1  0.74870000  0.55420000  0.57370000  1.0 0.1287221188
H  H126  1  0.25130000  0.44580000  0.07370000  1.0 0.1287221188
H  H127  1  0.74870000  0.94580000  0.42630000  1.0 0.1287221188
H  H128  1  0.25130000  0.05420000  0.92630000  1.0 0.1287221188
H  H129  1  0.55170000  0.26200000  0.41790000  1.0 0.1206949356
H  H130  1  0.44830000  0.73800000  0.91790000  1.0 0.1206949356
H  H131  1  0.55170000  0.23800000  0.58210000  1.0 0.1206949356
H  H132  1  0.44830000  0.76200000  0.08210000  1.0 0.1206949356
H  H133  1  0.44830000  0.73800000  0.58210000  1.0 0.1206949356
H  H134  1  0.55170000  0.26200000  0.08210000  1.0 0.1206949356
H  H135  1  0.44830000  0.76200000  0.41790000  1.0 0.1206949356
H  H136  1  0.55170000  0.23800000  0.91790000  1.0 0.1206949356
H  H137  1  0.63400000  0.22830000  0.36060000  1.0 0.1287221188
H  H138  1  0.36600000  0.77170000  0.86060000  1.0 0.1287221188
H  H139  1  0.63400000  0.27170000  0.63940000  1.0 0.1287221188
H  H140  1  0.36600000  0.72830000  0.13940000  1.0 0.1287221188
H  H141  1  0.36600000  0.77170000  0.63940000  1.0 0.1287221188
H  H142  1  0.63400000  0.22830000  0.13940000  1.0 0.1287221188
H  H143  1  0.36600000  0.72830000  0.36060000  1.0 0.1287221188
H  H144  1  0.63400000  0.27170000  0.86060000  1.0 0.1287221188
H  H145  1  0.80640000  0.35140000  0.33470000  1.0 0.1287221188
H  H146  1  0.19360000  0.64860000  0.83470000  1.0 0.1287221188
H  H147  1  0.80640000  0.14860000  0.66530000  1.0 0.1287221188
H  H148  1  0.19360000  0.85140000  0.16530000  1.0 0.1287221188
H  H149  1  0.19360000  0.64860000  0.66530000  1.0 0.1287221188
H  H150  1  0.80640000  0.35140000  0.16530000  1.0 0.1287221188
H  H151  1  0.19360000  0.85140000  0.33470000  1.0 0.1287221188
H  H152  1  0.80640000  0.14860000  0.83470000  1.0 0.1287221188
H  H153  1  0.71670000  0.38680000  0.38890000  1.0 0.149321265
H  H154  1  0.28330000  0.61320000  0.88890000  1.0 0.149321265
H  H155  1  0.71670000  0.11320000  0.61110000  1.0 0.149321265
H  H156  1  0.28330000  0.88680000  0.11110000  1.0 0.149321265
H  H157  1  0.28330000  0.61320000  0.61110000  1.0 0.149321265
H  H158  1  0.71670000  0.38680000  0.11110000  1.0 0.149321265
H  H159  1  0.28330000  0.88680000  0.38890000  1.0 0.149321265
H  H160  1  0.71670000  0.11320000  0.88890000  1.0 0.149321265
H  H161  1  0.77680000  0.32050000  0.58290000  1.0 0.1394765057
H  H162  1  0.22320000  0.67950000  0.08290000  1.0 0.1394765057
H  H163  1  0.77680000  0.17950000  0.41710000  1.0 0.1394765057
H  H164  1  0.22320000  0.82050000  0.91710000  1.0 0.1394765057
H  H165  1  0.22320000  0.67950000  0.41710000  1.0 0.1394765057
H  H166  1  0.77680000  0.32050000  0.91710000  1.0 0.1394765057
H  H167  1  0.22320000  0.82050000  0.58290000  1.0 0.1394765057
H  H168  1  0.77680000  0.17950000  0.08290000  1.0 0.1394765057
H  H169  1  0.84710000  0.34080000  0.64570000  1.0 0.1287221188
H  H170  1  0.15290000  0.65920000  0.14570000  1.0 0.1287221188
H  H171  1  0.84710000  0.15920000  0.35430000  1.0 0.1287221188
H  H172  1  0.15290000  0.84080000  0.85430000  1.0 0.1287221188
H  H173  1  0.15290000  0.65920000  0.35430000  1.0 0.1287221188
H  H174  1  0.84710000  0.34080000  0.85430000  1.0 0.1287221188
H  H175  1  0.15290000  0.84080000  0.64570000  1.0 0.1287221188
H  H176  1  0.84710000  0.15920000  0.14570000  1.0 0.1287221188
H  H177  1  0.68860000  0.47010000  0.63600000  1.0 0.1287221188
H  H178  1  0.31140000  0.52990000  0.13600000  1.0 0.1287221188
H  H179  1  0.68860000  0.02990000  0.36400000  1.0 0.1287221188
H  H180  1  0.31140000  0.97010000  0.86400000  1.0 0.1287221188
H  H181  1  0.31140000  0.52990000  0.36400000  1.0 0.1287221188
H  H182  1  0.68860000  0.47010000  0.86400000  1.0 0.1287221188
H  H183  1  0.31140000  0.97010000  0.63600000  1.0 0.1287221188
H  H184  1  0.68860000  0.02990000  0.13600000  1.0 0.1287221188
H  H185  1  0.61370000  0.45060000  0.57290000  1.0 0.1206949356
H  H186  1  0.38630000  0.54940000  0.07290000  1.0 0.1206949356
H  H187  1  0.61370000  0.04940000  0.42710000  1.0 0.1206949356
H  H188  1  0.38630000  0.95060000  0.92710000  1.0 0.1206949356
H  H189  1  0.38630000  0.54940000  0.42710000  1.0 0.1206949356
H  H190  1  0.61370000  0.45060000  0.92710000  1.0 0.1206949356
H  H191  1  0.38630000  0.95060000  0.57290000  1.0 0.1206949356
H  H192  1  0.61370000  0.04940000  0.07290000  1.0 0.1206949356
H  H193  1  0.56910000  0.26790000  0.75000000  1.0 0.1556635867
H  H194  1  0.43090000  0.73210000  0.25000000  1.0 0.1556635867
H  H195  1  0.56910000  0.23210000  0.25000000  1.0 0.1556635867
H  H196  1  0.43090000  0.76790000  0.75000000  1.0 0.1556635867
H  H197  1  0.44390000  0.28060000  0.77350000  1.0 0.1394765057
H  H198  1  0.55610000  0.71940000  0.27350000  1.0 0.1394765057
H  H199  1  0.44390000  0.21940000  0.22650000  1.0 0.1394765057
H  H200  1  0.55610000  0.78060000  0.72650000  1.0 0.1394765057
H  H201  1  0.55610000  0.71940000  0.22650000  1.0 0.1394765057
H  H202  1  0.44390000  0.28060000  0.72650000  1.0 0.1394765057
H  H203  1  0.55610000  0.78060000  0.77350000  1.0 0.1394765057
H  H204  1  0.44390000  0.21940000  0.27350000  1.0 0.1394765057
H  H205  1  0.52580000  0.43080000  0.75000000  1.0 0.149321265
H  H206  1  0.47420000  0.56920000  0.25000000  1.0 0.149321265
H  H207  1  0.52580000  0.06920000  0.25000000  1.0 0.149321265
H  H208  1  0.47420000  0.93080000  0.75000000  1.0 0.149321265
H  H209  1  0.39700000  0.43600000  0.72650000  1.0 0.1287221188
H  H210  1  0.60300000  0.56400000  0.22650000  1.0 0.1287221188
H  H211  1  0.39700000  0.06400000  0.27350000  1.0 0.1287221188
H  H212  1  0.60300000  0.93600000  0.77350000  1.0 0.1287221188
H  H213  1  0.60300000  0.56400000  0.27350000  1.0 0.1287221188
H  H214  1  0.39700000  0.43600000  0.77350000  1.0 0.1287221188
H  H215  1  0.60300000  0.93600000  0.72650000  1.0 0.1287221188
H  H216  1  0.39700000  0.06400000  0.22650000  1.0 0.1287221188
H  H217  1  0.29970000  0.31510000  0.75000000  1.0 0.1206949356
H  H218  1  0.70030000  0.68490000  0.25000000  1.0 0.1206949356
H  H219  1  0.29970000  0.18490000  0.25000000  1.0 0.1206949356
H  H220  1  0.70030000  0.81510000  0.75000000  1.0 0.1206949356
H  H221  1  0.25000000  0.36050000  0.77350000  1.0 0.1394765057
H  H222  1  0.75000000  0.63950000  0.27350000  1.0 0.1394765057
H  H223  1  0.25000000  0.13950000  0.22650000  1.0 0.1394765057
H  H224  1  0.75000000  0.86050000  0.72650000  1.0 0.1394765057
H  H225  1  0.75000000  0.63950000  0.22650000  1.0 0.1394765057
H  H226  1  0.25000000  0.36050000  0.72650000  1.0 0.1394765057
H  H227  1  0.75000000  0.86050000  0.77350000  1.0 0.1394765057
H  H228  1  0.25000000  0.13950000  0.27350000  1.0 0.1394765057
H  H229  1  0.28960000  0.17000000  0.83570000  1.0 0.0911664201
H  H230  1  0.71040000  0.83000000  0.33570000  1.0 0.0911664201
H  H231  1  0.28960000  0.33000000  0.16430000  1.0 0.0911664201
H  H232  1  0.71040000  0.67000000  0.66430000  1.0 0.0911664201
H  H233  1  0.71040000  0.83000000  0.16430000  1.0 0.0911664201
H  H234  1  0.28960000  0.17000000  0.66430000  1.0 0.0911664201
H  H235  1  0.71040000  0.67000000  0.83570000  1.0 0.0911664201
H  H236  1  0.28960000  0.33000000  0.33570000  1.0 0.0911664201
H  H237  1  0.36280000  0.13290000  0.81020000  1.0 0.0911664201
H  H238  1  0.63720000  0.86710000  0.31020000  1.0 0.0911664201
H  H239  1  0.36280000  0.36710000  0.18980000  1.0 0.0911664201
H  H240  1  0.63720000  0.63290000  0.68980000  1.0 0.0911664201
H  H241  1  0.63720000  0.86710000  0.18980000  1.0 0.0911664201
H  H242  1  0.36280000  0.13290000  0.68980000  1.0 0.0911664201
H  H243  1  0.63720000  0.63290000  0.81020000  1.0 0.0911664201
H  H244  1  0.36280000  0.36710000  0.31020000  1.0 0.0911664201
H  H245  1  0.42240000  0.18250000  0.81920000  1.0 0.0795045292
H  H246  1  0.57760000  0.81750000  0.31920000  1.0 0.0795045292
H  H247  1  0.42240000  0.31750000  0.18080000  1.0 0.0795045292
H  H248  1  0.57760000  0.68250000  0.68080000  1.0 0.0795045292
H  H249  1  0.57760000  0.81750000  0.18080000  1.0 0.0795045292
H  H250  1  0.42240000  0.18250000  0.68080000  1.0 0.0795045292
H  H251  1  0.57760000  0.68250000  0.81920000  1.0 0.0795045292
H  H252  1  0.42240000  0.31750000  0.31920000  1.0 0.0795045292
H  H253  1  0.60250000  0.17340000  0.72340000  1.0 0.0682689341
H  H254  1  0.39750000  0.82660000  0.22340000  1.0 0.0682689341
H  H255  1  0.60250000  0.32660000  0.27660000  1.0 0.0682689341
H  H256  1  0.39750000  0.67340000  0.77660000  1.0 0.0682689341
H  H257  1  0.39750000  0.82660000  0.27660000  1.0 0.0682689341
H  H258  1  0.60250000  0.17340000  0.77660000  1.0 0.0682689341
H  H259  1  0.39750000  0.67340000  0.72340000  1.0 0.0682689341
H  H260  1  0.60250000  0.32660000  0.22340000  1.0 0.0682689341
H  H261  1  0.60870000  0.14730000  0.76400000  1.0 0.0682689341
H  H262  1  0.39130000  0.85270000  0.26400000  1.0 0.0682689341
H  H263  1  0.60870000  0.35270000  0.23600000  1.0 0.0682689341
H  H264  1  0.39130000  0.64730000  0.73600000  1.0 0.0682689341
H  H265  1  0.39130000  0.85270000  0.23600000  1.0 0.0682689341
H  H266  1  0.60870000  0.14730000  0.73600000  1.0 0.0682689341
H  H267  1  0.39130000  0.64730000  0.76400000  1.0 0.0682689341
H  H268  1  0.60870000  0.35270000  0.26400000  1.0 0.0682689341
H  H269  1  0.59550000  0.20260000  0.76250000  1.0 0.0795045292
H  H270  1  0.40450000  0.79740000  0.26250000  1.0 0.0795045292
H  H271  1  0.59550000  0.29740000  0.23750000  1.0 0.0795045292
H  H272  1  0.40450000  0.70260000  0.73750000  1.0 0.0795045292
H  H273  1  0.40450000  0.79740000  0.23750000  1.0 0.0795045292
H  H274  1  0.59550000  0.20260000  0.73750000  1.0 0.0795045292
H  H275  1  0.40450000  0.70260000  0.76250000  1.0 0.0795045292
H  H276  1  0.59550000  0.29740000  0.26250000  1.0 0.0795045292
H  H277  1  0.31850000  0.16470000  0.69890000  1.0 0.0682689341
H  H278  1  0.68150000  0.83530000  0.19890000  1.0 0.0682689341
H  H279  1  0.31850000  0.33530000  0.30110000  1.0 0.0682689341
H  H280  1  0.68150000  0.66470000  0.80110000  1.0 0.0682689341
H  H281  1  0.68150000  0.83530000  0.30110000  1.0 0.0682689341
H  H282  1  0.31850000  0.16470000  0.80110000  1.0 0.0682689341
H  H283  1  0.68150000  0.66470000  0.69890000  1.0 0.0682689341
H  H284  1  0.31850000  0.33530000  0.19890000  1.0 0.0682689341
H  H285  1  0.43730000  0.19690000  0.69510000  1.0 0.1018104052
H  H286  1  0.56270000  0.80310000  0.19510000  1.0 0.1018104052
H  H287  1  0.43730000  0.30310000  0.30490000  1.0 0.1018104052
H  H288  1  0.56270000  0.69690000  0.80490000  1.0 0.1018104052
H  H289  1  0.56270000  0.80310000  0.30490000  1.0 0.1018104052
H  H290  1  0.43730000  0.19690000  0.80490000  1.0 0.1018104052
H  H291  1  0.56270000  0.69690000  0.69510000  1.0 0.1018104052
H  H292  1  0.43730000  0.30310000  0.19510000  1.0 0.1018104052
H  H293  1  0.45050000  0.14150000  0.69360000  1.0 0.0911664201
H  H294  1  0.54950000  0.85850000  0.19360000  1.0 0.0911664201
H  H295  1  0.45050000  0.35850000  0.30640000  1.0 0.0911664201
H  H296  1  0.54950000  0.64150000  0.80640000  1.0 0.0911664201
H  H297  1  0.54950000  0.85850000  0.30640000  1.0 0.0911664201
H  H298  1  0.45050000  0.14150000  0.80640000  1.0 0.0911664201
H  H299  1  0.54950000  0.64150000  0.69360000  1.0 0.0911664201
H  H300  1  0.45050000  0.35850000  0.19360000  1.0 0.0911664201
C  C1  1  0.45430000  0.35980000  0.49920000  1.0 0.0795045292
C  C2  1  0.54570000  0.64020000  0.99920000  1.0 0.0795045292
C  C3  1  0.45430000  0.14020000  0.50080000  1.0 0.0795045292
C  C4  1  0.54570000  0.85980000  0.00080000  1.0 0.0795045292
C  C5  1  0.54570000  0.64020000  0.50080000  1.0 0.0795045292
C  C6  1  0.45430000  0.35980000  0.00080000  1.0 0.0795045292
C  C7  1  0.54570000  0.85980000  0.49920000  1.0 0.0795045292
C  C8  1  0.45430000  0.14020000  0.99920000  1.0 0.0795045292
C  C9  1  0.39530000  0.32850000  0.53070000  1.0 -0.0899205598
C  C10  1  0.60470000  0.67150000  0.03070000  1.0 -0.0899205598
C  C11  1  0.39530000  0.17150000  0.46930000  1.0 -0.0899205598
C  C12  1  0.60470000  0.82850000  0.96930000  1.0 -0.0899205598
C  C13  1  0.60470000  0.67150000  0.46930000  1.0 -0.0899205598
C  C14  1  0.39530000  0.32850000  0.96930000  1.0 -0.0899205598
C  C15  1  0.60470000  0.82850000  0.53070000  1.0 -0.0899205598
C  C16  1  0.39530000  0.17150000  0.03070000  1.0 -0.0899205598
C  C17  1  0.35820000  0.39130000  0.47800000  1.0 -0.0826038845
C  C18  1  0.64180000  0.60870000  0.97800000  1.0 -0.0826038845
C  C19  1  0.35820000  0.10870000  0.52200000  1.0 -0.0826038845
C  C20  1  0.64180000  0.89130000  0.02200000  1.0 -0.0826038845
C  C21  1  0.64180000  0.60870000  0.52200000  1.0 -0.0826038845
C  C22  1  0.35820000  0.39130000  0.02200000  1.0 -0.0826038845
C  C23  1  0.64180000  0.89130000  0.47800000  1.0 -0.0826038845
C  C24  1  0.35820000  0.10870000  0.97800000  1.0 -0.0826038845
C  C25  1  0.51470000  0.32500000  0.46990000  1.0 -0.0826038845
C  C26  1  0.48530000  0.67500000  0.96990000  1.0 -0.0826038845
C  C27  1  0.51470000  0.17500000  0.53010000  1.0 -0.0826038845
C  C28  1  0.48530000  0.82500000  0.03010000  1.0 -0.0826038845
C  C29  1  0.48530000  0.67500000  0.53010000  1.0 -0.0826038845
C  C30  1  0.51470000  0.32500000  0.03010000  1.0 -0.0826038845
C  C31  1  0.48530000  0.82500000  0.46990000  1.0 -0.0826038845
C  C32  1  0.51470000  0.17500000  0.96990000  1.0 -0.0826038845
C  C33  1  0.54710000  0.39440000  0.51770000  1.0 -0.0899205598
C  C34  1  0.45290000  0.60560000  0.01770000  1.0 -0.0899205598
C  C35  1  0.54710000  0.10560000  0.48230000  1.0 -0.0899205598
C  C36  1  0.45290000  0.89440000  0.98230000  1.0 -0.0899205598
C  C37  1  0.45290000  0.60560000  0.48230000  1.0 -0.0899205598
C  C38  1  0.54710000  0.39440000  0.98230000  1.0 -0.0899205598
C  C39  1  0.45290000  0.89440000  0.51770000  1.0 -0.0899205598
C  C40  1  0.54710000  0.10560000  0.01770000  1.0 -0.0899205598
C  C41  1  0.27240000  0.33680000  0.58920000  1.0 0.2534029553
C  C42  1  0.72760000  0.66320000  0.08920000  1.0 0.2534029553
C  C43  1  0.27240000  0.16320000  0.41080000  1.0 0.2534029553
C  C44  1  0.72760000  0.83680000  0.91080000  1.0 0.2534029553
C  C45  1  0.72760000  0.66320000  0.41080000  1.0 0.2534029553
C  C46  1  0.27240000  0.33680000  0.91080000  1.0 0.2534029553
C  C47  1  0.72760000  0.83680000  0.58920000  1.0 0.2534029553
C  C48  1  0.27240000  0.16320000  0.08920000  1.0 0.2534029553
C  C49  1  0.29020000  0.28980000  0.59970000  1.0 -0.2527398308
C  C50  1  0.70980000  0.71020000  0.09970000  1.0 -0.2527398308
C  C51  1  0.29020000  0.21020000  0.40030000  1.0 -0.2527398308
C  C52  1  0.70980000  0.78980000  0.90030000  1.0 -0.2527398308
C  C53  1  0.70980000  0.71020000  0.40030000  1.0 -0.2527398308
C  C54  1  0.29020000  0.28980000  0.90030000  1.0 -0.2527398308
C  C55  1  0.70980000  0.78980000  0.59970000  1.0 -0.2527398308
C  C56  1  0.29020000  0.21020000  0.09970000  1.0 -0.2527398308
C  C57  1  0.23580000  0.27240000  0.63400000  1.0 -0.0826038845
C  C58  1  0.76420000  0.72760000  0.13400000  1.0 -0.0826038845
C  C59  1  0.23580000  0.22760000  0.36600000  1.0 -0.0826038845
C  C60  1  0.76420000  0.77240000  0.86600000  1.0 -0.0826038845
C  C61  1  0.76420000  0.72760000  0.36600000  1.0 -0.0826038845
C  C62  1  0.23580000  0.27240000  0.86600000  1.0 -0.0826038845
C  C63  1  0.76420000  0.77240000  0.63400000  1.0 -0.0826038845
C  C64  1  0.23580000  0.22760000  0.13400000  1.0 -0.0826038845
C  C65  1  0.15830000  0.30130000  0.65660000  1.0 -0.0431007636
C  C66  1  0.84170000  0.69870000  0.15660000  1.0 -0.0431007636
C  C67  1  0.15830000  0.19870000  0.34340000  1.0 -0.0431007636
C  C68  1  0.84170000  0.80130000  0.84340000  1.0 -0.0431007636
C  C69  1  0.84170000  0.69870000  0.34340000  1.0 -0.0431007636
C  C70  1  0.15830000  0.30130000  0.84340000  1.0 -0.0431007636
C  C71  1  0.84170000  0.80130000  0.65660000  1.0 -0.0431007636
C  C72  1  0.15830000  0.19870000  0.15660000  1.0 -0.0431007636
C  C73  1  0.14220000  0.34850000  0.64600000  1.0 -0.0641188608
C  C74  1  0.85780000  0.65150000  0.14600000  1.0 -0.0641188608
C  C75  1  0.14220000  0.15150000  0.35400000  1.0 -0.0641188608
C  C76  1  0.85780000  0.84850000  0.85400000  1.0 -0.0641188608
C  C77  1  0.85780000  0.65150000  0.35400000  1.0 -0.0641188608
C  C78  1  0.14220000  0.34850000  0.85400000  1.0 -0.0641188608
C  C79  1  0.85780000  0.84850000  0.64600000  1.0 -0.0641188608
C  C80  1  0.14220000  0.15150000  0.14600000  1.0 -0.0641188608
C  C81  1  0.19950000  0.36610000  0.61260000  1.0 -0.2119168097
C  C82  1  0.80050000  0.63390000  0.11260000  1.0 -0.2119168097
C  C83  1  0.19950000  0.13390000  0.38740000  1.0 -0.2119168097
C  C84  1  0.80050000  0.86610000  0.88740000  1.0 -0.2119168097
C  C85  1  0.80050000  0.63390000  0.38740000  1.0 -0.2119168097
C  C86  1  0.19950000  0.36610000  0.88740000  1.0 -0.2119168097
C  C87  1  0.80050000  0.86610000  0.61260000  1.0 -0.2119168097
C  C88  1  0.19950000  0.13390000  0.11260000  1.0 -0.2119168097
C  C89  1  0.09590000  0.28110000  0.69320000  1.0 0.6301894817
C  C90  1  0.90410000  0.71890000  0.19320000  1.0 0.6301894817
C  C91  1  0.09590000  0.21890000  0.30680000  1.0 0.6301894817
C  C92  1  0.90410000  0.78110000  0.80680000  1.0 0.6301894817
C  C93  1  0.90410000  0.71890000  0.30680000  1.0 0.6301894817
C  C94  1  0.09590000  0.28110000  0.80680000  1.0 0.6301894817
C  C95  1  0.90410000  0.78110000  0.69320000  1.0 0.6301894817
C  C96  1  0.09590000  0.21890000  0.19320000  1.0 0.6301894817
C  C97  1  0.21480000  0.37520000  0.42550000  1.0 0.2587548173
C  C98  1  0.78520000  0.62480000  0.92550000  1.0 0.2587548173
C  C99  1  0.21480000  0.12480000  0.57450000  1.0 0.2587548173
C  C100  1  0.78520000  0.87520000  0.07450000  1.0 0.2587548173
C  C101  1  0.78520000  0.62480000  0.57450000  1.0 0.2587548173
C  C102  1  0.21480000  0.37520000  0.07450000  1.0 0.2587548173
C  C103  1  0.78520000  0.87520000  0.42550000  1.0 0.2587548173
C  C104  1  0.21480000  0.12480000  0.92550000  1.0 0.2587548173
C  C105  1  0.15420000  0.33940000  0.40460000  1.0 -0.2038063654
C  C106  1  0.84580000  0.66060000  0.90460000  1.0 -0.2038063654
C  C107  1  0.15420000  0.16060000  0.59540000  1.0 -0.2038063654
C  C108  1  0.84580000  0.83940000  0.09540000  1.0 -0.2038063654
C  C109  1  0.84580000  0.66060000  0.59540000  1.0 -0.2038063654
C  C110  1  0.15420000  0.33940000  0.09540000  1.0 -0.2038063654
C  C111  1  0.84580000  0.83940000  0.40460000  1.0 -0.2038063654
C  C112  1  0.15420000  0.16060000  0.90460000  1.0 -0.2038063654
C  C113  1  0.10390000  0.34900000  0.36850000  1.0 -0.0826038845
C  C114  1  0.89610000  0.65100000  0.86850000  1.0 -0.0899205598
C  C115  1  0.10390000  0.15100000  0.63150000  1.0 -0.0899205598
C  C116  1  0.89610000  0.84900000  0.13150000  1.0 -0.0899205598
C  C117  1  0.89610000  0.65100000  0.63150000  1.0 -0.0899205598
C  C118  1  0.10390000  0.34900000  0.13150000  1.0 -0.0899205598
C  C119  1  0.89610000  0.84900000  0.36850000  1.0 -0.0826038845
C  C120  1  0.10390000  0.15100000  0.86850000  1.0 -0.0899205598
C  C121  1  0.11380000  0.39400000  0.35240000  1.0 -0.0480691628
C  C122  1  0.88620000  0.60600000  0.85240000  1.0 -0.0480691628
C  C123  1  0.11380000  0.10600000  0.64760000  1.0 -0.0480691628
C  C124  1  0.88620000  0.89400000  0.14760000  1.0 -0.0480691628
C  C125  1  0.88620000  0.60600000  0.64760000  1.0 -0.0480691628
C  C126  1  0.11380000  0.39400000  0.14760000  1.0 -0.0480691628
C  C127  1  0.88620000  0.89400000  0.35240000  1.0 -0.0480691628
C  C128  1  0.11380000  0.10600000  0.85240000  1.0 -0.0480691628
C  C129  1  0.16590000  0.43000000  0.37430000  1.0 -0.0899205598
C  C130  1  0.83410000  0.57000000  0.87430000  1.0 -0.0899205598
C  C131  1  0.16590000  0.07000000  0.62570000  1.0 -0.0899205598
C  C132  1  0.83410000  0.93000000  0.12570000  1.0 -0.0899205598
C  C133  1  0.83410000  0.57000000  0.62570000  1.0 -0.0899205598
C  C134  1  0.16590000  0.43000000  0.12570000  1.0 -0.0899205598
C  C135  1  0.83410000  0.93000000  0.37430000  1.0 -0.0899205598
C  C136  1  0.16590000  0.07000000  0.87430000  1.0 -0.0899205598
C  C137  1  0.21620000  0.42080000  0.41110000  1.0 -0.2425048505
C  C138  1  0.78380000  0.57920000  0.91110000  1.0 -0.2425048505
C  C139  1  0.21620000  0.07920000  0.58890000  1.0 -0.2425048505
C  C140  1  0.78380000  0.92080000  0.08890000  1.0 -0.2425048505
C  C141  1  0.78380000  0.57920000  0.58890000  1.0 -0.2425048505
C  C142  1  0.21620000  0.42080000  0.08890000  1.0 -0.2425048505
C  C143  1  0.78380000  0.92080000  0.41110000  1.0 -0.2425048505
C  C144  1  0.21620000  0.07920000  0.91110000  1.0 -0.2425048505
C  C145  1  0.06760000  0.09690000  0.68850000  1.0 0.6384668197
C  C146  1  0.93240000  0.90310000  0.18850000  1.0 0.6384668197
C  C147  1  0.06760000  0.40310000  0.31150000  1.0 0.6384668197
C  C148  1  0.93240000  0.59690000  0.81150000  1.0 0.6384668197
C  C149  1  0.93240000  0.90310000  0.31150000  1.0 0.6384668197
C  C150  1  0.06760000  0.09690000  0.81150000  1.0 0.6384668197
C  C151  1  0.93240000  0.59690000  0.68850000  1.0 0.6384668197
C  C152  1  0.06760000  0.40310000  0.18850000  1.0 0.6384668197
C  C153  1  0.62580000  0.32790000  0.40870000  1.0 0.2587548173
C  C154  1  0.37420000  0.67210000  0.90870000  1.0 0.2587548173
C  C155  1  0.62580000  0.17210000  0.59130000  1.0 0.2587548173
C  C156  1  0.37420000  0.82790000  0.09130000  1.0 0.2587548173
C  C157  1  0.37420000  0.67210000  0.59130000  1.0 0.2587548173
C  C158  1  0.62580000  0.32790000  0.09130000  1.0 0.2587548173
C  C159  1  0.37420000  0.82790000  0.40870000  1.0 0.2587548173
C  C160  1  0.62580000  0.17210000  0.90870000  1.0 0.2587548173
C  C161  1  0.60200000  0.28040000  0.40060000  1.0 -0.2527398308
C  C162  1  0.39800000  0.71960000  0.90060000  1.0 -0.2527398308
C  C163  1  0.60200000  0.21960000  0.59940000  1.0 -0.2527398308
C  C164  1  0.39800000  0.78040000  0.09940000  1.0 -0.2527398308
C  C165  1  0.39800000  0.71960000  0.59940000  1.0 -0.2527398308
C  C166  1  0.60200000  0.28040000  0.09940000  1.0 -0.2527398308
C  C167  1  0.39800000  0.78040000  0.40060000  1.0 -0.2527398308
C  C168  1  0.60200000  0.21960000  0.90060000  1.0 -0.2527398308
C  C169  1  0.65290000  0.26030000  0.36700000  1.0 -0.0826038845
C  C170  1  0.34710000  0.73970000  0.86700000  1.0 -0.0826038845
C  C171  1  0.65290000  0.23970000  0.63300000  1.0 -0.0826038845
C  C172  1  0.34710000  0.76030000  0.13300000  1.0 -0.0826038845
C  C173  1  0.34710000  0.73970000  0.63300000  1.0 -0.0826038845
C  C174  1  0.65290000  0.26030000  0.13300000  1.0 -0.0826038845
C  C175  1  0.34710000  0.76030000  0.36700000  1.0 -0.0826038845
C  C176  1  0.65290000  0.23970000  0.86700000  1.0 -0.0826038845
C  C177  1  0.73070000  0.28630000  0.34280000  1.0 -0.0480691628
C  C178  1  0.26930000  0.71370000  0.84280000  1.0 -0.0480691628
C  C179  1  0.73070000  0.21370000  0.65720000  1.0 -0.0480691628
C  C180  1  0.26930000  0.78630000  0.15720000  1.0 -0.0480691628
C  C181  1  0.26930000  0.71370000  0.65720000  1.0 -0.0480691628
C  C182  1  0.73070000  0.28630000  0.15720000  1.0 -0.0480691628
C  C183  1  0.26930000  0.78630000  0.34280000  1.0 -0.0480691628
C  C184  1  0.73070000  0.21370000  0.84280000  1.0 -0.0480691628
C  C185  1  0.75360000  0.33333333  0.35140000  1.0 -0.0710857507
C  C186  1  0.24640000  0.66666667  0.85140000  1.0 -0.0710857507
C  C187  1  0.75360000  0.16667000  0.64860000  1.0 -0.0710857507
C  C188  1  0.24640000  0.83333000  0.14860000  1.0 -0.0710857507
C  C189  1  0.24640000  0.66666667  0.64860000  1.0 -0.0710857507
C  C190  1  0.75360000  0.33333333  0.14860000  1.0 -0.0710857507
C  C191  1  0.24640000  0.83333000  0.35140000  1.0 -0.0710857507
C  C192  1  0.75360000  0.16667000  0.85140000  1.0 -0.0710857507
C  C193  1  0.70140000  0.35420000  0.38360000  1.0 -0.2119168097
C  C194  1  0.29860000  0.64580000  0.88360000  1.0 -0.2119168097
C  C195  1  0.70140000  0.14580000  0.61640000  1.0 -0.2119168097
C  C196  1  0.29860000  0.85420000  0.11640000  1.0 -0.2119168097
C  C197  1  0.29860000  0.64580000  0.61640000  1.0 -0.2119168097
C  C198  1  0.70140000  0.35420000  0.11640000  1.0 -0.2119168097
C  C199  1  0.29860000  0.85420000  0.38360000  1.0 -0.2119168097
C  C200  1  0.70140000  0.14580000  0.88360000  1.0 -0.2119168097
C  C201  1  0.79110000  0.23620000  0.69310000  1.0 0.6301894817
C  C202  1  0.20890000  0.76380000  0.19310000  1.0 0.6301894817
C  C203  1  0.79110000  0.26380000  0.30690000  1.0 0.6301894817
C  C204  1  0.20890000  0.73620000  0.80690000  1.0 0.6301894817
C  C205  1  0.20890000  0.76380000  0.30690000  1.0 0.6301894817
C  C206  1  0.79110000  0.23620000  0.80690000  1.0 0.6301894817
C  C207  1  0.20890000  0.73620000  0.69310000  1.0 0.6301894817
C  C208  1  0.79110000  0.26380000  0.19310000  1.0 0.6301894817
C  C209  1  0.68510000  0.38280000  0.57270000  1.0 0.2700428734
C  C210  1  0.31490000  0.61720000  0.07270000  1.0 0.2700428734
C  C211  1  0.68510000  0.11720000  0.42730000  1.0 0.2700428734
C  C212  1  0.31490000  0.88280000  0.92730000  1.0 0.2700428734
C  C213  1  0.31490000  0.61720000  0.42730000  1.0 0.2700428734
C  C214  1  0.68510000  0.38280000  0.92730000  1.0 0.2700428734
C  C215  1  0.31490000  0.88280000  0.57270000  1.0 0.2700428734
C  C216  1  0.68510000  0.11720000  0.07270000  1.0 0.2700428734
C  C217  1  0.75700000  0.35070000  0.59380000  1.0 -0.2317028982
C  C218  1  0.24300000  0.64930000  0.09380000  1.0 -0.2317028982
C  C219  1  0.75700000  0.14930000  0.40620000  1.0 -0.2317028982
C  C220  1  0.24300000  0.85070000  0.90620000  1.0 -0.2317028982
C  C221  1  0.24300000  0.64930000  0.40620000  1.0 -0.2317028982
C  C222  1  0.75700000  0.35070000  0.90620000  1.0 -0.2317028982
C  C223  1  0.24300000  0.85070000  0.59380000  1.0 -0.2317028982
C  C224  1  0.75700000  0.14930000  0.09380000  1.0 -0.2317028982
C  C225  1  0.79950000  0.36300000  0.63100000  1.0 -0.0710857507
C  C226  1  0.20050000  0.63700000  0.13100000  1.0 -0.0710857507
C  C227  1  0.79950000  0.13700000  0.36900000  1.0 -0.0710857507
C  C228  1  0.20050000  0.86300000  0.86900000  1.0 -0.0710857507
C  C229  1  0.20050000  0.63700000  0.36900000  1.0 -0.0710857507
C  C230  1  0.79950000  0.36300000  0.86900000  1.0 -0.0710857507
C  C231  1  0.20050000  0.86300000  0.63100000  1.0 -0.0710857507
C  C232  1  0.79950000  0.13700000  0.13100000  1.0 -0.0710857507
C  C233  1  0.77380000  0.40710000  0.64700000  1.0 -0.0710857507
C  C234  1  0.22620000  0.59290000  0.14700000  1.0 -0.0641188608
C  C235  1  0.77380000  0.09290000  0.35300000  1.0 -0.0641188608
C  C236  1  0.22620000  0.90710000  0.85300000  1.0 -0.0641188608
C  C237  1  0.22620000  0.59290000  0.35300000  1.0 -0.0641188608
C  C238  1  0.77380000  0.40710000  0.85300000  1.0 -0.0641188608
C  C239  1  0.22620000  0.90710000  0.64700000  1.0 -0.0710857507
C  C240  1  0.77380000  0.09290000  0.14700000  1.0 -0.0641188608
C  C241  1  0.70530000  0.43960000  0.62530000  1.0 -0.0826038845
C  C242  1  0.29470000  0.56040000  0.12530000  1.0 -0.0826038845
C  C243  1  0.70530000  0.06040000  0.37470000  1.0 -0.0826038845
C  C244  1  0.29470000  0.93960000  0.87470000  1.0 -0.0826038845
C  C245  1  0.29470000  0.56040000  0.37470000  1.0 -0.0826038845
C  C246  1  0.70530000  0.43960000  0.87470000  1.0 -0.0826038845
C  C247  1  0.29470000  0.93960000  0.62530000  1.0 -0.0826038845
C  C248  1  0.70530000  0.06040000  0.12530000  1.0 -0.0826038845
C  C249  1  0.66020000  0.42810000  0.58780000  1.0 -0.2633049716
C  C250  1  0.33980000  0.57190000  0.08780000  1.0 -0.2633049716
C  C251  1  0.66020000  0.07190000  0.41220000  1.0 -0.2633049716
C  C252  1  0.33980000  0.92810000  0.91220000  1.0 -0.2633049716
C  C253  1  0.33980000  0.57190000  0.41220000  1.0 -0.2633049716
C  C254  1  0.66020000  0.42810000  0.91220000  1.0 -0.2633049716
C  C255  1  0.33980000  0.92810000  0.58780000  1.0 -0.2633049716
C  C256  1  0.66020000  0.07190000  0.08780000  1.0 -0.2633049716
C  C257  1  0.81690000  0.41980000  0.68780000  1.0 0.6695596944
C  C258  1  0.18310000  0.58020000  0.18780000  1.0 0.6695596944
C  C259  1  0.81690000  0.08020000  0.31220000  1.0 0.6695596944
C  C260  1  0.18310000  0.91980000  0.81220000  1.0 0.6695596944
C  C261  1  0.18310000  0.58020000  0.31220000  1.0 0.6695596944
C  C262  1  0.81690000  0.41980000  0.81220000  1.0 0.6695596944
C  C263  1  0.18310000  0.91980000  0.68780000  1.0 0.6695596944
C  C264  1  0.81690000  0.08020000  0.18780000  1.0 0.6695596944
C  C265  1  0.33790000  0.17160000  0.76810000  1.0 0.1206949356
C  C266  1  0.66210000  0.82840000  0.26810000  1.0 0.1206949356
C  C267  1  0.33790000  0.32840000  0.23190000  1.0 0.1206949356
C  C268  1  0.66210000  0.67160000  0.73190000  1.0 0.1206949356
C  C269  1  0.66210000  0.82840000  0.23190000  1.0 0.1206949356
C  C270  1  0.33790000  0.17160000  0.73190000  1.0 0.1206949356
C  C271  1  0.66210000  0.67160000  0.76810000  1.0 0.1206949356
C  C272  1  0.33790000  0.32840000  0.26810000  1.0 0.1206949356
C  C273  1  0.34570000  0.16600000  0.81390000  1.0 -0.2119168097
C  C274  1  0.65430000  0.83400000  0.31390000  1.0 -0.2119168097
C  C275  1  0.34570000  0.33400000  0.18610000  1.0 -0.2119168097
C  C276  1  0.65430000  0.66600000  0.68610000  1.0 -0.2119168097
C  C277  1  0.65430000  0.83400000  0.18610000  1.0 -0.2119168097
C  C278  1  0.34570000  0.16600000  0.68610000  1.0 -0.2119168097
C  C279  1  0.65430000  0.66600000  0.81390000  1.0 -0.2119168097
C  C280  1  0.34570000  0.33400000  0.31390000  1.0 -0.2119168097
C  C281  1  0.57250000  0.17340000  0.75000000  1.0 -0.3365043928
C  C282  1  0.42750000  0.82660000  0.25000000  1.0 -0.3365043928
C  C283  1  0.57250000  0.32660000  0.25000000  1.0 -0.3365043928
C  C284  1  0.42750000  0.67340000  0.75000000  1.0 -0.3365043928
C  C285  1  0.40600000  0.16740000  0.79480000  1.0 -0.1276516659
C  C286  1  0.59400000  0.83260000  0.29480000  1.0 -0.1276516659
C  C287  1  0.40600000  0.33260000  0.20520000  1.0 -0.1276516659
C  C288  1  0.59400000  0.66740000  0.70520000  1.0 -0.1276516659
C  C289  1  0.59400000  0.83260000  0.20520000  1.0 -0.1276516659
C  C290  1  0.40600000  0.16740000  0.70520000  1.0 -0.1276516659
C  C291  1  0.59400000  0.66740000  0.79480000  1.0 -0.1276516659
C  C292  1  0.40600000  0.33260000  0.29480000  1.0 -0.1276516659
C  C293  1  0.53000000  0.33960000  0.75000000  1.0 0.581613041
C  C294  1  0.47000000  0.66040000  0.25000000  1.0 0.581613041
C  C295  1  0.53000000  0.16040000  0.25000000  1.0 0.581613041
C  C296  1  0.47000000  0.83960000  0.75000000  1.0 0.581613041
C  C297  1  0.49300000  0.28760000  0.75000000  1.0 -0.6395585217
C  C298  1  0.50700000  0.71240000  0.25000000  1.0 -0.6395585217
C  C299  1  0.49300000  0.21240000  0.25000000  1.0 -0.6395585217
C  C300  1  0.50700000  0.78760000  0.75000000  1.0 -0.6395585217
C  C301  1  0.43700000  0.42270000  0.75000000  1.0 -0.3504818936
C  C302  1  0.56300000  0.57730000  0.25000000  1.0 -0.3504818936
C  C303  1  0.43700000  0.07730000  0.25000000  1.0 -0.3504818936
C  C304  1  0.56300000  0.92270000  0.75000000  1.0 -0.3504818936
C  C305  1  0.29470000  0.34980000  0.75000000  1.0 -0.3309521084
C  C306  1  0.70530000  0.65020000  0.25000000  1.0 -0.3309521084
C  C307  1  0.29470000  0.15020000  0.25000000  1.0 -0.3309521084
C  C308  1  0.70530000  0.84980000  0.75000000  1.0 -0.3309521084
N  N1  1  0.91660000  0.99600000  0.75000000  1.0 0.3731209556
N  N2  1  0.08340000  0.00400000  0.25000000  1.0 0.3731209556
N  N3  1  0.91660000  0.50400000  0.25000000  1.0 0.3731209556
N  N4  1  0.08340000  0.49600000  0.75000000  1.0 0.3731209556
N  N5  1  0.44160000  0.17100000  0.75000000  1.0 -0.0899205598
N  N6  1  0.55840000  0.82900000  0.25000000  1.0 -0.0899205598
N  N7  1  0.44160000  0.32900000  0.25000000  1.0 -0.0899205598
N  N8  1  0.55840000  0.67100000  0.75000000  1.0 -0.0899205598
N  N9  1  0.42210000  0.36990000  0.75000000  1.0 0.0292171961
N  N10  1  0.57790000  0.63010000  0.25000000  1.0 0.0292171961
N  N11  1  0.42210000  0.13010000  0.25000000  1.0 0.0292171961
N  N12  1  0.57790000  0.86990000  0.75000000  1.0 0.0292171961
N  N13  1  0.62400000  0.53020000  0.75000000  1.0 0.1394765057
N  N14  1  0.37600000  0.46980000  0.25000000  1.0 0.1394765057
N  N15  1  0.62400000  0.96980000  0.25000000  1.0 0.1394765057
N  N16  1  0.37600000  0.03020000  0.75000000  1.0 0.1394765057
O  O1  1  0.40000000  0.56980000  0.75000000  1.0 -0.1609173447
O  O2  1  0.60000000  0.43020000  0.25000000  1.0 -0.1609173447
O  O3  1  0.40000000  0.93020000  0.25000000  1.0 -0.1702984949
O  O4  1  0.60000000  0.06980000  0.75000000  1.0 -0.1609173447
O  O5  1  0.21300000  0.45570000  0.70430000  1.0 -0.3561206788
O  O6  1  0.78700000  0.54430000  0.20430000  1.0 -0.3561206788
O  O7  1  0.21300000  0.04430000  0.29570000  1.0 -0.3561206788
O  O8  1  0.78700000  0.95570000  0.79570000  1.0 -0.3504818936
O  O9  1  0.78700000  0.54430000  0.29570000  1.0 -0.3561206788
O  O10  1  0.21300000  0.45570000  0.79570000  1.0 -0.3504818936
O  O11  1  0.78700000  0.95570000  0.70430000  1.0 -0.3561206788
O  O12  1  0.21300000  0.04430000  0.20430000  1.0 -0.3561206788
O  O13  1  0.95400000  0.03590000  0.75000000  1.0 -0.2527398308
O  O14  1  0.04600000  0.96410000  0.25000000  1.0 -0.2527398308
O  O15  1  0.95400000  0.46410000  0.25000000  1.0 -0.2527398308
O  O16  1  0.04600000  0.53590000  0.75000000  1.0 -0.2527398308
O  O17  1  0.98630000  0.96360000  0.75000000  1.0 -0.3504818936
O  O18  1  0.01370000  0.03640000  0.25000000  1.0 -0.3504818936
O  O19  1  0.98630000  0.53640000  0.25000000  1.0 -0.3504818936
O  O20  1  0.01370000  0.46360000  0.75000000  1.0 -0.3504818936
O  O21  1  0.80580000  0.98890000  0.75000000  1.0 0.3388311039
O  O22  1  0.19420000  0.01110000  0.25000000  1.0 0.3388311039
O  O23  1  0.80580000  0.51110000  0.25000000  1.0 0.3388311039
O  O24  1  0.19420000  0.48890000  0.75000000  1.0 0.3388311039
O  O25  1  0.32370000  0.35770000  0.55644000  1.0 -0.1860390534
O  O26  1  0.67630000  0.64230000  0.05644000  1.0 -0.1860390534
O  O27  1  0.32370000  0.14230000  0.44356000  1.0 -0.1860390534
O  O28  1  0.67630000  0.85770000  0.94356000  1.0 -0.1860390534
O  O29  1  0.67630000  0.64230000  0.44356000  1.0 -0.1860390534
O  O30  1  0.32370000  0.35770000  0.94356000  1.0 -0.1860390534
O  O31  1  0.67630000  0.85770000  0.55644000  1.0 -0.1860390534
O  O32  1  0.32370000  0.14230000  0.05644000  1.0 -0.1860390534
O  O33  1  0.12780000  0.24060000  0.70413000  1.0 -0.6395585217
O  O34  1  0.87220000  0.75940000  0.20413000  1.0 -0.6395585217
O  O35  1  0.12780000  0.25940000  0.29587000  1.0 -0.6395585217
O  O36  1  0.87220000  0.74060000  0.79587000  1.0 -0.6395585217
O  O37  1  0.87220000  0.75940000  0.29587000  1.0 -0.6395585217
O  O38  1  0.12780000  0.24060000  0.79587000  1.0 -0.6395585217
O  O39  1  0.87220000  0.74060000  0.70413000  1.0 -0.6395585217
O  O40  1  0.12780000  0.25940000  0.20413000  1.0 -0.6395585217
O  O41  1  0.01600000  0.30660000  0.70909000  1.0 -0.6787448158
O  O42  1  0.98400000  0.69340000  0.20909000  1.0 -0.6787448158
O  O43  1  0.01600000  0.19340000  0.29091000  1.0 -0.6787448158
O  O44  1  0.98400000  0.80660000  0.79091000  1.0 -0.6787448158
O  O45  1  0.98400000  0.69340000  0.29091000  1.0 -0.6787448158
O  O46  1  0.01600000  0.30660000  0.79091000  1.0 -0.6787448158
O  O47  1  0.98400000  0.80660000  0.70909000  1.0 -0.6787448158
O  O48  1  0.01600000  0.19340000  0.20909000  1.0 -0.6787448158
O  O49  1  0.26760000  0.36090000  0.46040000  1.0 -0.1801584902
O  O50  1  0.73240000  0.63910000  0.96040000  1.0 -0.1801584902
O  O51  1  0.26760000  0.13910000  0.53960000  1.0 -0.1801584902
O  O52  1  0.73240000  0.86090000  0.03960000  1.0 -0.1801584902
O  O53  1  0.73240000  0.63910000  0.53960000  1.0 -0.1801584902
O  O54  1  0.26760000  0.36090000  0.03960000  1.0 -0.1801584902
O  O55  1  0.73240000  0.86090000  0.46040000  1.0 -0.1801584902
O  O56  1  0.26760000  0.13910000  0.96040000  1.0 -0.1801584902
O  O57  1  0.01690000  0.13030000  0.70644000  1.0 -0.6158531462
O  O58  1  0.98310000  0.86970000  0.20644000  1.0 -0.6158531462
O  O59  1  0.01690000  0.36970000  0.29356000  1.0 -0.6158531462
O  O60  1  0.98310000  0.63030000  0.79356000  1.0 -0.6158531462
O  O61  1  0.98310000  0.86970000  0.29356000  1.0 -0.6158531462
O  O62  1  0.01690000  0.13030000  0.79356000  1.0 -0.6158531462
O  O63  1  0.98310000  0.63030000  0.70644000  1.0 -0.6158531462
O  O64  1  0.01690000  0.36970000  0.20644000  1.0 -0.6158531462
O  O65  1  0.07720000  0.05560000  0.70250000  1.0 -0.5958066811
O  O66  1  0.92280000  0.94440000  0.20250000  1.0 -0.5958066811
O  O67  1  0.07720000  0.44440000  0.29750000  1.0 -0.5958066811
O  O68  1  0.92280000  0.55560000  0.79750000  1.0 -0.5958066811
O  O69  1  0.92280000  0.94440000  0.29750000  1.0 -0.5958066811
O  O70  1  0.07720000  0.05560000  0.79750000  1.0 -0.5958066811
O  O71  1  0.92280000  0.55560000  0.70250000  1.0 -0.5958066811
O  O72  1  0.07720000  0.44440000  0.20250000  1.0 -0.5958066811
O  O73  1  0.57870000  0.35200000  0.44060000  1.0 -0.1801584902
O  O74  1  0.42130000  0.64800000  0.94060000  1.0 -0.1801584902
O  O75  1  0.57870000  0.14800000  0.55940000  1.0 -0.1801584902
O  O76  1  0.42130000  0.85200000  0.05940000  1.0 -0.1801584902
O  O77  1  0.42130000  0.64800000  0.55940000  1.0 -0.1801584902
O  O78  1  0.57870000  0.35200000  0.05940000  1.0 -0.1801584902
O  O79  1  0.42130000  0.85200000  0.44060000  1.0 -0.1801584902
O  O80  1  0.57870000  0.14800000  0.94060000  1.0 -0.1801584902
O  O81  1  0.87440000  0.21240000  0.71000000  1.0 -0.6992455576
O  O82  1  0.12560000  0.78760000  0.21000000  1.0 -0.6992455576
O  O83  1  0.87440000  0.28760000  0.29000000  1.0 -0.6992455576
O  O84  1  0.12560000  0.71240000  0.79000000  1.0 -0.6992455576
O  O85  1  0.12560000  0.78760000  0.29000000  1.0 -0.6992455576
O  O86  1  0.87440000  0.21240000  0.79000000  1.0 -0.6992455576
O  O87  1  0.12560000  0.71240000  0.71000000  1.0 -0.6992455576
O  O88  1  0.87440000  0.28760000  0.21000000  1.0 -0.6992455576
O  O89  1  0.75670000  0.27720000  0.70341000  1.0 -0.6642018338
O  O90  1  0.24330000  0.72280000  0.20341000  1.0 -0.6642018338
O  O91  1  0.75670000  0.22280000  0.29659000  1.0 -0.6642018338
O  O92  1  0.24330000  0.77720000  0.79659000  1.0 -0.6642018338
O  O93  1  0.24330000  0.72280000  0.29659000  1.0 -0.6642018338
O  O94  1  0.75670000  0.27720000  0.79659000  1.0 -0.6642018338
O  O95  1  0.24330000  0.77720000  0.70341000  1.0 -0.6642018338
O  O96  1  0.75670000  0.22280000  0.20341000  1.0 -0.6642018338
O  O97  1  0.64370000  0.36690000  0.53748000  1.0 -0.1801584902
O  O98  1  0.35630000  0.63310000  0.03748000  1.0 -0.1801584902
O  O99  1  0.64370000  0.13310000  0.46252000  1.0 -0.1801584902
O  O100  1  0.35630000  0.86690000  0.96252000  1.0 -0.1801584902
O  O101  1  0.35630000  0.63310000  0.46252000  1.0 -0.1801584902
O  O102  1  0.64370000  0.36690000  0.96252000  1.0 -0.1801584902
O  O103  1  0.35630000  0.86690000  0.53748000  1.0 -0.1801584902
O  O104  1  0.64370000  0.13310000  0.03748000  1.0 -0.1801584902
O  O105  1  0.20240000  0.96070000  0.79960000  1.0 -0.6395585217
O  O106  1  0.79760000  0.03930000  0.29960000  1.0 -0.6395585217
O  O107  1  0.20240000  0.53930000  0.20040000  1.0 -0.6395585217
O  O108  1  0.79760000  0.46070000  0.70040000  1.0 -0.6348308553
O  O109  1  0.79760000  0.03930000  0.20040000  1.0 -0.6348308553
O  O110  1  0.20240000  0.96070000  0.70040000  1.0 -0.6348308553
O  O111  1  0.79760000  0.46070000  0.79960000  1.0 -0.6395585217
O  O112  1  0.20240000  0.53930000  0.29960000  1.0 -0.6395585217
O  O113  1  0.87110000  0.38820000  0.70735000  1.0 -0.6395585217
O  O114  1  0.12890000  0.61180000  0.20735000  1.0 -0.6395585217
O  O115  1  0.87110000  0.11180000  0.29265000  1.0 -0.6395585217
O  O116  1  0.12890000  0.88820000  0.79265000  1.0 -0.6395585217
O  O117  1  0.12890000  0.61180000  0.29265000  1.0 -0.6395585217
O  O118  1  0.87110000  0.38820000  0.79265000  1.0 -0.6395585217
O  O119  1  0.12890000  0.88820000  0.70735000  1.0 -0.6395585217
O  O120  1  0.87110000  0.11180000  0.20735000  1.0 -0.6395585217
O  O121  1  0.23490000  0.16140000  0.75000000  1.0 -0.3773471643
O  O122  1  0.76510000  0.83860000  0.25000000  1.0 -0.3773471643
O  O123  1  0.23490000  0.33860000  0.25000000  1.0 -0.3773471643
O  O124  1  0.76510000  0.66140000  0.75000000  1.0 -0.3773471643
O  O125  1  0.64640000  0.35290000  0.75000000  1.0 -0.6787448158
O  O126  1  0.35360000  0.64710000  0.25000000  1.0 -0.6787448158
O  O127  1  0.64640000  0.14710000  0.25000000  1.0 -0.6787448158
O  O128  1  0.35360000  0.85290000  0.75000000  1.0 -0.6787448158
O  O129  1  0.65630000  0.48940000  0.75000000  1.0 -0.3165590247
O  O130  1  0.34370000  0.51060000  0.25000000  1.0 -0.3165590247
O  O131  1  0.65630000  0.01060000  0.25000000  1.0 -0.3165590247
O  O132  1  0.34370000  0.98940000  0.75000000  1.0 -0.3165590247
O  O133  1  0.70250000  0.56030000  0.75000000  1.0 -0.3732449938
O  O134  1  0.29750000  0.43970000  0.25000000  1.0 -0.3732449938
O  O135  1  0.70250000  0.93970000  0.25000000  1.0 -0.3732449938
O  O136  1  0.29750000  0.06030000  0.75000000  1.0 -0.3732449938
O  O137  1  0.51700000  0.54010000  0.75000000  1.0 -0.1231571366
O  O138  1  0.48300000  0.45990000  0.25000000  1.0 -0.1231571366
O  O139  1  0.51700000  0.95990000  0.25000000  1.0 -0.1231571366
O  O140  1  0.48300000  0.04010000  0.75000000  1.0 -0.1231571366
