# DDEC6 charges by PACMAN v1.1 (https://github.com/mtap-research/PACMAN-charge/)
data_OXANOR_FSR_pacman
_symmetry_space_group_name_H-M   'P 1'
_cell_length_a   12.08100000
_cell_length_b   18.98600000
_cell_length_c   19.68300000
_cell_angle_alpha   90.00000000
_cell_angle_beta   90.00000000
_cell_angle_gamma   90.00000000
_symmetry_Int_Tables_number   1
_chemical_formula_structural   Co3H45C35(NO3)4
_chemical_formula_sum   'Co12 H180 C140 N16 O48'
_cell_volume   4514.68707248
_cell_formula_units_Z   4
loop_
 _symmetry_equiv_pos_site_id
 _symmetry_equiv_pos_as_xyz
  1  'x, y, z'
loop_
 _atom_site_type_symbol
 _atom_site_label
 _atom_site_symmetry_multiplicity
 _atom_site_fract_x
 _atom_site_fract_y
 _atom_site_fract_z
 _atom_site_occupancy
 _atom_site_charge
Co  Co1  1  0.67025000  0.30923000  0.16208000  1.0 0.8834732349
Co  Co2  1  0.17025000  0.19077000  0.83792000  1.0 0.8834732349
Co  Co3  1  0.32975000  0.69077000  0.66208000  1.0 0.8834732349
Co  Co4  1  0.82975000  0.80923000  0.33792000  1.0 0.8834732349
Co  Co5  1  0.32975000  0.69077000  0.83792000  1.0 0.8834732349
Co  Co6  1  0.82975000  0.80923000  0.16208000  1.0 0.8834732349
Co  Co7  1  0.67025000  0.30923000  0.33792000  1.0 0.8834732349
Co  Co8  1  0.17025000  0.19077000  0.66208000  1.0 0.8834732349
Co  Co9  1  0.42999000  0.15669000  0.75000000  1.0 0.6568426068
Co  Co10  1  0.92999000  0.34331000  0.25000000  1.0 0.6568426068
Co  Co11  1  0.57001000  0.84331000  0.25000000  1.0 0.6568426068
Co  Co12  1  0.07001000  0.65669000  0.75000000  1.0 0.6568426068
H  H1  1  0.67200000  0.18700000  0.05580000  1.0 0.1003995256
H  H2  1  0.17200000  0.31300000  0.94420000  1.0 0.1003995256
H  H3  1  0.32800000  0.81300000  0.55580000  1.0 0.1003995256
H  H4  1  0.82800000  0.68700000  0.44420000  1.0 0.1003995256
H  H5  1  0.32800000  0.81300000  0.94420000  1.0 0.1003995256
H  H6  1  0.82800000  0.68700000  0.05580000  1.0 0.1003995256
H  H7  1  0.67200000  0.18700000  0.44420000  1.0 0.1003995256
H  H8  1  0.17200000  0.31300000  0.55580000  1.0 0.1003995256
H  H9  1  0.58220000  0.14700000  0.96020000  1.0 0.1196196701
H  H10  1  0.08220000  0.35300000  0.03980000  1.0 0.1196196701
H  H11  1  0.41780000  0.85300000  0.46020000  1.0 0.1196196701
H  H12  1  0.91780000  0.64700000  0.53980000  1.0 0.1196196701
H  H13  1  0.41780000  0.85300000  0.03980000  1.0 0.1196196701
H  H14  1  0.91780000  0.64700000  0.96020000  1.0 0.1196196701
H  H15  1  0.58220000  0.14700000  0.53980000  1.0 0.1196196701
H  H16  1  0.08220000  0.35300000  0.46020000  1.0 0.1196196701
H  H17  1  0.37810000  0.31620000  0.97290000  1.0 0.1287485089
H  H18  1  0.87810000  0.18380000  0.02710000  1.0 0.1287485089
H  H19  1  0.62190000  0.68380000  0.47290000  1.0 0.1287485089
H  H20  1  0.12190000  0.81620000  0.52710000  1.0 0.1287485089
H  H21  1  0.62190000  0.68380000  0.02710000  1.0 0.1287485089
H  H22  1  0.12190000  0.81620000  0.97290000  1.0 0.1287485089
H  H23  1  0.37810000  0.31620000  0.52710000  1.0 0.1287485089
H  H24  1  0.87810000  0.18380000  0.47290000  1.0 0.1287485089
H  H25  1  0.47540000  0.35070000  0.06750000  1.0 0.1003995256
H  H26  1  0.97540000  0.14930000  0.93250000  1.0 0.1003995256
H  H27  1  0.52460000  0.64930000  0.56750000  1.0 0.1003995256
H  H28  1  0.02460000  0.85070000  0.43250000  1.0 0.1003995256
H  H29  1  0.52460000  0.64930000  0.93250000  1.0 0.1003995256
H  H30  1  0.02460000  0.85070000  0.06750000  1.0 0.1003995256
H  H31  1  0.47540000  0.35070000  0.43250000  1.0 0.1003995256
H  H32  1  0.97540000  0.14930000  0.56750000  1.0 0.1003995256
H  H33  1  0.42900000  0.03250000  0.65040000  1.0 0.1003995256
H  H34  1  0.92900000  0.46750000  0.34960000  1.0 0.1003995256
H  H35  1  0.57100000  0.96750000  0.15040000  1.0 0.1003995256
H  H36  1  0.07100000  0.53250000  0.84960000  1.0 0.1003995256
H  H37  1  0.57100000  0.96750000  0.34960000  1.0 0.1003995256
H  H38  1  0.07100000  0.53250000  0.65040000  1.0 0.1003995256
H  H39  1  0.42900000  0.03250000  0.84960000  1.0 0.1003995256
H  H40  1  0.92900000  0.46750000  0.15040000  1.0 0.1003995256
H  H41  1  0.39400000  0.91130000  0.64800000  1.0 0.1287485089
H  H42  1  0.89400000  0.58870000  0.35200000  1.0 0.1287485089
H  H43  1  0.60600000  0.08870000  0.14800000  1.0 0.1287485089
H  H44  1  0.10600000  0.41130000  0.85200000  1.0 0.1287485089
H  H45  1  0.60600000  0.08870000  0.35200000  1.0 0.1287485089
H  H46  1  0.10600000  0.41130000  0.64800000  1.0 0.1287485089
H  H47  1  0.39400000  0.91130000  0.85200000  1.0 0.1287485089
H  H48  1  0.89400000  0.58870000  0.14800000  1.0 0.1287485089
H  H49  1  0.63440000  0.21720000  0.83210000  1.0 0.1003995256
H  H50  1  0.13440000  0.28280000  0.16790000  1.0 0.1003995256
H  H51  1  0.36560000  0.78280000  0.33210000  1.0 0.1003995256
H  H52  1  0.86560000  0.71720000  0.66790000  1.0 0.1003995256
H  H53  1  0.36560000  0.78280000  0.16790000  1.0 0.1003995256
H  H54  1  0.86560000  0.71720000  0.83210000  1.0 0.1003995256
H  H55  1  0.63440000  0.21720000  0.66790000  1.0 0.1003995256
H  H56  1  0.13440000  0.28280000  0.33210000  1.0 0.1003995256
H  H57  1  0.82360000  0.20960000  0.83840000  1.0 0.1196196701
H  H58  1  0.32360000  0.29040000  0.16160000  1.0 0.1196196701
H  H59  1  0.17640000  0.79040000  0.33840000  1.0 0.1196196701
H  H60  1  0.67640000  0.70960000  0.66160000  1.0 0.1196196701
H  H61  1  0.17640000  0.79040000  0.16160000  1.0 0.1196196701
H  H62  1  0.67640000  0.70960000  0.83840000  1.0 0.1196196701
H  H63  1  0.82360000  0.20960000  0.66160000  1.0 0.1196196701
H  H64  1  0.32360000  0.29040000  0.33840000  1.0 0.1196196701
H  H65  1  0.35060000  0.27670000  0.76100000  1.0 0.272405396
H  H66  1  0.85060000  0.22330000  0.23900000  1.0 0.272405396
H  H67  1  0.64940000  0.72330000  0.26100000  1.0 0.272405396
H  H68  1  0.14940000  0.77670000  0.73900000  1.0 0.272405396
H  H69  1  0.64940000  0.72330000  0.23900000  1.0 0.272405396
H  H70  1  0.14940000  0.77670000  0.76100000  1.0 0.272405396
H  H71  1  0.35060000  0.27670000  0.73900000  1.0 0.272405396
H  H72  1  0.85060000  0.22330000  0.26100000  1.0 0.272405396
H  H73  1  0.54780000  0.32820000  0.73050000  1.0 0.0426551725
H  H74  1  0.04780000  0.17180000  0.26950000  1.0 0.0426551725
H  H75  1  0.45220000  0.67180000  0.23050000  1.0 0.0426551725
H  H76  1  0.95220000  0.82820000  0.76950000  1.0 0.0426551725
H  H77  1  0.45220000  0.67180000  0.26950000  1.0 0.0426551725
H  H78  1  0.95220000  0.82820000  0.73050000  1.0 0.0426551725
H  H79  1  0.54780000  0.32820000  0.76950000  1.0 0.0426551725
H  H80  1  0.04780000  0.17180000  0.23050000  1.0 0.0426551725
H  H81  1  0.46090000  0.32780000  0.67200000  1.0 0.0691517841
H  H82  1  0.96090000  0.17220000  0.32800000  1.0 0.0691517841
H  H83  1  0.53910000  0.67220000  0.17200000  1.0 0.0691517841
H  H84  1  0.03910000  0.82780000  0.82800000  1.0 0.0691517841
H  H85  1  0.53910000  0.67220000  0.32800000  1.0 0.0691517841
H  H86  1  0.03910000  0.82780000  0.67200000  1.0 0.0691517841
H  H87  1  0.46090000  0.32780000  0.82800000  1.0 0.0691517841
H  H88  1  0.96090000  0.17220000  0.17200000  1.0 0.0691517841
H  H89  1  0.44930000  0.43540000  0.73070000  1.0 0.0504971023
H  H90  1  0.94930000  0.06460000  0.26930000  1.0 0.0504971023
H  H91  1  0.55070000  0.56460000  0.23070000  1.0 0.0504971023
H  H92  1  0.05070000  0.93540000  0.76930000  1.0 0.0504971023
H  H93  1  0.55070000  0.56460000  0.26930000  1.0 0.0504971023
H  H94  1  0.05070000  0.93540000  0.73070000  1.0 0.0504971023
H  H95  1  0.44930000  0.43540000  0.76930000  1.0 0.0504971023
H  H96  1  0.94930000  0.06460000  0.23070000  1.0 0.0504971023
H  H97  1  0.42500000  0.39480000  0.79840000  1.0 0.0046500869
H  H98  1  0.92500000  0.10520000  0.20160000  1.0 0.0046500869
H  H99  1  0.57500000  0.60520000  0.29840000  1.0 0.0046500869
H  H100  1  0.07500000  0.89480000  0.70160000  1.0 0.0046500869
H  H101  1  0.57500000  0.60520000  0.20160000  1.0 0.0046500869
H  H102  1  0.07500000  0.89480000  0.79840000  1.0 0.0046500869
H  H103  1  0.42500000  0.39480000  0.70160000  1.0 0.0046500869
H  H104  1  0.92500000  0.10520000  0.29840000  1.0 0.0046500869
H  H105  1  0.33750000  0.39440000  0.73950000  1.0 0.0691517841
H  H106  1  0.83750000  0.10560000  0.26050000  1.0 0.0691517841
H  H107  1  0.66250000  0.60560000  0.23950000  1.0 0.0691517841
H  H108  1  0.16250000  0.89440000  0.76050000  1.0 0.0691517841
H  H109  1  0.66250000  0.60560000  0.26050000  1.0 0.0691517841
H  H110  1  0.16250000  0.89440000  0.73950000  1.0 0.0691517841
H  H111  1  0.33750000  0.39440000  0.76050000  1.0 0.0691517841
H  H112  1  0.83750000  0.10560000  0.23950000  1.0 0.0691517841
H  H113  1  0.75670000  0.42170000  0.11400000  1.0 0.3129068192
H  H114  1  0.25670000  0.07830000  0.88600000  1.0 0.3129068192
H  H115  1  0.24330000  0.57830000  0.61400000  1.0 0.3129068192
H  H116  1  0.74330000  0.92170000  0.38600000  1.0 0.3129068192
H  H117  1  0.24330000  0.57830000  0.88600000  1.0 0.3129068192
H  H118  1  0.74330000  0.92170000  0.11400000  1.0 0.3129068192
H  H119  1  0.75670000  0.42170000  0.38600000  1.0 0.3129068192
H  H120  1  0.25670000  0.07830000  0.61400000  1.0 0.3129068192
H  H121  1  0.57880000  0.46440000  0.17100000  1.0 0.0900719266
H  H122  1  0.07880000  0.03560000  0.82900000  1.0 0.0900719266
H  H123  1  0.42120000  0.53560000  0.67100000  1.0 0.0900719266
H  H124  1  0.92120000  0.96440000  0.32900000  1.0 0.0900719266
H  H125  1  0.42120000  0.53560000  0.82900000  1.0 0.0900719266
H  H126  1  0.92120000  0.96440000  0.17100000  1.0 0.0900719266
H  H127  1  0.57880000  0.46440000  0.32900000  1.0 0.0900719266
H  H128  1  0.07880000  0.03560000  0.67100000  1.0 0.0900719266
H  H129  1  0.69550000  0.50410000  0.16290000  1.0 0.0691517841
H  H130  1  0.19550000  0.99590000  0.83710000  1.0 0.0691517841
H  H131  1  0.30450000  0.49590000  0.66290000  1.0 0.0691517841
H  H132  1  0.80450000  0.00410000  0.33710000  1.0 0.0691517841
H  H133  1  0.30450000  0.49590000  0.83710000  1.0 0.0691517841
H  H134  1  0.80450000  0.00410000  0.16290000  1.0 0.0691517841
H  H135  1  0.69550000  0.50410000  0.33710000  1.0 0.0691517841
H  H136  1  0.19550000  0.99590000  0.66290000  1.0 0.0691517841
H  H137  1  0.56080000  0.55890000  0.09310000  1.0 0.1287485089
H  H138  1  0.06080000  0.94110000  0.90690000  1.0 0.1287485089
H  H139  1  0.43920000  0.44110000  0.59310000  1.0 0.1287485089
H  H140  1  0.93920000  0.05890000  0.40690000  1.0 0.1287485089
H  H141  1  0.43920000  0.44110000  0.90690000  1.0 0.1287485089
H  H142  1  0.93920000  0.05890000  0.09310000  1.0 0.1287485089
H  H143  1  0.56080000  0.55890000  0.40690000  1.0 0.1287485089
H  H144  1  0.06080000  0.94110000  0.59310000  1.0 0.1287485089
H  H145  1  0.65590000  0.52540000  0.04660000  1.0 0.1196196701
H  H146  1  0.15590000  0.97460000  0.95340000  1.0 0.1196196701
H  H147  1  0.34410000  0.47460000  0.54660000  1.0 0.1196196701
H  H148  1  0.84410000  0.02540000  0.45340000  1.0 0.1196196701
H  H149  1  0.34410000  0.47460000  0.95340000  1.0 0.1196196701
H  H150  1  0.84410000  0.02540000  0.04660000  1.0 0.1196196701
H  H151  1  0.65590000  0.52540000  0.45340000  1.0 0.1196196701
H  H152  1  0.15590000  0.97460000  0.54660000  1.0 0.1196196701
H  H153  1  0.53970000  0.48580000  0.05470000  1.0 0.1287485089
H  H154  1  0.03970000  0.01420000  0.94530000  1.0 0.1287485089
H  H155  1  0.46030000  0.51420000  0.55470000  1.0 0.1287485089
H  H156  1  0.96030000  0.98580000  0.44530000  1.0 0.1287485089
H  H157  1  0.46030000  0.51420000  0.94530000  1.0 0.1287485089
H  H158  1  0.96030000  0.98580000  0.05470000  1.0 0.1287485089
H  H159  1  0.53970000  0.48580000  0.44530000  1.0 0.1287485089
H  H160  1  0.03970000  0.01420000  0.55470000  1.0 0.1287485089
H  H161  1  0.24000000  0.11500000  0.75000000  1.0 0.3029220055
H  H162  1  0.74000000  0.38500000  0.25000000  1.0 0.3029220055
H  H163  1  0.76000000  0.88500000  0.25000000  1.0 0.3029220055
H  H164  1  0.26000000  0.61500000  0.75000000  1.0 0.3029220055
H  H165  1  0.62990000  0.10180000  0.66666667  1.0 0.1085236992
H  H166  1  0.12990000  0.39820000  0.33333333  1.0 0.1085236992
H  H167  1  0.37010000  0.89820000  0.16667000  1.0 0.1085236992
H  H168  1  0.87010000  0.60180000  0.83333000  1.0 0.1085236992
H  H169  1  0.37010000  0.89820000  0.33333333  1.0 0.1085236992
H  H170  1  0.87010000  0.60180000  0.66666667  1.0 0.1085236992
H  H171  1  0.62990000  0.10180000  0.83333000  1.0 0.1085236992
H  H172  1  0.12990000  0.39820000  0.16667000  1.0 0.1085236992
H  H173  1  0.82230000  0.10050000  0.66220000  1.0 0.1085236992
H  H174  1  0.32230000  0.39950000  0.33780000  1.0 0.1085236992
H  H175  1  0.17770000  0.89950000  0.16220000  1.0 0.1085236992
H  H176  1  0.67770000  0.60050000  0.83780000  1.0 0.1085236992
H  H177  1  0.17770000  0.89950000  0.33780000  1.0 0.1085236992
H  H178  1  0.67770000  0.60050000  0.66220000  1.0 0.1085236992
H  H179  1  0.82230000  0.10050000  0.83780000  1.0 0.1085236992
H  H180  1  0.32230000  0.39950000  0.16220000  1.0 0.1085236992
C  C1  1  0.61180000  0.21350000  0.03820000  1.0 0.0504971023
C  C2  1  0.11180000  0.28650000  0.96180000  1.0 0.0504971023
C  C3  1  0.38820000  0.78650000  0.53820000  1.0 0.0504971023
C  C4  1  0.88820000  0.71350000  0.46180000  1.0 0.0504971023
C  C5  1  0.38820000  0.78650000  0.96180000  1.0 0.0504971023
C  C6  1  0.88820000  0.71350000  0.03820000  1.0 0.0504971023
C  C7  1  0.61180000  0.21350000  0.46180000  1.0 0.0504971023
C  C8  1  0.11180000  0.28650000  0.53820000  1.0 0.0504971023
C  C9  1  0.55830000  0.18910000  0.98180000  1.0 -0.1796103541
C  C10  1  0.05830000  0.31090000  0.01820000  1.0 -0.1796103541
C  C11  1  0.44170000  0.81090000  0.48180000  1.0 -0.1796103541
C  C12  1  0.94170000  0.68910000  0.51820000  1.0 -0.1796103541
C  C13  1  0.44170000  0.81090000  0.01820000  1.0 -0.1796103541
C  C14  1  0.94170000  0.68910000  0.98180000  1.0 -0.1796103541
C  C15  1  0.55830000  0.18910000  0.51820000  1.0 -0.1796103541
C  C16  1  0.05830000  0.31090000  0.48180000  1.0 -0.1796103541
C  C17  1  0.46750000  0.22680000  0.95600000  1.0 0.0117727764
C  C18  1  0.96750000  0.27320000  0.04400000  1.0 0.0117727764
C  C19  1  0.53250000  0.77320000  0.45600000  1.0 0.0117727764
C  C20  1  0.03250000  0.72680000  0.54400000  1.0 0.0117727764
C  C21  1  0.53250000  0.77320000  0.04400000  1.0 0.0117727764
C  C22  1  0.03250000  0.72680000  0.95600000  1.0 0.0117727764
C  C23  1  0.46750000  0.22680000  0.54400000  1.0 0.0117727764
C  C24  1  0.96750000  0.27320000  0.45600000  1.0 0.0117727764
C  C25  1  0.43810000  0.28840000  0.98890000  1.0 -0.1891728316
C  C26  1  0.93810000  0.21160000  0.01110000  1.0 -0.1891728316
C  C27  1  0.56190000  0.71160000  0.48890000  1.0 -0.1891728316
C  C28  1  0.06190000  0.78840000  0.51110000  1.0 -0.1891728316
C  C29  1  0.56190000  0.71160000  0.01110000  1.0 -0.1891728316
C  C30  1  0.06190000  0.78840000  0.98890000  1.0 -0.1891728316
C  C31  1  0.43810000  0.28840000  0.51110000  1.0 -0.1891728316
C  C32  1  0.93810000  0.21160000  0.48890000  1.0 -0.1891728316
C  C33  1  0.49760000  0.30870000  0.04520000  1.0 0.0815943282
C  C34  1  0.99760000  0.19130000  0.95480000  1.0 0.0815943282
C  C35  1  0.50240000  0.69130000  0.54520000  1.0 0.0815943282
C  C36  1  0.00240000  0.80870000  0.45480000  1.0 0.0815943282
C  C37  1  0.50240000  0.69130000  0.95480000  1.0 0.0815943282
C  C38  1  0.00240000  0.80870000  0.04520000  1.0 0.0815943282
C  C39  1  0.49760000  0.30870000  0.45480000  1.0 0.0815943282
C  C40  1  0.99760000  0.19130000  0.54520000  1.0 0.0815943282
C  C41  1  0.40320000  0.20180000  0.89560000  1.0 0.542831796
C  C42  1  0.90320000  0.29820000  0.10440000  1.0 0.542831796
C  C43  1  0.59680000  0.79820000  0.39560000  1.0 0.542831796
C  C44  1  0.09680000  0.70180000  0.60440000  1.0 0.542831796
C  C45  1  0.59680000  0.79820000  0.10440000  1.0 0.542831796
C  C46  1  0.09680000  0.70180000  0.89560000  1.0 0.542831796
C  C47  1  0.40320000  0.20180000  0.60440000  1.0 0.542831796
C  C48  1  0.90320000  0.29820000  0.39560000  1.0 0.542831796
C  C49  1  0.42100000  0.00790000  0.69210000  1.0 0.0504971023
C  C50  1  0.92100000  0.49210000  0.30790000  1.0 0.0504971023
C  C51  1  0.57900000  0.99210000  0.19210000  1.0 0.0504971023
C  C52  1  0.07900000  0.50790000  0.80790000  1.0 0.0504971023
C  C53  1  0.57900000  0.99210000  0.30790000  1.0 0.0504971023
C  C54  1  0.07900000  0.50790000  0.69210000  1.0 0.0504971023
C  C55  1  0.42100000  0.00790000  0.80790000  1.0 0.0504971023
C  C56  1  0.92100000  0.49210000  0.19210000  1.0 0.0504971023
C  C57  1  0.40060000  0.93530000  0.69020000  1.0 -0.1746374492
C  C58  1  0.90060000  0.56470000  0.30980000  1.0 -0.1746374492
C  C59  1  0.59940000  0.06470000  0.19020000  1.0 -0.1746374492
C  C60  1  0.09940000  0.43530000  0.80980000  1.0 -0.1746374492
C  C61  1  0.59940000  0.06470000  0.30980000  1.0 -0.1746374492
C  C62  1  0.09940000  0.43530000  0.69020000  1.0 -0.1746374492
C  C63  1  0.40060000  0.93530000  0.80980000  1.0 -0.1746374492
C  C64  1  0.90060000  0.56470000  0.19020000  1.0 -0.1746374492
C  C65  1  0.39050000  0.89960000  0.75000000  1.0 0.0170165717
C  C66  1  0.89050000  0.60040000  0.25000000  1.0 0.0170165717
C  C67  1  0.60950000  0.10040000  0.25000000  1.0 0.0170165717
C  C68  1  0.10950000  0.39960000  0.75000000  1.0 0.0170165717
C  C69  1  0.35910000  0.82200000  0.75000000  1.0 0.5318156805
C  C70  1  0.85910000  0.67800000  0.25000000  1.0 0.5318156805
C  C71  1  0.64090000  0.17800000  0.25000000  1.0 0.5318156805
C  C72  1  0.14090000  0.32200000  0.75000000  1.0 0.5318156805
C  C73  1  0.67290000  0.19120000  0.79830000  1.0 -0.0381584808
C  C74  1  0.17290000  0.30880000  0.20170000  1.0 -0.0381584808
C  C75  1  0.32710000  0.80880000  0.29830000  1.0 -0.0381584808
C  C76  1  0.82710000  0.69120000  0.70170000  1.0 -0.0381584808
C  C77  1  0.32710000  0.80880000  0.20170000  1.0 -0.0381584808
C  C78  1  0.82710000  0.69120000  0.79830000  1.0 -0.0381584808
C  C79  1  0.67290000  0.19120000  0.70170000  1.0 -0.0381584808
C  C80  1  0.17290000  0.30880000  0.29830000  1.0 -0.0381584808
C  C81  1  0.78570000  0.18900000  0.80110000  1.0 -0.0930307519
C  C82  1  0.28570000  0.31100000  0.19890000  1.0 -0.0930307519
C  C83  1  0.21430000  0.81100000  0.30110000  1.0 -0.0930307519
C  C84  1  0.71430000  0.68900000  0.69890000  1.0 -0.0930307519
C  C85  1  0.21430000  0.81100000  0.19890000  1.0 -0.0930307519
C  C86  1  0.71430000  0.68900000  0.80110000  1.0 -0.0930307519
C  C87  1  0.78570000  0.18900000  0.69890000  1.0 -0.0930307519
C  C88  1  0.28570000  0.31100000  0.30110000  1.0 -0.0930307519
C  C89  1  0.84440000  0.15690000  0.75000000  1.0 0.0117727764
C  C90  1  0.34440000  0.34310000  0.25000000  1.0 0.0117727764
C  C91  1  0.15560000  0.84310000  0.25000000  1.0 0.0117727764
C  C92  1  0.65560000  0.65690000  0.75000000  1.0 0.0117727764
C  C93  1  0.97130000  0.15930000  0.75000000  1.0 0.5318156805
C  C94  1  0.47130000  0.34070000  0.25000000  1.0 0.5318156805
C  C95  1  0.02870000  0.84070000  0.25000000  1.0 0.5318156805
C  C96  1  0.52870000  0.65930000  0.75000000  1.0 0.5318156805
C  C97  1  0.47010000  0.32880000  0.72040000  1.0 -0.0563268077
C  C98  1  0.97010000  0.17120000  0.27960000  1.0 -0.0563268077
C  C99  1  0.52990000  0.67120000  0.22040000  1.0 -0.0563268077
C  C100  1  0.02990000  0.82880000  0.77960000  1.0 -0.0563268077
C  C101  1  0.52990000  0.67120000  0.27960000  1.0 -0.0563268077
C  C102  1  0.02990000  0.82880000  0.72040000  1.0 -0.0563268077
C  C103  1  0.47010000  0.32880000  0.77960000  1.0 -0.0563268077
C  C104  1  0.97010000  0.17120000  0.22040000  1.0 -0.0563268077
C  C105  1  0.41510000  0.39430000  0.75000000  1.0 -0.2638927077
C  C106  1  0.91510000  0.10570000  0.25000000  1.0 -0.2638927077
C  C107  1  0.58490000  0.60570000  0.25000000  1.0 -0.2638927077
C  C108  1  0.08490000  0.89430000  0.75000000  1.0 -0.2638927077
C  C109  1  0.63970000  0.47510000  0.13900000  1.0 0.0170165717
C  C110  1  0.13970000  0.02490000  0.86100000  1.0 0.0170165717
C  C111  1  0.36030000  0.52490000  0.63900000  1.0 0.0170165717
C  C112  1  0.86030000  0.97510000  0.36100000  1.0 0.0170165717
C  C113  1  0.36030000  0.52490000  0.86100000  1.0 0.0170165717
C  C114  1  0.86030000  0.97510000  0.13900000  1.0 0.0170165717
C  C115  1  0.63970000  0.47510000  0.36100000  1.0 0.0170165717
C  C116  1  0.13970000  0.02490000  0.63900000  1.0 0.0170165717
C  C117  1  0.59510000  0.51480000  0.07790000  1.0 -0.461717007
C  C118  1  0.09510000  0.98520000  0.92210000  1.0 -0.461717007
C  C119  1  0.40490000  0.48520000  0.57790000  1.0 -0.461717007
C  C120  1  0.90490000  0.01480000  0.42210000  1.0 -0.461717007
C  C121  1  0.40490000  0.48520000  0.92210000  1.0 -0.461717007
C  C122  1  0.90490000  0.01480000  0.07790000  1.0 -0.461717007
C  C123  1  0.59510000  0.51480000  0.42210000  1.0 -0.461717007
C  C124  1  0.09510000  0.98520000  0.57790000  1.0 -0.461717007
C  C125  1  0.67030000  0.12530000  0.70120000  1.0 -0.0147610155
C  C126  1  0.17030000  0.37470000  0.29880000  1.0 -0.0147610155
C  C127  1  0.32970000  0.87470000  0.20120000  1.0 -0.0147610155
C  C128  1  0.82970000  0.62530000  0.79880000  1.0 -0.0152518416
C  C129  1  0.32970000  0.87470000  0.29880000  1.0 -0.0147610155
C  C130  1  0.82970000  0.62530000  0.70120000  1.0 -0.0152518416
C  C131  1  0.67030000  0.12530000  0.79880000  1.0 -0.0147610155
C  C132  1  0.17030000  0.37470000  0.20120000  1.0 -0.0147610155
C  C133  1  0.78510000  0.12370000  0.69840000  1.0 -0.0992778058
C  C134  1  0.28510000  0.37630000  0.30160000  1.0 -0.0992778058
C  C135  1  0.21490000  0.87630000  0.19840000  1.0 -0.0992778058
C  C136  1  0.71490000  0.62370000  0.80160000  1.0 -0.0992778058
C  C137  1  0.21490000  0.87630000  0.30160000  1.0 -0.0992778058
C  C138  1  0.71490000  0.62370000  0.69840000  1.0 -0.0992778058
C  C139  1  0.78510000  0.12370000  0.80160000  1.0 -0.0992778058
C  C140  1  0.28510000  0.37630000  0.19840000  1.0 -0.0992778058
N  N1  1  0.58240000  0.27480000  0.07050000  1.0 -0.243927642
N  N2  1  0.08240000  0.22520000  0.92950000  1.0 -0.243927642
N  N3  1  0.41760000  0.72520000  0.57050000  1.0 -0.243927642
N  N4  1  0.91760000  0.77480000  0.42950000  1.0 -0.243927642
N  N5  1  0.41760000  0.72520000  0.92950000  1.0 -0.243927642
N  N6  1  0.91760000  0.77480000  0.07050000  1.0 -0.243927642
N  N7  1  0.58240000  0.27480000  0.42950000  1.0 -0.243927642
N  N8  1  0.08240000  0.22520000  0.57050000  1.0 -0.243927642
N  N9  1  0.42960000  0.04410000  0.75000000  1.0 -0.2654995744
N  N10  1  0.92960000  0.45590000  0.25000000  1.0 -0.2654995744
N  N11  1  0.57040000  0.95590000  0.25000000  1.0 -0.2654995744
N  N12  1  0.07040000  0.54410000  0.75000000  1.0 -0.2654995744
N  N13  1  0.61350000  0.15840000  0.75000000  1.0 -0.0735297979
N  N14  1  0.11350000  0.34160000  0.25000000  1.0 -0.0735297979
N  N15  1  0.38650000  0.84160000  0.25000000  1.0 -0.0735297979
N  N16  1  0.88650000  0.65840000  0.75000000  1.0 -0.0735297979
O  O1  1  0.25500000  0.15630000  0.75000000  1.0 -0.90098123
O  O2  1  0.75500000  0.34370000  0.25000000  1.0 -0.90098123
O  O3  1  0.74500000  0.84370000  0.25000000  1.0 -0.90098123
O  O4  1  0.24500000  0.65630000  0.75000000  1.0 -0.90098123
O  O5  1  0.45040000  0.15990000  0.85490000  1.0 -0.5927336041
O  O6  1  0.95040000  0.34010000  0.14510000  1.0 -0.5927336041
O  O7  1  0.54960000  0.84010000  0.35490000  1.0 -0.5927336041
O  O8  1  0.04960000  0.65990000  0.64510000  1.0 -0.5927336041
O  O9  1  0.54960000  0.84010000  0.14510000  1.0 -0.5927336041
O  O10  1  0.04960000  0.65990000  0.85490000  1.0 -0.5927336041
O  O11  1  0.45040000  0.15990000  0.64510000  1.0 -0.5927336041
O  O12  1  0.95040000  0.34010000  0.35490000  1.0 -0.5927336041
O  O13  1  0.30700000  0.22480000  0.89010000  1.0 -0.5685800735
O  O14  1  0.80700000  0.27520000  0.10990000  1.0 -0.5685800735
O  O15  1  0.69300000  0.77520000  0.39010000  1.0 -0.5685800735
O  O16  1  0.19300000  0.72480000  0.60990000  1.0 -0.5685800735
O  O17  1  0.69300000  0.77520000  0.10990000  1.0 -0.5685800735
O  O18  1  0.19300000  0.72480000  0.89010000  1.0 -0.5685800735
O  O19  1  0.30700000  0.22480000  0.60990000  1.0 -0.5685800735
O  O20  1  0.80700000  0.27520000  0.39010000  1.0 -0.5685800735
O  O21  1  0.34780000  0.79280000  0.69480000  1.0 -0.5435820047
O  O22  1  0.84780000  0.70720000  0.30520000  1.0 -0.5435820047
O  O23  1  0.65220000  0.20720000  0.19480000  1.0 -0.5435820047
O  O24  1  0.15220000  0.29280000  0.80520000  1.0 -0.5435820047
O  O25  1  0.65220000  0.20720000  0.30520000  1.0 -0.5435820047
O  O26  1  0.15220000  0.29280000  0.69480000  1.0 -0.5435820047
O  O27  1  0.34780000  0.79280000  0.80520000  1.0 -0.5435820047
O  O28  1  0.84780000  0.70720000  0.19480000  1.0 -0.5435820047
O  O29  1  0.01560000  0.15910000  0.80540000  1.0 -0.510913146
O  O30  1  0.51560000  0.34090000  0.19460000  1.0 -0.510913146
O  O31  1  0.98440000  0.84090000  0.30540000  1.0 -0.510913146
O  O32  1  0.48440000  0.65910000  0.69460000  1.0 -0.510913146
O  O33  1  0.98440000  0.84090000  0.19460000  1.0 -0.510913146
O  O34  1  0.48440000  0.65910000  0.80540000  1.0 -0.510913146
O  O35  1  0.01560000  0.15910000  0.69460000  1.0 -0.510913146
O  O36  1  0.51560000  0.34090000  0.30540000  1.0 -0.510913146
O  O37  1  0.41790000  0.27050000  0.75000000  1.0 -0.3133912657
O  O38  1  0.91790000  0.22950000  0.25000000  1.0 -0.3133912657
O  O39  1  0.58210000  0.72950000  0.25000000  1.0 -0.3133912657
O  O40  1  0.08210000  0.77050000  0.75000000  1.0 -0.3133912657
O  O41  1  0.68780000  0.41280000  0.11610000  1.0 -0.461717007
O  O42  1  0.18780000  0.08720000  0.88390000  1.0 -0.461717007
O  O43  1  0.31220000  0.58720000  0.61610000  1.0 -0.461717007
O  O44  1  0.81220000  0.91280000  0.38390000  1.0 -0.461717007
O  O45  1  0.31220000  0.58720000  0.88390000  1.0 -0.461717007
O  O46  1  0.81220000  0.91280000  0.11610000  1.0 -0.461717007
O  O47  1  0.68780000  0.41280000  0.38390000  1.0 -0.461717007
O  O48  1  0.18780000  0.08720000  0.61610000  1.0 -0.461717007
