# DDEC6 charges by PACMAN v1.1 (https://github.com/mtap-research/PACMAN-charge/)
data_OXIBEF_ASR_pacman
_symmetry_space_group_name_H-M   'P 1'
_cell_length_a   21.78430000
_cell_length_b   21.78430000
_cell_length_c   21.78430000
_cell_angle_alpha   43.60770000
_cell_angle_beta   43.60770000
_cell_angle_gamma   43.60770000
_symmetry_Int_Tables_number   1
_chemical_formula_structural   NiH32(C27N2)2
_chemical_formula_sum   'Ni3 H96 C162 N12'
_cell_volume   4463.08396837
_cell_formula_units_Z   3
loop_
 _symmetry_equiv_pos_site_id
 _symmetry_equiv_pos_as_xyz
  1  'x, y, z'
loop_
 _atom_site_type_symbol
 _atom_site_label
 _atom_site_symmetry_multiplicity
 _atom_site_fract_x
 _atom_site_fract_y
 _atom_site_fract_z
 _atom_site_occupancy
 _atom_site_charge
Ni  Ni1  1  0.00000000  0.66253000  0.33747000  1.0 0.1730403047
Ni  Ni2  1  0.66253000  0.33747000  0.00000000  1.0 0.1730403047
Ni  Ni3  1  0.33747000  0.00000000  0.66253000  1.0 0.1730403047
H  H1  1  0.47740000  0.18743000  0.96071000  1.0 0.1177853175
H  H2  1  0.68961000  0.12837000  0.73989000  1.0 0.1102658973
H  H3  1  0.03890000  0.44521000  0.44846000  1.0 0.0996623995
H  H4  1  0.98200000  0.64226000  0.22820000  1.0 0.0996623995
H  H5  1  0.78524000  0.19821000  0.66743000  1.0 0.1177853175
H  H6  1  0.57415000  0.11429000  0.03255000  1.0 0.1102658973
H  H7  1  0.87723000  0.87659000  0.23637000  1.0 0.0902555266
H  H8  1  0.80270000  0.68562000  0.42459000  1.0 0.0996623995
H  H9  1  0.96159000  0.35523000  0.52843000  1.0 0.1390388425
H  H10  1  0.79504000  0.96933000  0.14645000  1.0 0.1289052178
H  H11  1  0.88096000  0.72581000  0.16043000  1.0 0.1289052178
H  H12  1  0.54648000  0.45777000  0.66111000  1.0 0.1102658973
H  H13  1  0.45340000  0.38819000  0.72988000  1.0 0.1177853175
H  H14  1  0.71400000  0.60435000  0.51301000  1.0 0.1289052178
H  H15  1  0.64429000  0.94557000  0.91854000  1.0 0.1177853175
H  H16  1  0.74164000  0.87379000  0.98584000  1.0 0.1177853175
H  H17  1  0.52260000  0.03929000  0.81257000  1.0 0.1177853175
H  H18  1  0.31039000  0.26011000  0.87163000  1.0 0.1102658973
H  H19  1  0.96110000  0.55154000  0.55479000  1.0 0.0996623995
H  H20  1  0.01800000  0.77180000  0.35774000  1.0 0.0996623995
H  H21  1  0.21476000  0.33257000  0.80179000  1.0 0.1177853175
H  H22  1  0.42585000  0.96745000  0.88571000  1.0 0.1102658973
H  H23  1  0.12277000  0.76363000  0.12341000  1.0 0.0902555266
H  H24  1  0.19730000  0.57541000  0.31438000  1.0 0.0996623995
H  H25  1  0.03841000  0.47157000  0.64477000  1.0 0.1390388425
H  H26  1  0.20496000  0.85355000  0.03067000  1.0 0.1289052178
H  H27  1  0.11904000  0.83957000  0.27419000  1.0 0.1390388425
H  H28  1  0.45352000  0.33889000  0.54223000  1.0 0.1102658973
H  H29  1  0.54660000  0.27012000  0.61181000  1.0 0.1177853175
H  H30  1  0.28600000  0.48699000  0.39565000  1.0 0.1289052178
H  H31  1  0.35571000  0.08146000  0.05443000  1.0 0.1177853175
H  H32  1  0.25836000  0.01416000  0.12621000  1.0 0.1177853175
H  H33  1  0.18743000  0.96071000  0.47740000  1.0 0.1177853175
H  H34  1  0.12837000  0.73989000  0.68961000  1.0 0.1102658973
H  H35  1  0.44521000  0.44846000  0.03890000  1.0 0.0996623995
H  H36  1  0.64226000  0.22820000  0.98200000  1.0 0.0996623995
H  H37  1  0.19821000  0.66743000  0.78524000  1.0 0.1177853175
H  H38  1  0.11429000  0.03255000  0.57415000  1.0 0.1102658973
H  H39  1  0.87659000  0.23637000  0.87723000  1.0 0.0902555266
H  H40  1  0.68562000  0.42459000  0.80270000  1.0 0.0996623995
H  H41  1  0.35523000  0.52843000  0.96159000  1.0 0.1390388425
H  H42  1  0.96933000  0.14645000  0.79504000  1.0 0.1289052178
H  H43  1  0.72581000  0.16043000  0.88096000  1.0 0.1289052178
H  H44  1  0.45777000  0.66111000  0.54648000  1.0 0.1102658973
H  H45  1  0.38819000  0.72988000  0.45340000  1.0 0.1177853175
H  H46  1  0.60435000  0.51301000  0.71400000  1.0 0.1289052178
H  H47  1  0.94557000  0.91854000  0.64429000  1.0 0.1177853175
H  H48  1  0.87379000  0.98584000  0.74164000  1.0 0.1177853175
H  H49  1  0.03929000  0.81257000  0.52260000  1.0 0.1177853175
H  H50  1  0.26011000  0.87163000  0.31039000  1.0 0.1102658973
H  H51  1  0.55154000  0.55479000  0.96110000  1.0 0.0996623995
H  H52  1  0.77180000  0.35774000  0.01800000  1.0 0.0996623995
H  H53  1  0.33257000  0.80179000  0.21476000  1.0 0.1177853175
H  H54  1  0.96745000  0.88571000  0.42585000  1.0 0.1102658973
H  H55  1  0.76363000  0.12341000  0.12277000  1.0 0.0902555266
H  H56  1  0.57541000  0.31438000  0.19730000  1.0 0.0996623995
H  H57  1  0.47157000  0.64477000  0.03841000  1.0 0.1390388425
H  H58  1  0.85355000  0.03067000  0.20496000  1.0 0.1289052178
H  H59  1  0.83957000  0.27419000  0.11904000  1.0 0.1289052178
H  H60  1  0.33889000  0.54223000  0.45352000  1.0 0.1102658973
H  H61  1  0.27012000  0.61181000  0.54660000  1.0 0.1177853175
H  H62  1  0.48699000  0.39565000  0.28600000  1.0 0.1289052178
H  H63  1  0.08146000  0.05443000  0.35571000  1.0 0.1177853175
H  H64  1  0.01416000  0.12621000  0.25836000  1.0 0.1177853175
H  H65  1  0.96071000  0.47740000  0.18743000  1.0 0.1177853175
H  H66  1  0.73989000  0.68961000  0.12837000  1.0 0.1102658973
H  H67  1  0.44846000  0.03890000  0.44521000  1.0 0.0996623995
H  H68  1  0.22820000  0.98200000  0.64226000  1.0 0.0996623995
H  H69  1  0.66743000  0.78524000  0.19821000  1.0 0.1177853175
H  H70  1  0.03255000  0.57415000  0.11429000  1.0 0.1102658973
H  H71  1  0.23637000  0.87723000  0.87659000  1.0 0.0902555266
H  H72  1  0.42459000  0.80270000  0.68562000  1.0 0.0996623995
H  H73  1  0.52843000  0.96159000  0.35523000  1.0 0.1390388425
H  H74  1  0.14645000  0.79504000  0.96933000  1.0 0.1289052178
H  H75  1  0.16043000  0.88096000  0.72581000  1.0 0.1390388425
H  H76  1  0.66111000  0.54648000  0.45777000  1.0 0.1102658973
H  H77  1  0.72988000  0.45340000  0.38819000  1.0 0.1177853175
H  H78  1  0.51301000  0.71400000  0.60435000  1.0 0.1289052178
H  H79  1  0.91854000  0.64429000  0.94557000  1.0 0.1177853175
H  H80  1  0.98584000  0.74164000  0.87379000  1.0 0.1177853175
H  H81  1  0.81257000  0.52260000  0.03929000  1.0 0.1177853175
H  H82  1  0.87163000  0.31039000  0.26011000  1.0 0.1102658973
H  H83  1  0.55479000  0.96110000  0.55154000  1.0 0.0996623995
H  H84  1  0.35774000  0.01800000  0.77180000  1.0 0.0996623995
H  H85  1  0.80179000  0.21476000  0.33257000  1.0 0.1177853175
H  H86  1  0.88571000  0.42585000  0.96745000  1.0 0.1102658973
H  H87  1  0.12341000  0.12277000  0.76363000  1.0 0.0902555266
H  H88  1  0.31438000  0.19730000  0.57541000  1.0 0.0996623995
H  H89  1  0.64477000  0.03841000  0.47157000  1.0 0.1390388425
H  H90  1  0.03067000  0.20496000  0.85355000  1.0 0.1289052178
H  H91  1  0.27419000  0.11904000  0.83957000  1.0 0.1289052178
H  H92  1  0.54223000  0.45352000  0.33889000  1.0 0.1102658973
H  H93  1  0.61181000  0.54660000  0.27012000  1.0 0.1177853175
H  H94  1  0.39565000  0.28600000  0.48699000  1.0 0.1289052178
H  H95  1  0.05443000  0.35571000  0.08146000  1.0 0.1177853175
H  H96  1  0.12621000  0.25836000  0.01416000  1.0 0.1177853175
C  C1  1  0.53038000  0.12438000  0.96558000  1.0 -0.1559533944
C  C2  1  0.67484000  0.33424000  0.65914000  1.0 0.1177853175
C  C3  1  0.55348000  0.07468000  0.93128000  1.0 0.0736236091
C  C4  1  0.66032000  0.19542000  0.72422000  1.0 -0.1483390416
C  C5  1  0.97236000  0.47826000  0.46036000  1.0 0.0612573925
C  C6  1  0.93788000  0.70908000  0.21698000  1.0 0.0121508207
C  C7  1  0.71747000  0.23687000  0.68127000  1.0 -0.1483390416
C  C8  1  0.58858000  0.07888000  0.01018000  1.0 -0.1390404446
C  C9  1  0.82751000  0.46971000  0.53141000  1.0 0.1643677693
C  C10  1  0.88030000  0.84470000  0.21910000  1.0 0.0612573925
C  C11  1  0.82729000  0.85539000  0.14559000  1.0 0.1730403047
C  C12  1  0.83479000  0.61609000  0.44879000  1.0 0.0371270667
C  C13  1  0.92620000  0.42410000  0.50950000  1.0 -0.217676335
C  C14  1  0.71820000  0.94710000  0.06190000  1.0 -0.097206943
C  C15  1  0.82929000  0.90019000  0.16749000  1.0 -0.2273556698
C  C16  1  0.88122000  0.75992000  0.17222000  1.0 -0.1713428457
C  C17  1  0.57598000  0.39038000  0.67738000  1.0 -0.1559533944
C  C18  1  0.56208000  0.25058000  0.74408000  1.0 0.0736236091
C  C19  1  0.52055000  0.34885000  0.71875000  1.0 -0.1390404446
C  C20  1  0.78133000  0.56923000  0.49973000  1.0 -0.2050865401
C  C21  1  0.63072000  0.98022000  0.94112000  1.0 -0.1559533944
C  C22  1  0.73129000  0.37779000  0.61689000  1.0 -0.097206943
C  C23  1  0.77831000  0.41261000  0.58221000  1.0 -0.1072447483
C  C24  1  0.68761000  0.93611000  0.98261000  1.0 -0.1390404446
C  C25  1  0.76202000  0.91092000  0.10472000  1.0 -0.1176187355
C  C26  1  0.66100000  0.98980000  0.02090000  1.0 0.1289052178
C  C27  1  0.46962000  0.03442000  0.87562000  1.0 -0.1559533944
C  C28  1  0.32516000  0.34086000  0.66576000  1.0 0.1177853175
C  C29  1  0.44652000  0.06872000  0.92532000  1.0 0.0736236091
C  C30  1  0.33968000  0.27578000  0.80458000  1.0 -0.1483390416
C  C31  1  0.02764000  0.53964000  0.52174000  1.0 0.0612573925
C  C32  1  0.06212000  0.78302000  0.29092000  1.0 0.0121508207
C  C33  1  0.28253000  0.31873000  0.76313000  1.0 -0.1483390416
C  C34  1  0.41142000  0.98982000  0.92112000  1.0 -0.1390404446
C  C35  1  0.17249000  0.46859000  0.53029000  1.0 0.1643677693
C  C36  1  0.11970000  0.78090000  0.15530000  1.0 0.0612573925
C  C37  1  0.17271000  0.85441000  0.14461000  1.0 0.1730403047
C  C38  1  0.16521000  0.55121000  0.38391000  1.0 0.0371270667
C  C39  1  0.07380000  0.49050000  0.57590000  1.0 -0.217676335
C  C40  1  0.28180000  0.93810000  0.05290000  1.0 -0.097206943
C  C41  1  0.17071000  0.83251000  0.09981000  1.0 -0.2273556698
C  C42  1  0.11878000  0.82778000  0.24008000  1.0 -0.1713428457
C  C43  1  0.42402000  0.32262000  0.60962000  1.0 -0.1559533944
C  C44  1  0.43792000  0.25592000  0.74942000  1.0 0.0736236091
C  C45  1  0.47945000  0.28125000  0.65115000  1.0 -0.1390404446
C  C46  1  0.21867000  0.50027000  0.43077000  1.0 -0.2050865401
C  C47  1  0.36928000  0.05888000  0.01978000  1.0 -0.1483390416
C  C48  1  0.26871000  0.38311000  0.62221000  1.0 -0.097206943
C  C49  1  0.22169000  0.41779000  0.58739000  1.0 -0.1072447483
C  C50  1  0.31239000  0.01739000  0.06389000  1.0 -0.1390404446
C  C51  1  0.23798000  0.89528000  0.08908000  1.0 -0.1176187355
C  C52  1  0.33900000  0.97910000  0.01020000  1.0 0.1289052178
C  C53  1  0.50000000  0.12093000  0.87907000  1.0 -0.0160964423
C  C54  1  0.50000000  0.20793000  0.79207000  1.0 -0.0273827739
C  C55  1  0.12438000  0.96558000  0.53038000  1.0 -0.1559533944
C  C56  1  0.33424000  0.65914000  0.67484000  1.0 0.1177853175
C  C57  1  0.07468000  0.93128000  0.55348000  1.0 0.0736236091
C  C58  1  0.19542000  0.72422000  0.66032000  1.0 -0.1483390416
C  C59  1  0.47826000  0.46036000  0.97236000  1.0 0.0612573925
C  C60  1  0.70908000  0.21698000  0.93788000  1.0 0.0121508207
C  C61  1  0.23687000  0.68127000  0.71747000  1.0 -0.1483390416
C  C62  1  0.07888000  0.01018000  0.58858000  1.0 -0.1390404446
C  C63  1  0.46971000  0.53141000  0.82751000  1.0 0.1643677693
C  C64  1  0.84470000  0.21910000  0.88030000  1.0 0.0612573925
C  C65  1  0.85539000  0.14559000  0.82729000  1.0 0.1730403047
C  C66  1  0.61609000  0.44879000  0.83479000  1.0 0.0371270667
C  C67  1  0.42410000  0.50950000  0.92620000  1.0 -0.217676335
C  C68  1  0.94710000  0.06190000  0.71820000  1.0 -0.097206943
C  C69  1  0.90019000  0.16749000  0.82929000  1.0 -0.2273556698
C  C70  1  0.75992000  0.17222000  0.88122000  1.0 -0.1713428457
C  C71  1  0.39038000  0.67738000  0.57598000  1.0 -0.1559533944
C  C72  1  0.25058000  0.74408000  0.56208000  1.0 0.0736236091
C  C73  1  0.34885000  0.71875000  0.52055000  1.0 -0.1390404446
C  C74  1  0.56923000  0.49973000  0.78133000  1.0 -0.2050865401
C  C75  1  0.98022000  0.94112000  0.63072000  1.0 -0.1559533944
C  C76  1  0.37779000  0.61689000  0.73129000  1.0 -0.097206943
C  C77  1  0.41261000  0.58221000  0.77831000  1.0 -0.1072447483
C  C78  1  0.93611000  0.98261000  0.68761000  1.0 -0.1390404446
C  C79  1  0.91092000  0.10472000  0.76202000  1.0 -0.1176187355
C  C80  1  0.98980000  0.02090000  0.66100000  1.0 0.1289052178
C  C81  1  0.03442000  0.87562000  0.46962000  1.0 -0.1559533944
C  C82  1  0.34086000  0.66576000  0.32516000  1.0 0.1177853175
C  C83  1  0.06872000  0.92532000  0.44652000  1.0 0.0736236091
C  C84  1  0.27578000  0.80458000  0.33968000  1.0 -0.1483390416
C  C85  1  0.53964000  0.52174000  0.02764000  1.0 0.0612573925
C  C86  1  0.78302000  0.29092000  0.06212000  1.0 0.0121508207
C  C87  1  0.31873000  0.76313000  0.28253000  1.0 -0.1483390416
C  C88  1  0.98982000  0.92112000  0.41142000  1.0 -0.1390404446
C  C89  1  0.46859000  0.53029000  0.17249000  1.0 0.1643677693
C  C90  1  0.78090000  0.15530000  0.11970000  1.0 0.0612573925
C  C91  1  0.85441000  0.14461000  0.17271000  1.0 0.1730403047
C  C92  1  0.55121000  0.38391000  0.16521000  1.0 0.0371270667
C  C93  1  0.49050000  0.57590000  0.07380000  1.0 -0.217676335
C  C94  1  0.93810000  0.05290000  0.28180000  1.0 -0.097206943
C  C95  1  0.83251000  0.09981000  0.17071000  1.0 -0.2273556698
C  C96  1  0.82778000  0.24008000  0.11878000  1.0 -0.1713428457
C  C97  1  0.32262000  0.60962000  0.42402000  1.0 -0.1559533944
C  C98  1  0.25592000  0.74942000  0.43792000  1.0 0.0736236091
C  C99  1  0.28125000  0.65115000  0.47945000  1.0 -0.1390404446
C  C100  1  0.50027000  0.43077000  0.21867000  1.0 -0.2050865401
C  C101  1  0.05888000  0.01978000  0.36928000  1.0 -0.1559533944
C  C102  1  0.38311000  0.62221000  0.26871000  1.0 -0.097206943
C  C103  1  0.41779000  0.58739000  0.22169000  1.0 -0.1072447483
C  C104  1  0.01739000  0.06389000  0.31239000  1.0 -0.1390404446
C  C105  1  0.89528000  0.08908000  0.23798000  1.0 -0.1176187355
C  C106  1  0.97910000  0.01020000  0.33900000  1.0 0.1289052178
C  C107  1  0.12093000  0.87907000  0.50000000  1.0 -0.0160964423
C  C108  1  0.20793000  0.79207000  0.50000000  1.0 -0.0273827739
C  C109  1  0.96558000  0.53038000  0.12438000  1.0 -0.1559533944
C  C110  1  0.65914000  0.67484000  0.33424000  1.0 0.1177853175
C  C111  1  0.93128000  0.55348000  0.07468000  1.0 0.0736236091
C  C112  1  0.72422000  0.66032000  0.19542000  1.0 -0.1483390416
C  C113  1  0.46036000  0.97236000  0.47826000  1.0 0.0612573925
C  C114  1  0.21698000  0.93788000  0.70908000  1.0 0.0121508207
C  C115  1  0.68127000  0.71747000  0.23687000  1.0 -0.1483390416
C  C116  1  0.01018000  0.58858000  0.07888000  1.0 -0.1390404446
C  C117  1  0.53141000  0.82751000  0.46971000  1.0 0.1643677693
C  C118  1  0.21910000  0.88030000  0.84470000  1.0 0.0612573925
C  C119  1  0.14559000  0.82729000  0.85539000  1.0 0.1730403047
C  C120  1  0.44879000  0.83479000  0.61609000  1.0 0.0371270667
C  C121  1  0.50950000  0.92620000  0.42410000  1.0 -0.217676335
C  C122  1  0.06190000  0.71820000  0.94710000  1.0 -0.097206943
C  C123  1  0.16749000  0.82929000  0.90019000  1.0 -0.2273556698
C  C124  1  0.17222000  0.88122000  0.75992000  1.0 -0.1713428457
C  C125  1  0.67738000  0.57598000  0.39038000  1.0 -0.1559533944
C  C126  1  0.74408000  0.56208000  0.25058000  1.0 0.0736236091
C  C127  1  0.71875000  0.52055000  0.34885000  1.0 -0.1390404446
C  C128  1  0.49973000  0.78133000  0.56923000  1.0 -0.2050865401
C  C129  1  0.94112000  0.63072000  0.98022000  1.0 -0.1559533944
C  C130  1  0.61689000  0.73129000  0.37779000  1.0 -0.097206943
C  C131  1  0.58221000  0.77831000  0.41261000  1.0 -0.1072447483
C  C132  1  0.98261000  0.68761000  0.93611000  1.0 -0.1390404446
C  C133  1  0.10472000  0.76202000  0.91092000  1.0 -0.1176187355
C  C134  1  0.02090000  0.66100000  0.98980000  1.0 0.1289052178
C  C135  1  0.87562000  0.46962000  0.03442000  1.0 -0.1559533944
C  C136  1  0.66576000  0.32516000  0.34086000  1.0 0.1177853175
C  C137  1  0.92532000  0.44652000  0.06872000  1.0 0.0736236091
C  C138  1  0.80458000  0.33968000  0.27578000  1.0 -0.1483390416
C  C139  1  0.52174000  0.02764000  0.53964000  1.0 0.0612573925
C  C140  1  0.29092000  0.06212000  0.78302000  1.0 0.0121508207
C  C141  1  0.76313000  0.28253000  0.31873000  1.0 -0.1483390416
C  C142  1  0.92112000  0.41142000  0.98982000  1.0 -0.1390404446
C  C143  1  0.53029000  0.17249000  0.46859000  1.0 0.1643677693
C  C144  1  0.15530000  0.11970000  0.78090000  1.0 0.0612573925
C  C145  1  0.14461000  0.17271000  0.85441000  1.0 0.1730403047
C  C146  1  0.38391000  0.16521000  0.55121000  1.0 0.0371270667
C  C147  1  0.57590000  0.07380000  0.49050000  1.0 -0.217676335
C  C148  1  0.05290000  0.28180000  0.93810000  1.0 -0.097206943
C  C149  1  0.09981000  0.17071000  0.83251000  1.0 -0.2273556698
C  C150  1  0.24008000  0.11878000  0.82778000  1.0 -0.1713428457
C  C151  1  0.60962000  0.42402000  0.32262000  1.0 -0.1559533944
C  C152  1  0.74942000  0.43792000  0.25592000  1.0 0.0736236091
C  C153  1  0.65115000  0.47945000  0.28125000  1.0 -0.1390404446
C  C154  1  0.43077000  0.21867000  0.50027000  1.0 -0.2050865401
C  C155  1  0.01978000  0.36928000  0.05888000  1.0 -0.1559533944
C  C156  1  0.62221000  0.26871000  0.38311000  1.0 -0.097206943
C  C157  1  0.58739000  0.22169000  0.41779000  1.0 -0.1072447483
C  C158  1  0.06389000  0.31239000  0.01739000  1.0 -0.1390404446
C  C159  1  0.08908000  0.23798000  0.89528000  1.0 -0.1176187355
C  C160  1  0.01020000  0.33900000  0.97910000  1.0 0.1289052178
C  C161  1  0.87907000  0.50000000  0.12093000  1.0 -0.0160964423
C  C162  1  0.79207000  0.50000000  0.20793000  1.0 -0.0273827739
N  N1  1  0.93208000  0.75218000  0.24538000  1.0 -0.1955821175
N  N2  1  0.92865000  0.57315000  0.42955000  1.0 -0.1893070001
N  N3  1  0.06792000  0.75462000  0.24782000  1.0 -0.1955821175
N  N4  1  0.07135000  0.57045000  0.42685000  1.0 -0.1893070001
N  N5  1  0.75218000  0.24538000  0.93208000  1.0 -0.1955821175
N  N6  1  0.57315000  0.42955000  0.92865000  1.0 -0.1893070001
N  N7  1  0.75462000  0.24782000  0.06792000  1.0 -0.1955821175
N  N8  1  0.57045000  0.42685000  0.07135000  1.0 -0.1893070001
N  N9  1  0.24538000  0.93208000  0.75218000  1.0 -0.1955821175
N  N10  1  0.42955000  0.92865000  0.57315000  1.0 -0.1893070001
N  N11  1  0.24782000  0.06792000  0.75462000  1.0 -0.1955821175
N  N12  1  0.42685000  0.07135000  0.57045000  1.0 -0.1893070001
