# DDEC6 charges by PACMAN v1.1 (https://github.com/mtap-research/PACMAN-charge/)
data_OXITOF_FSR_pacman
_symmetry_space_group_name_H-M   'P 1'
_cell_length_a   7.33100000
_cell_length_b   11.90100000
_cell_length_c   15.83800000
_cell_angle_alpha   103.50000000
_cell_angle_beta   100.46000000
_cell_angle_gamma   104.75000000
_symmetry_Int_Tables_number   1
_chemical_formula_structural   Co2H12C17O13
_chemical_formula_sum   'Co4 H24 C34 O26'
_cell_volume   1255.95437066
_cell_formula_units_Z   2
loop_
 _symmetry_equiv_pos_site_id
 _symmetry_equiv_pos_as_xyz
  1  'x, y, z'
loop_
 _atom_site_type_symbol
 _atom_site_label
 _atom_site_symmetry_multiplicity
 _atom_site_fract_x
 _atom_site_fract_y
 _atom_site_fract_z
 _atom_site_occupancy
 _atom_site_charge
Co  Co1  1  0.50000000  0.00000000  0.50000000  1.0 1.0914080328
Co  Co2  1  0.97257000  0.04719000  0.66510000  1.0 0.9891515857
Co  Co3  1  0.02743000  0.95281000  0.33490000  1.0 0.9891515857
Co  Co4  1  0.00000000  0.00000000  0.00000000  1.0 1.0964732355
H  H1  1  0.99900000  0.84560000  0.04040000  1.0 0.2649635858
H  H2  1  0.00100000  0.15440000  0.95960000  1.0 0.2649635858
H  H3  1  0.82890000  0.77430000  0.02980000  1.0 0.3051375634
H  H4  1  0.17110000  0.22570000  0.97020000  1.0 0.30387016
H  H5  1  0.18300000  0.08570000  0.79560000  1.0 0.2787377126
H  H6  1  0.81700000  0.91430000  0.20440000  1.0 0.2787377126
H  H7  1  0.08940000  0.98670000  0.79020000  1.0 0.2877313382
H  H8  1  0.91060000  0.01330000  0.20980000  1.0 0.2877313382
H  H9  1  0.10010000  0.96800000  0.55990000  1.0 0.3802072889
H  H10  1  0.89990000  0.03200000  0.44010000  1.0 0.3802072889
H  H11  1  0.96290000  0.84320000  0.57210000  1.0 0.385806281
H  H12  1  0.03710000  0.15680000  0.42790000  1.0 0.385806281
H  H13  1  0.20720000  0.74360000  0.57710000  1.0 0.1211160234
H  H14  1  0.79280000  0.25640000  0.42290000  1.0 0.1211160234
H  H15  1  0.96130000  0.41620000  0.64750000  1.0 0.1211160234
H  H16  1  0.03870000  0.58380000  0.35250000  1.0 0.1211160234
H  H17  1  0.41050000  0.69050000  0.85630000  1.0 0.1129897422
H  H18  1  0.58950000  0.30950000  0.14370000  1.0 0.1129897422
H  H19  1  0.30490000  0.38300000  0.61350000  1.0 0.1211160234
H  H20  1  0.69510000  0.61700000  0.38650000  1.0 0.1211160234
H  H21  1  0.08550000  0.60400000  0.77700000  1.0 0.1129897422
H  H22  1  0.91450000  0.39600000  0.22300000  1.0 0.1129897422
H  H23  1  0.51840000  0.55750000  0.60420000  1.0 0.1211160234
H  H24  1  0.48160000  0.44250000  0.39580000  1.0 0.1211160234
C  C1  1  0.11020000  0.66420000  0.66740000  1.0 -0.0277567917
C  C2  1  0.88980000  0.33580000  0.33260000  1.0 -0.0277567917
C  C3  1  0.76460000  0.50580000  0.62560000  1.0 0.011001896
C  C4  1  0.23540000  0.49420000  0.37440000  1.0 0.011001896
C  C5  1  0.24800000  0.73340000  0.63310000  1.0 -0.0971642473
C  C6  1  0.75200000  0.26660000  0.36690000  1.0 -0.0971642473
C  C7  1  0.82920000  0.40850000  0.63880000  1.0 -0.1513065958
C  C8  1  0.17080000  0.59150000  0.36120000  1.0 -0.1513065958
C  C9  1  0.44450000  0.78750000  0.68050000  1.0 -0.0360710994
C  C10  1  0.55550000  0.21250000  0.31950000  1.0 -0.0360710994
C  C11  1  0.69870000  0.29980000  0.63920000  1.0 -0.0118487123
C  C12  1  0.30130000  0.70020000  0.36080000  1.0 -0.0118487123
C  C13  1  0.50700000  0.77020000  0.76500000  1.0 -0.0118487123
C  C14  1  0.49300000  0.22980000  0.23500000  1.0 -0.0118487123
C  C15  1  0.49870000  0.28920000  0.63010000  1.0 -0.0360710994
C  C16  1  0.50130000  0.71080000  0.36990000  1.0 -0.0360710994
C  C17  1  0.36970000  0.70120000  0.80040000  1.0 -0.1066594386
C  C18  1  0.63030000  0.29880000  0.19960000  1.0 -0.1066594386
C  C19  1  0.43540000  0.38850000  0.61850000  1.0 -0.0746707322
C  C20  1  0.56460000  0.61150000  0.38150000  1.0 -0.0746707322
C  C21  1  0.17410000  0.64890000  0.75270000  1.0 -0.0971642473
C  C22  1  0.82590000  0.35110000  0.24730000  1.0 -0.0971642473
C  C23  1  0.56410000  0.49450000  0.61430000  1.0 -0.0937917494
C  C24  1  0.43590000  0.50550000  0.38570000  1.0 -0.0937917494
C  C25  1  0.58040000  0.86720000  0.64140000  1.0 0.6077915615
C  C26  1  0.41960000  0.13280000  0.35860000  1.0 0.6077915615
C  C27  1  0.78530000  0.20000000  0.65230000  1.0 0.5825854725
C  C28  1  0.21470000  0.80000000  0.34770000  1.0 0.5825854725
C  C29  1  0.71480000  0.82110000  0.82170000  1.0 0.5681828446
C  C30  1  0.28520000  0.17890000  0.17830000  1.0 0.5681828446
C  C31  1  0.34990000  0.17380000  0.63010000  1.0 0.6011601276
C  C32  1  0.65010000  0.82620000  0.36990000  1.0 0.6011601276
C  C33  1  0.90010000  0.62090000  0.61810000  1.0 0.3554713613
C  C34  1  0.09990000  0.37910000  0.38190000  1.0 0.3548650927
O  O1  1  0.51690000  0.86580000  0.56100000  1.0 -0.575381022
O  O2  1  0.48310000  0.13420000  0.43900000  1.0 -0.575381022
O  O3  1  0.87810000  0.20640000  0.72940000  1.0 -0.501879383
O  O4  1  0.12190000  0.79360000  0.27060000  1.0 -0.501879383
O  O5  1  0.74500000  0.93220000  0.69380000  1.0 -0.5347530656
O  O6  1  0.25500000  0.06780000  0.30620000  1.0 -0.5347530656
O  O7  1  0.77980000  0.11430000  0.58330000  1.0 -0.600826975
O  O8  1  0.22020000  0.88570000  0.41670000  1.0 -0.600826975
O  O9  1  0.75130000  0.91550000  0.88980000  1.0 -0.600826975
O  O10  1  0.24870000  0.08450000  0.11020000  1.0 -0.600826975
O  O11  1  0.37630000  0.07130000  0.60130000  1.0 -0.5870249086
O  O12  1  0.62370000  0.92870000  0.39870000  1.0 -0.5870249086
O  O13  1  0.83230000  0.76470000  0.80410000  1.0 -0.501879383
O  O14  1  0.16770000  0.23530000  0.19590000  1.0 -0.501879383
O  O15  1  0.20810000  0.18770000  0.66230000  1.0 -0.5581303054
O  O16  1  0.79190000  0.81230000  0.33770000  1.0 -0.5581303054
O  O17  1  0.83500000  0.67760000  0.57050000  1.0 -0.3872052544
O  O18  1  0.16500000  0.32240000  0.42950000  1.0 -0.3872052544
O  O19  1  0.91740000  0.87330000  0.06390000  1.0 -0.648006987
O  O20  1  0.08260000  0.12670000  0.93610000  1.0 -0.648006987
O  O21  1  0.85130000  0.11010000  0.06700000  1.0 0.0890074446
O  O22  1  0.14870000  0.88990000  0.93300000  1.0 0.0890074446
O  O23  1  0.15320000  0.01000000  0.76560000  1.0 -0.5581303054
O  O24  1  0.84680000  0.99000000  0.23440000  1.0 -0.5581303054
O  O25  1  0.98010000  0.91040000  0.55820000  1.0 -0.7119854503
O  O26  1  0.01990000  0.08960000  0.44180000  1.0 -0.7119854503
