# DDEC6 charges by PACMAN v1.1 (https://github.com/mtap-research/PACMAN-charge/)
data_OXOCIQ_ASR_pacman
_symmetry_space_group_name_H-M   'P 1'
_cell_length_a   27.50040000
_cell_length_b   27.50040000
_cell_length_c   27.50040000
_cell_angle_alpha   60.00000000
_cell_angle_beta   60.00000000
_cell_angle_gamma   60.00000000
_symmetry_Int_Tables_number   1
_chemical_formula_structural   Zr3C12(SO8)2
_chemical_formula_sum   'Zr36 C144 S24 O192'
_cell_volume   14706.25304873
_cell_formula_units_Z   12
loop_
 _symmetry_equiv_pos_site_id
 _symmetry_equiv_pos_as_xyz
  1  'x, y, z'
loop_
 _atom_site_type_symbol
 _atom_site_label
 _atom_site_symmetry_multiplicity
 _atom_site_fract_x
 _atom_site_fract_y
 _atom_site_fract_z
 _atom_site_occupancy
 _atom_site_charge
Zr  Zr1  1  0.88539000  0.54933000  0.01595000  1.0 1.9726471452
Zr  Zr2  1  0.01595000  0.54933000  0.88539000  1.0 1.9726471452
Zr  Zr3  1  0.54933000  0.88539000  0.54933000  1.0 1.9726471452
Zr  Zr4  1  0.54933000  0.01595000  0.54933000  1.0 1.9726471452
Zr  Zr5  1  0.54933000  0.01595000  0.88539000  1.0 1.9726471452
Zr  Zr6  1  0.54933000  0.88539000  0.01595000  1.0 1.9756876269
Zr  Zr7  1  0.88539000  0.54933000  0.54933000  1.0 1.9726471452
Zr  Zr8  1  0.01595000  0.54933000  0.54933000  1.0 1.9726471452
Zr  Zr9  1  0.01595000  0.88539000  0.54933000  1.0 1.9726471452
Zr  Zr10  1  0.88539000  0.01595000  0.54933000  1.0 1.9726471452
Zr  Zr11  1  0.54933000  0.54933000  0.88539000  1.0 1.9726471452
Zr  Zr12  1  0.54933000  0.54933000  0.01595000  1.0 1.9726471452
Zr  Zr13  1  0.11461000  0.45067000  0.98405000  1.0 1.9726471452
Zr  Zr14  1  0.98405000  0.45067000  0.11461000  1.0 1.9726471452
Zr  Zr15  1  0.45067000  0.98405000  0.45067000  1.0 1.9726471452
Zr  Zr16  1  0.45067000  0.11461000  0.45067000  1.0 1.9726471452
Zr  Zr17  1  0.45067000  0.45067000  0.11461000  1.0 1.9726471452
Zr  Zr18  1  0.45067000  0.45067000  0.98405000  1.0 1.9726471452
Zr  Zr19  1  0.11461000  0.98405000  0.45067000  1.0 1.9726471452
Zr  Zr20  1  0.98405000  0.11461000  0.45067000  1.0 1.9726471452
Zr  Zr21  1  0.98405000  0.45067000  0.45067000  1.0 1.9726471452
Zr  Zr22  1  0.11461000  0.45067000  0.45067000  1.0 1.9726471452
Zr  Zr23  1  0.45067000  0.98405000  0.11461000  1.0 1.9756876269
Zr  Zr24  1  0.45067000  0.11461000  0.98405000  1.0 1.9726471452
Zr  Zr25  1  0.00000000  0.58894000  0.00000000  1.0 1.7613087484
Zr  Zr26  1  0.00000000  0.41106000  0.00000000  1.0 1.7475471535
Zr  Zr27  1  0.58894000  0.00000000  0.41106000  1.0 1.7613087484
Zr  Zr28  1  0.41106000  0.00000000  0.58894000  1.0 1.7613087484
Zr  Zr29  1  0.58894000  0.00000000  0.00000000  1.0 1.7475471535
Zr  Zr30  1  0.41106000  0.00000000  0.00000000  1.0 1.7475471535
Zr  Zr31  1  0.00000000  0.41106000  0.58894000  1.0 1.7613087484
Zr  Zr32  1  0.00000000  0.58894000  0.41106000  1.0 1.7475471535
Zr  Zr33  1  0.00000000  0.00000000  0.58894000  1.0 1.7613087484
Zr  Zr34  1  0.00000000  0.00000000  0.41106000  1.0 1.7613087484
Zr  Zr35  1  0.41106000  0.58894000  0.00000000  1.0 1.7613087484
Zr  Zr36  1  0.58894000  0.41106000  0.00000000  1.0 1.7613087484
C  C1  1  0.01368000  0.67464000  0.87304000  1.0 0.6674352115
C  C2  1  0.00146000  0.73144000  0.82138000  1.0 -0.1456593643
C  C3  1  0.00205000  0.77749000  0.82703000  1.0 -0.0620569705
C  C4  1  0.87304000  0.43864000  0.01368000  1.0 0.6674352115
C  C5  1  0.82138000  0.44572000  0.00146000  1.0 -0.1456593643
C  C6  1  0.82703000  0.39343000  0.00205000  1.0 -0.0620569705
C  C7  1  0.67464000  0.01368000  0.43864000  1.0 0.6674352115
C  C8  1  0.73144000  0.00146000  0.44572000  1.0 -0.1426941175
C  C9  1  0.77749000  0.00205000  0.39343000  1.0 -0.0620569705
C  C10  1  0.43864000  0.87304000  0.67464000  1.0 0.6674352115
C  C11  1  0.44572000  0.82138000  0.73144000  1.0 -0.1426941175
C  C12  1  0.39343000  0.82703000  0.77749000  1.0 -0.0620569705
C  C13  1  0.67464000  0.87304000  0.01368000  1.0 0.6674352115
C  C14  1  0.73144000  0.82138000  0.00146000  1.0 -0.1426941175
C  C15  1  0.77749000  0.82703000  0.00205000  1.0 -0.0620569705
C  C16  1  0.43864000  0.01368000  0.87304000  1.0 0.6674352115
C  C17  1  0.44572000  0.00146000  0.82138000  1.0 -0.1456593643
C  C18  1  0.39343000  0.00205000  0.82703000  1.0 -0.0620569705
C  C19  1  0.01368000  0.43864000  0.67464000  1.0 0.6674352115
C  C20  1  0.00146000  0.44572000  0.73144000  1.0 -0.1426941175
C  C21  1  0.00205000  0.39343000  0.77749000  1.0 -0.0620569705
C  C22  1  0.87304000  0.67464000  0.43864000  1.0 0.6674352115
C  C23  1  0.82138000  0.73144000  0.44572000  1.0 -0.1426941175
C  C24  1  0.82703000  0.77749000  0.39343000  1.0 -0.0620569705
C  C25  1  0.87304000  0.01368000  0.67464000  1.0 0.6674352115
C  C26  1  0.82138000  0.00146000  0.73144000  1.0 -0.1426941175
C  C27  1  0.82703000  0.00205000  0.77749000  1.0 -0.0620569705
C  C28  1  0.01368000  0.87304000  0.43864000  1.0 0.6674352115
C  C29  1  0.00146000  0.82138000  0.44572000  1.0 -0.1456593643
C  C30  1  0.00205000  0.82703000  0.39343000  1.0 -0.0620569705
C  C31  1  0.43864000  0.67464000  0.01368000  1.0 0.6674352115
C  C32  1  0.44572000  0.73144000  0.00146000  1.0 -0.1426941175
C  C33  1  0.39343000  0.77749000  0.00205000  1.0 -0.0620569705
C  C34  1  0.67464000  0.43864000  0.87304000  1.0 0.6674352115
C  C35  1  0.73144000  0.44572000  0.82138000  1.0 -0.1426941175
C  C36  1  0.77749000  0.39343000  0.82703000  1.0 -0.0660399347
C  C37  1  0.98632000  0.56136000  0.12696000  1.0 0.6674352115
C  C38  1  0.99854000  0.55428000  0.17862000  1.0 -0.1426941175
C  C39  1  0.99795000  0.60657000  0.17297000  1.0 -0.0660399347
C  C40  1  0.12696000  0.32536000  0.98632000  1.0 0.6674352115
C  C41  1  0.17862000  0.26856000  0.99854000  1.0 -0.1456593643
C  C42  1  0.17297000  0.22251000  0.99795000  1.0 -0.0620569705
C  C43  1  0.32536000  0.12696000  0.56136000  1.0 0.6674352115
C  C44  1  0.26856000  0.17862000  0.55428000  1.0 -0.1426941175
C  C45  1  0.22251000  0.17297000  0.60657000  1.0 -0.0620569705
C  C46  1  0.56136000  0.98632000  0.32536000  1.0 0.6674352115
C  C47  1  0.55428000  0.99854000  0.26856000  1.0 -0.1426941175
C  C48  1  0.60657000  0.99795000  0.22251000  1.0 -0.0620569705
C  C49  1  0.32536000  0.56136000  0.98632000  1.0 0.6674352115
C  C50  1  0.26856000  0.55428000  0.99854000  1.0 -0.1456593643
C  C51  1  0.22251000  0.60657000  0.99795000  1.0 -0.0620569705
C  C52  1  0.56136000  0.32536000  0.12696000  1.0 0.6674352115
C  C53  1  0.55428000  0.26856000  0.17862000  1.0 -0.1426941175
C  C54  1  0.60657000  0.22251000  0.17297000  1.0 -0.0620569705
C  C55  1  0.98632000  0.12696000  0.32536000  1.0 0.6674352115
C  C56  1  0.99854000  0.17862000  0.26856000  1.0 -0.1426941175
C  C57  1  0.99795000  0.17297000  0.22251000  1.0 -0.0620569705
C  C58  1  0.12696000  0.98632000  0.56136000  1.0 0.6674352115
C  C59  1  0.17862000  0.99854000  0.55428000  1.0 -0.1426941175
C  C60  1  0.17297000  0.99795000  0.60657000  1.0 -0.0620569705
C  C61  1  0.12696000  0.56136000  0.32536000  1.0 0.6674352115
C  C62  1  0.17862000  0.55428000  0.26856000  1.0 -0.1426941175
C  C63  1  0.17297000  0.60657000  0.22251000  1.0 -0.0620569705
C  C64  1  0.98632000  0.32536000  0.56136000  1.0 0.6674352115
C  C65  1  0.99854000  0.26856000  0.55428000  1.0 -0.1426941175
C  C66  1  0.99795000  0.22251000  0.60657000  1.0 -0.0620569705
C  C67  1  0.56136000  0.12696000  0.98632000  1.0 0.6674352115
C  C68  1  0.55428000  0.17862000  0.99854000  1.0 -0.1426941175
C  C69  1  0.60657000  0.17297000  0.99795000  1.0 -0.0620569705
C  C70  1  0.32536000  0.98632000  0.12696000  1.0 0.6674352115
C  C71  1  0.26856000  0.99854000  0.17862000  1.0 -0.1456593643
C  C72  1  0.22251000  0.99795000  0.17297000  1.0 -0.0620569705
C  C73  1  0.98632000  0.32536000  0.12696000  1.0 0.6674352115
C  C74  1  0.99854000  0.26856000  0.17862000  1.0 -0.1426941175
C  C75  1  0.99795000  0.22251000  0.17297000  1.0 -0.0620569705
C  C76  1  0.12696000  0.56136000  0.98632000  1.0 0.6674352115
C  C77  1  0.17862000  0.55428000  0.99854000  1.0 -0.1426941175
C  C78  1  0.17297000  0.60657000  0.99795000  1.0 -0.0620569705
C  C79  1  0.32536000  0.98632000  0.56136000  1.0 0.6674352115
C  C80  1  0.26856000  0.99854000  0.55428000  1.0 -0.1426941175
C  C81  1  0.22251000  0.99795000  0.60657000  1.0 -0.0620569705
C  C82  1  0.56136000  0.12696000  0.32536000  1.0 0.6674352115
C  C83  1  0.55428000  0.17862000  0.26856000  1.0 -0.1426941175
C  C84  1  0.60657000  0.17297000  0.22251000  1.0 -0.0620569705
C  C85  1  0.32536000  0.12696000  0.98632000  1.0 0.6674352115
C  C86  1  0.26856000  0.17862000  0.99854000  1.0 -0.1426941175
C  C87  1  0.22251000  0.17297000  0.99795000  1.0 -0.0620569705
C  C88  1  0.56136000  0.98632000  0.12696000  1.0 0.6674352115
C  C89  1  0.55428000  0.99854000  0.17862000  1.0 -0.1426941175
C  C90  1  0.60657000  0.99795000  0.17297000  1.0 -0.0620569705
C  C91  1  0.98632000  0.56136000  0.32536000  1.0 0.6674352115
C  C92  1  0.99854000  0.55428000  0.26856000  1.0 -0.1426941175
C  C93  1  0.99795000  0.60657000  0.22251000  1.0 -0.0620569705
C  C94  1  0.12696000  0.32536000  0.56136000  1.0 0.6674352115
C  C95  1  0.17862000  0.26856000  0.55428000  1.0 -0.1426941175
C  C96  1  0.17297000  0.22251000  0.60657000  1.0 -0.0620569705
C  C97  1  0.12696000  0.98632000  0.32536000  1.0 0.6674352115
C  C98  1  0.17862000  0.99854000  0.26856000  1.0 -0.1456593643
C  C99  1  0.17297000  0.99795000  0.22251000  1.0 -0.0620569705
C  C100  1  0.98632000  0.12696000  0.56136000  1.0 0.6674352115
C  C101  1  0.99854000  0.17862000  0.55428000  1.0 -0.1426941175
C  C102  1  0.99795000  0.17297000  0.60657000  1.0 -0.0620569705
C  C103  1  0.56136000  0.32536000  0.98632000  1.0 0.6674352115
C  C104  1  0.55428000  0.26856000  0.99854000  1.0 -0.1426941175
C  C105  1  0.60657000  0.22251000  0.99795000  1.0 -0.0620569705
C  C106  1  0.32536000  0.56136000  0.12696000  1.0 0.6674352115
C  C107  1  0.26856000  0.55428000  0.17862000  1.0 -0.1426941175
C  C108  1  0.22251000  0.60657000  0.17297000  1.0 -0.0620569705
C  C109  1  0.01368000  0.43864000  0.87304000  1.0 0.6674352115
C  C110  1  0.00146000  0.44572000  0.82138000  1.0 -0.1426941175
C  C111  1  0.00205000  0.39343000  0.82703000  1.0 -0.0620569705
C  C112  1  0.87304000  0.67464000  0.01368000  1.0 0.6674352115
C  C113  1  0.82138000  0.73144000  0.00146000  1.0 -0.1426941175
C  C114  1  0.82703000  0.77749000  0.00205000  1.0 -0.0620569705
C  C115  1  0.67464000  0.87304000  0.43864000  1.0 0.6674352115
C  C116  1  0.73144000  0.82138000  0.44572000  1.0 -0.1426941175
C  C117  1  0.77749000  0.82703000  0.39343000  1.0 -0.0620569705
C  C118  1  0.43864000  0.01368000  0.67464000  1.0 0.6674352115
C  C119  1  0.44572000  0.00146000  0.73144000  1.0 -0.1456593643
C  C120  1  0.39343000  0.00205000  0.77749000  1.0 -0.0620569705
C  C121  1  0.67464000  0.43864000  0.01368000  1.0 0.6674352115
C  C122  1  0.73144000  0.44572000  0.00146000  1.0 -0.1426941175
C  C123  1  0.77749000  0.39343000  0.00205000  1.0 -0.0620569705
C  C124  1  0.43864000  0.67464000  0.87304000  1.0 0.6674352115
C  C125  1  0.44572000  0.73144000  0.82138000  1.0 -0.1456593643
C  C126  1  0.39343000  0.77749000  0.82703000  1.0 -0.0620569705
C  C127  1  0.01368000  0.87304000  0.67464000  1.0 0.6674352115
C  C128  1  0.00146000  0.82138000  0.73144000  1.0 -0.1426941175
C  C129  1  0.00205000  0.82703000  0.77749000  1.0 -0.0620569705
C  C130  1  0.87304000  0.01368000  0.43864000  1.0 0.6674352115
C  C131  1  0.82138000  0.00146000  0.44572000  1.0 -0.1426941175
C  C132  1  0.82703000  0.00205000  0.39343000  1.0 -0.0620569705
C  C133  1  0.87304000  0.43864000  0.67464000  1.0 0.6674352115
C  C134  1  0.82138000  0.44572000  0.73144000  1.0 -0.1426941175
C  C135  1  0.82703000  0.39343000  0.77749000  1.0 -0.0620569705
C  C136  1  0.01368000  0.67464000  0.43864000  1.0 0.6674352115
C  C137  1  0.00146000  0.73144000  0.44572000  1.0 -0.1456593643
C  C138  1  0.00205000  0.77749000  0.39343000  1.0 -0.0620569705
C  C139  1  0.43864000  0.87304000  0.01368000  1.0 0.6674352115
C  C140  1  0.44572000  0.82138000  0.00146000  1.0 -0.1426941175
C  C141  1  0.39343000  0.82703000  0.00205000  1.0 -0.0620569705
C  C142  1  0.67464000  0.01368000  0.87304000  1.0 0.6674352115
C  C143  1  0.73144000  0.00146000  0.82138000  1.0 -0.1426941175
C  C144  1  0.77749000  0.00205000  0.82703000  1.0 -0.0620569705
S  S1  1  0.01304000  0.74822000  0.74822000  1.0 0.1560663188
S  S2  1  0.74822000  0.49052000  0.01304000  1.0 0.1560663188
S  S3  1  0.74822000  0.01304000  0.49052000  1.0 0.1560663188
S  S4  1  0.49052000  0.74822000  0.74822000  1.0 0.1560663188
S  S5  1  0.74822000  0.74822000  0.01304000  1.0 0.1542047718
S  S6  1  0.49052000  0.01304000  0.74822000  1.0 0.1560663188
S  S7  1  0.01304000  0.49052000  0.74822000  1.0 0.1542047718
S  S8  1  0.74822000  0.74822000  0.49052000  1.0 0.1560663188
S  S9  1  0.74822000  0.01304000  0.74822000  1.0 0.1560663188
S  S10  1  0.01304000  0.74822000  0.49052000  1.0 0.1560663188
S  S11  1  0.49052000  0.74822000  0.01304000  1.0 0.1560663188
S  S12  1  0.74822000  0.49052000  0.74822000  1.0 0.1542047718
S  S13  1  0.98696000  0.50948000  0.25178000  1.0 0.1560663188
S  S14  1  0.25178000  0.25178000  0.98696000  1.0 0.1560663188
S  S15  1  0.25178000  0.25178000  0.50948000  1.0 0.1560663188
S  S16  1  0.50948000  0.98696000  0.25178000  1.0 0.1560663188
S  S17  1  0.25178000  0.50948000  0.98696000  1.0 0.1560663188
S  S18  1  0.50948000  0.25178000  0.25178000  1.0 0.1560663188
S  S19  1  0.98696000  0.25178000  0.25178000  1.0 0.1560663188
S  S20  1  0.25178000  0.98696000  0.50948000  1.0 0.1542047718
S  S21  1  0.25178000  0.50948000  0.25178000  1.0 0.1560663188
S  S22  1  0.98696000  0.25178000  0.50948000  1.0 0.1542047718
S  S23  1  0.50948000  0.25178000  0.98696000  1.0 0.1560663188
S  S24  1  0.25178000  0.98696000  0.25178000  1.0 0.1560663188
O  O1  1  0.99930000  0.67170000  0.92648000  1.0 -0.5275346624
O  O2  1  0.03813000  0.62339000  0.86493000  1.0 -0.7377986657
O  O3  1  0.92648000  0.40252000  0.99930000  1.0 -0.5275346624
O  O4  1  0.86493000  0.47355000  0.03813000  1.0 -0.7377986657
O  O5  1  0.67170000  0.99930000  0.40252000  1.0 -0.5275346624
O  O6  1  0.62339000  0.03813000  0.47355000  1.0 -0.7341833523
O  O7  1  0.40252000  0.92648000  0.67170000  1.0 -0.5275346624
O  O8  1  0.47355000  0.86493000  0.62339000  1.0 -0.7377986657
O  O9  1  0.67170000  0.92648000  0.99930000  1.0 -0.5275346624
O  O10  1  0.62339000  0.86493000  0.03813000  1.0 -0.7377986657
O  O11  1  0.40252000  0.99930000  0.92648000  1.0 -0.5275346624
O  O12  1  0.47355000  0.03813000  0.86493000  1.0 -0.7377986657
O  O13  1  0.99930000  0.40252000  0.67170000  1.0 -0.5275346624
O  O14  1  0.03813000  0.47355000  0.62339000  1.0 -0.7377986657
O  O15  1  0.92648000  0.67170000  0.40252000  1.0 -0.5275346624
O  O16  1  0.86493000  0.62339000  0.47355000  1.0 -0.7377986657
O  O17  1  0.92648000  0.99930000  0.67170000  1.0 -0.5275346624
O  O18  1  0.86493000  0.03813000  0.62339000  1.0 -0.7341833523
O  O19  1  0.99930000  0.92648000  0.40252000  1.0 -0.5275346624
O  O20  1  0.03813000  0.86493000  0.47355000  1.0 -0.7377986657
O  O21  1  0.40252000  0.67170000  0.99930000  1.0 -0.5275346624
O  O22  1  0.47355000  0.62339000  0.03813000  1.0 -0.7377986657
O  O23  1  0.67170000  0.40252000  0.92648000  1.0 -0.5275346624
O  O24  1  0.62339000  0.47355000  0.86493000  1.0 -0.7377986657
O  O25  1  0.00070000  0.59748000  0.07352000  1.0 -0.5275346624
O  O26  1  0.96187000  0.52645000  0.13507000  1.0 -0.7341833523
O  O27  1  0.07352000  0.32830000  0.00070000  1.0 -0.5275346624
O  O28  1  0.13507000  0.37661000  0.96187000  1.0 -0.7341833523
O  O29  1  0.32830000  0.07352000  0.59748000  1.0 -0.5275346624
O  O30  1  0.37661000  0.13507000  0.52645000  1.0 -0.7341833523
O  O31  1  0.59748000  0.00070000  0.32830000  1.0 -0.5275346624
O  O32  1  0.52645000  0.96187000  0.37661000  1.0 -0.7341833523
O  O33  1  0.32830000  0.59748000  0.00070000  1.0 -0.5275346624
O  O34  1  0.37661000  0.52645000  0.96187000  1.0 -0.7377986657
O  O35  1  0.59748000  0.32830000  0.07352000  1.0 -0.5275346624
O  O36  1  0.52645000  0.37661000  0.13507000  1.0 -0.7341833523
O  O37  1  0.00070000  0.07352000  0.32830000  1.0 -0.5275346624
O  O38  1  0.96187000  0.13507000  0.37661000  1.0 -0.7341833523
O  O39  1  0.07352000  0.00070000  0.59748000  1.0 -0.5275346624
O  O40  1  0.13507000  0.96187000  0.52645000  1.0 -0.7377986657
O  O41  1  0.07352000  0.59748000  0.32830000  1.0 -0.5275346624
O  O42  1  0.13507000  0.52645000  0.37661000  1.0 -0.7341833523
O  O43  1  0.00070000  0.32830000  0.59748000  1.0 -0.5275346624
O  O44  1  0.96187000  0.37661000  0.52645000  1.0 -0.7341833523
O  O45  1  0.59748000  0.07352000  0.00070000  1.0 -0.5275346624
O  O46  1  0.52645000  0.13507000  0.96187000  1.0 -0.7341833523
O  O47  1  0.32830000  0.00070000  0.07352000  1.0 -0.5275346624
O  O48  1  0.37661000  0.96187000  0.13507000  1.0 -0.7377986657
O  O49  1  0.00070000  0.32830000  0.07352000  1.0 -0.5275346624
O  O50  1  0.96187000  0.37661000  0.13507000  1.0 -0.7341833523
O  O51  1  0.07352000  0.59748000  0.00070000  1.0 -0.5275346624
O  O52  1  0.13507000  0.52645000  0.96187000  1.0 -0.7377986657
O  O53  1  0.32830000  0.00070000  0.59748000  1.0 -0.5275346624
O  O54  1  0.37661000  0.96187000  0.52645000  1.0 -0.7377986657
O  O55  1  0.59748000  0.07352000  0.32830000  1.0 -0.5275346624
O  O56  1  0.52645000  0.13507000  0.37661000  1.0 -0.7377986657
O  O57  1  0.32830000  0.07352000  0.00070000  1.0 -0.5247774682
O  O58  1  0.37661000  0.13507000  0.96187000  1.0 -0.7341833523
O  O59  1  0.59748000  0.00070000  0.07352000  1.0 -0.5275346624
O  O60  1  0.52645000  0.96187000  0.13507000  1.0 -0.7377986657
O  O61  1  0.00070000  0.59748000  0.32830000  1.0 -0.5275346624
O  O62  1  0.96187000  0.52645000  0.37661000  1.0 -0.7341833523
O  O63  1  0.07352000  0.32830000  0.59748000  1.0 -0.5275346624
O  O64  1  0.13507000  0.37661000  0.52645000  1.0 -0.7377986657
O  O65  1  0.07352000  0.00070000  0.32830000  1.0 -0.5275346624
O  O66  1  0.13507000  0.96187000  0.37661000  1.0 -0.7377986657
O  O67  1  0.00070000  0.07352000  0.59748000  1.0 -0.5275346624
O  O68  1  0.96187000  0.13507000  0.52645000  1.0 -0.7341833523
O  O69  1  0.59748000  0.32830000  0.00070000  1.0 -0.5275346624
O  O70  1  0.52645000  0.37661000  0.96187000  1.0 -0.7341833523
O  O71  1  0.32830000  0.59748000  0.07352000  1.0 -0.5275346624
O  O72  1  0.37661000  0.52645000  0.13507000  1.0 -0.7341833523
O  O73  1  0.99930000  0.40252000  0.92648000  1.0 -0.5275346624
O  O74  1  0.03813000  0.47355000  0.86493000  1.0 -0.7377986657
O  O75  1  0.92648000  0.67170000  0.99930000  1.0 -0.5275346624
O  O76  1  0.86493000  0.62339000  0.03813000  1.0 -0.7377986657
O  O77  1  0.67170000  0.92648000  0.40252000  1.0 -0.5275346624
O  O78  1  0.62339000  0.86493000  0.47355000  1.0 -0.7377986657
O  O79  1  0.40252000  0.99930000  0.67170000  1.0 -0.5275346624
O  O80  1  0.47355000  0.03813000  0.62339000  1.0 -0.7377986657
O  O81  1  0.67170000  0.40252000  0.99930000  1.0 -0.5275346624
O  O82  1  0.62339000  0.47355000  0.03813000  1.0 -0.7377986657
O  O83  1  0.40252000  0.67170000  0.92648000  1.0 -0.5275346624
O  O84  1  0.47355000  0.62339000  0.86493000  1.0 -0.7377986657
O  O85  1  0.99930000  0.92648000  0.67170000  1.0 -0.5275346624
O  O86  1  0.03813000  0.86493000  0.62339000  1.0 -0.7377986657
O  O87  1  0.92648000  0.99930000  0.40252000  1.0 -0.5275346624
O  O88  1  0.86493000  0.03813000  0.47355000  1.0 -0.7341833523
O  O89  1  0.92648000  0.40252000  0.67170000  1.0 -0.5275346624
O  O90  1  0.86493000  0.47355000  0.62339000  1.0 -0.7341833523
O  O91  1  0.99930000  0.67170000  0.40252000  1.0 -0.5275346624
O  O92  1  0.03813000  0.62339000  0.47355000  1.0 -0.7377986657
O  O93  1  0.40252000  0.92648000  0.99930000  1.0 -0.5275346624
O  O94  1  0.47355000  0.86493000  0.03813000  1.0 -0.7377986657
O  O95  1  0.67170000  0.99930000  0.92648000  1.0 -0.5275346624
O  O96  1  0.62339000  0.03813000  0.86493000  1.0 -0.7341833523
O  O97  1  0.79146000  0.58704000  0.03446000  1.0 -0.4640071652
O  O98  1  0.81192000  0.54574000  0.09660000  1.0 -0.4120545845
O  O99  1  0.03446000  0.58704000  0.79146000  1.0 -0.4664253484
O  O100  1  0.09660000  0.54574000  0.81192000  1.0 -0.4120545845
O  O101  1  0.58704000  0.79146000  0.58704000  1.0 -0.4664253484
O  O102  1  0.54574000  0.81192000  0.54574000  1.0 -0.4120545845
O  O103  1  0.58704000  0.03446000  0.58704000  1.0 -0.4640071652
O  O104  1  0.54574000  0.09660000  0.54574000  1.0 -0.4120545845
O  O105  1  0.58704000  0.03446000  0.79146000  1.0 -0.4640071652
O  O106  1  0.54574000  0.09660000  0.81192000  1.0 -0.4120545845
O  O107  1  0.58704000  0.79146000  0.03446000  1.0 -0.4664253484
O  O108  1  0.54574000  0.81192000  0.09660000  1.0 -0.4120545845
O  O109  1  0.79146000  0.58704000  0.58704000  1.0 -0.4664253484
O  O110  1  0.81192000  0.54574000  0.54574000  1.0 -0.4120545845
O  O111  1  0.03446000  0.58704000  0.58704000  1.0 -0.4664253484
O  O112  1  0.09660000  0.54574000  0.54574000  1.0 -0.4120545845
O  O113  1  0.03446000  0.79146000  0.58704000  1.0 -0.4664253484
O  O114  1  0.09660000  0.81192000  0.54574000  1.0 -0.4120545845
O  O115  1  0.79146000  0.03446000  0.58704000  1.0 -0.4640071652
O  O116  1  0.81192000  0.09660000  0.54574000  1.0 -0.4120545845
O  O117  1  0.58704000  0.58704000  0.79146000  1.0 -0.4664253484
O  O118  1  0.54574000  0.54574000  0.81192000  1.0 -0.4120545845
O  O119  1  0.58704000  0.58704000  0.03446000  1.0 -0.4664253484
O  O120  1  0.54574000  0.54574000  0.09660000  1.0 -0.4120545845
O  O121  1  0.20854000  0.41296000  0.96554000  1.0 -0.4664253484
O  O122  1  0.18808000  0.45426000  0.90340000  1.0 -0.4120545845
O  O123  1  0.96554000  0.41296000  0.20854000  1.0 -0.4640071652
O  O124  1  0.90340000  0.45426000  0.18808000  1.0 -0.4120545845
O  O125  1  0.41296000  0.96554000  0.41296000  1.0 -0.4664253484
O  O126  1  0.45426000  0.90340000  0.45426000  1.0 -0.4120545845
O  O127  1  0.41296000  0.20854000  0.41296000  1.0 -0.4640071652
O  O128  1  0.45426000  0.18808000  0.45426000  1.0 -0.4120545845
O  O129  1  0.41296000  0.41296000  0.20854000  1.0 -0.4664253484
O  O130  1  0.45426000  0.45426000  0.18808000  1.0 -0.4120545845
O  O131  1  0.41296000  0.41296000  0.96554000  1.0 -0.4664253484
O  O132  1  0.45426000  0.45426000  0.90340000  1.0 -0.4120545845
O  O133  1  0.20854000  0.96554000  0.41296000  1.0 -0.4664253484
O  O134  1  0.18808000  0.90340000  0.45426000  1.0 -0.4120545845
O  O135  1  0.96554000  0.20854000  0.41296000  1.0 -0.4640071652
O  O136  1  0.90340000  0.18808000  0.45426000  1.0 -0.4120545845
O  O137  1  0.96554000  0.41296000  0.41296000  1.0 -0.4664253484
O  O138  1  0.90340000  0.45426000  0.45426000  1.0 -0.4120545845
O  O139  1  0.20854000  0.41296000  0.41296000  1.0 -0.4664253484
O  O140  1  0.18808000  0.45426000  0.45426000  1.0 -0.4120545845
O  O141  1  0.41296000  0.96554000  0.20854000  1.0 -0.4664253484
O  O142  1  0.45426000  0.90340000  0.18808000  1.0 -0.4120545845
O  O143  1  0.41296000  0.20854000  0.96554000  1.0 -0.4664253484
O  O144  1  0.45426000  0.18808000  0.90340000  1.0 -0.4120545845
O  O145  1  0.97948000  0.53650000  0.97948000  1.0 -0.2016125202
O  O146  1  0.97948000  0.50454000  0.97948000  1.0 -0.2016125202
O  O147  1  0.53650000  0.97948000  0.50454000  1.0 -0.2016125202
O  O148  1  0.50454000  0.97948000  0.53650000  1.0 -0.2016125202
O  O149  1  0.53650000  0.97948000  0.97948000  1.0 -0.2016125202
O  O150  1  0.50454000  0.97948000  0.97948000  1.0 -0.2016125202
O  O151  1  0.97948000  0.50454000  0.53650000  1.0 -0.2016125202
O  O152  1  0.97948000  0.53650000  0.50454000  1.0 -0.2069324962
O  O153  1  0.97948000  0.97948000  0.53650000  1.0 -0.2016125202
O  O154  1  0.97948000  0.97948000  0.50454000  1.0 -0.2016125202
O  O155  1  0.50454000  0.53650000  0.97948000  1.0 -0.2016125202
O  O156  1  0.53650000  0.50454000  0.97948000  1.0 -0.2016125202
O  O157  1  0.02052000  0.49546000  0.02052000  1.0 -0.2016125202
O  O158  1  0.02052000  0.46350000  0.02052000  1.0 -0.2016125202
O  O159  1  0.46350000  0.02052000  0.49546000  1.0 -0.2016125202
O  O160  1  0.49546000  0.02052000  0.46350000  1.0 -0.2016125202
O  O161  1  0.46350000  0.49546000  0.02052000  1.0 -0.2069324962
O  O162  1  0.49546000  0.46350000  0.02052000  1.0 -0.2016125202
O  O163  1  0.02052000  0.02052000  0.46350000  1.0 -0.2016125202
O  O164  1  0.02052000  0.02052000  0.49546000  1.0 -0.2016125202
O  O165  1  0.02052000  0.49546000  0.46350000  1.0 -0.2016125202
O  O166  1  0.02052000  0.46350000  0.49546000  1.0 -0.2016125202
O  O167  1  0.49546000  0.02052000  0.02052000  1.0 -0.2016125202
O  O168  1  0.46350000  0.02052000  0.02052000  1.0 -0.2016125202
O  O169  1  0.04932000  0.52834000  0.95068000  1.0 -0.3227188683
O  O170  1  0.95068000  0.47166000  0.04932000  1.0 -0.3227188683
O  O171  1  0.52834000  0.04932000  0.47166000  1.0 -0.3227188683
O  O172  1  0.47166000  0.95068000  0.52834000  1.0 -0.3227188683
O  O173  1  0.52834000  0.95068000  0.04932000  1.0 -0.3227188683
O  O174  1  0.47166000  0.04932000  0.95068000  1.0 -0.3227188683
O  O175  1  0.04932000  0.47166000  0.52834000  1.0 -0.3258910141
O  O176  1  0.95068000  0.52834000  0.47166000  1.0 -0.3227188683
O  O177  1  0.95068000  0.04932000  0.52834000  1.0 -0.3227188683
O  O178  1  0.04932000  0.95068000  0.47166000  1.0 -0.3258910141
O  O179  1  0.47166000  0.52834000  0.04932000  1.0 -0.3227188683
O  O180  1  0.52834000  0.47166000  0.95068000  1.0 -0.3227188683
O  O181  1  0.95068000  0.52834000  0.04932000  1.0 -0.3227188683
O  O182  1  0.04932000  0.47166000  0.95068000  1.0 -0.3227188683
O  O183  1  0.47166000  0.04932000  0.52834000  1.0 -0.3227188683
O  O184  1  0.52834000  0.95068000  0.47166000  1.0 -0.3227188683
O  O185  1  0.47166000  0.52834000  0.95068000  1.0 -0.3227188683
O  O186  1  0.52834000  0.47166000  0.04932000  1.0 -0.3227188683
O  O187  1  0.95068000  0.04932000  0.47166000  1.0 -0.3227188683
O  O188  1  0.04932000  0.95068000  0.52834000  1.0 -0.3258910141
O  O189  1  0.04932000  0.52834000  0.47166000  1.0 -0.3258910141
O  O190  1  0.95068000  0.47166000  0.52834000  1.0 -0.3227188683
O  O191  1  0.52834000  0.04932000  0.95068000  1.0 -0.3227188683
O  O192  1  0.47166000  0.95068000  0.04932000  1.0 -0.3227188683
