# DDEC6 charges by PACMAN v1.1 (https://github.com/mtap-research/PACMAN-charge/)
data_OXOCOW_ASR_pacman
_symmetry_space_group_name_H-M   'P 1'
_cell_length_a   27.49850000
_cell_length_b   27.49850000
_cell_length_c   27.49850000
_cell_angle_alpha   60.00000000
_cell_angle_beta   60.00000000
_cell_angle_gamma   60.00000000
_symmetry_Int_Tables_number   1
_chemical_formula_structural   Zr3H4C12(SO6)2
_chemical_formula_sum   'Zr36 H48 C144 S24 O144'
_cell_volume   14703.20509848
_cell_formula_units_Z   12
loop_
 _symmetry_equiv_pos_site_id
 _symmetry_equiv_pos_as_xyz
  1  'x, y, z'
loop_
 _atom_site_type_symbol
 _atom_site_label
 _atom_site_symmetry_multiplicity
 _atom_site_fract_x
 _atom_site_fract_y
 _atom_site_fract_z
 _atom_site_occupancy
 _atom_site_charge
Zr  Zr1  1  0.10673000  0.98749000  0.45289000  1.0 1.5372389872
Zr  Zr2  1  0.98749000  0.10673000  0.45289000  1.0 1.5288019398
Zr  Zr3  1  0.45289000  0.45289000  0.10673000  1.0 1.5372389872
Zr  Zr4  1  0.45289000  0.45289000  0.98749000  1.0 1.5288019398
Zr  Zr5  1  0.45289000  0.10673000  0.98749000  1.0 1.5288019398
Zr  Zr6  1  0.45289000  0.98749000  0.10673000  1.0 1.5372389872
Zr  Zr7  1  0.10673000  0.45289000  0.45289000  1.0 1.5288019398
Zr  Zr8  1  0.98749000  0.45289000  0.45289000  1.0 1.5288019398
Zr  Zr9  1  0.98749000  0.45289000  0.10673000  1.0 1.5288019398
Zr  Zr10  1  0.10673000  0.45289000  0.98749000  1.0 1.5215202588
Zr  Zr11  1  0.45289000  0.10673000  0.45289000  1.0 1.5288019398
Zr  Zr12  1  0.45289000  0.98749000  0.45289000  1.0 1.5288019398
Zr  Zr13  1  0.89327000  0.01251000  0.54711000  1.0 1.5215202588
Zr  Zr14  1  0.01251000  0.89327000  0.54711000  1.0 1.5215202588
Zr  Zr15  1  0.54711000  0.54711000  0.01251000  1.0 1.5288019398
Zr  Zr16  1  0.54711000  0.54711000  0.89327000  1.0 1.5215202588
Zr  Zr17  1  0.54711000  0.89327000  0.54711000  1.0 1.5215202588
Zr  Zr18  1  0.54711000  0.01251000  0.54711000  1.0 1.5215202588
Zr  Zr19  1  0.89327000  0.54711000  0.01251000  1.0 1.5288019398
Zr  Zr20  1  0.01251000  0.54711000  0.89327000  1.0 1.5215202588
Zr  Zr21  1  0.01251000  0.54711000  0.54711000  1.0 1.5215202588
Zr  Zr22  1  0.89327000  0.54711000  0.54711000  1.0 1.5288019398
Zr  Zr23  1  0.54711000  0.89327000  0.01251000  1.0 1.5288019398
Zr  Zr24  1  0.54711000  0.01251000  0.89327000  1.0 1.5147823412
Zr  Zr25  1  0.00000000  0.00000000  0.42040000  1.0 1.6011879002
Zr  Zr26  1  0.00000000  0.00000000  0.57960000  1.0 1.6011879002
Zr  Zr27  1  0.42040000  0.57960000  0.00000000  1.0 1.6011879002
Zr  Zr28  1  0.57960000  0.42040000  0.00000000  1.0 1.6011879002
Zr  Zr29  1  0.42040000  0.00000000  0.00000000  1.0 1.6011879002
Zr  Zr30  1  0.57960000  0.00000000  0.00000000  1.0 1.6011879002
Zr  Zr31  1  0.00000000  0.42040000  0.57960000  1.0 1.6011879002
Zr  Zr32  1  0.00000000  0.57960000  0.42040000  1.0 1.6059580166
Zr  Zr33  1  0.00000000  0.42040000  0.00000000  1.0 1.6011879002
Zr  Zr34  1  0.00000000  0.57960000  0.00000000  1.0 1.6011879002
Zr  Zr35  1  0.57960000  0.00000000  0.42040000  1.0 1.6011879002
Zr  Zr36  1  0.42040000  0.00000000  0.57960000  1.0 1.6011879002
H  H1  1  0.99824000  0.14442000  0.23040000  1.0 0.0909400859
H  H2  1  0.14442000  0.99824000  0.62694000  1.0 0.0909400859
H  H3  1  0.23040000  0.62694000  0.99824000  1.0 0.0909400859
H  H4  1  0.62694000  0.23040000  0.14442000  1.0 0.0909400859
H  H5  1  0.23040000  0.99824000  0.14442000  1.0 0.0909400859
H  H6  1  0.62694000  0.14442000  0.99824000  1.0 0.0909400859
H  H7  1  0.99824000  0.23040000  0.62694000  1.0 0.0909400859
H  H8  1  0.14442000  0.62694000  0.23040000  1.0 0.0909400859
H  H9  1  0.14442000  0.23040000  0.99824000  1.0 0.0909400859
H  H10  1  0.99824000  0.62694000  0.14442000  1.0 0.0909400859
H  H11  1  0.62694000  0.99824000  0.23040000  1.0 0.0909400859
H  H12  1  0.23040000  0.14442000  0.62694000  1.0 0.0909400859
H  H13  1  0.00176000  0.85558000  0.37306000  1.0 0.0909400859
H  H14  1  0.85558000  0.00176000  0.76960000  1.0 0.0909400859
H  H15  1  0.76960000  0.37306000  0.85558000  1.0 0.0909400859
H  H16  1  0.37306000  0.76960000  0.00176000  1.0 0.0909400859
H  H17  1  0.76960000  0.00176000  0.37306000  1.0 0.0909400859
H  H18  1  0.37306000  0.85558000  0.76960000  1.0 0.0909400859
H  H19  1  0.00176000  0.76960000  0.85558000  1.0 0.0909400859
H  H20  1  0.85558000  0.37306000  0.00176000  1.0 0.0909400859
H  H21  1  0.85558000  0.76960000  0.37306000  1.0 0.0909400859
H  H22  1  0.00176000  0.37306000  0.76960000  1.0 0.0909400859
H  H23  1  0.37306000  0.00176000  0.85558000  1.0 0.0909400859
H  H24  1  0.76960000  0.85558000  0.00176000  1.0 0.0909400859
H  H25  1  0.00176000  0.85558000  0.76960000  1.0 0.0909400859
H  H26  1  0.85558000  0.00176000  0.37306000  1.0 0.0909400859
H  H27  1  0.76960000  0.37306000  0.00176000  1.0 0.0909400859
H  H28  1  0.37306000  0.76960000  0.85558000  1.0 0.0909400859
H  H29  1  0.76960000  0.00176000  0.85558000  1.0 0.0909400859
H  H30  1  0.37306000  0.85558000  0.00176000  1.0 0.0909400859
H  H31  1  0.00176000  0.76960000  0.37306000  1.0 0.0909400859
H  H32  1  0.85558000  0.37306000  0.76960000  1.0 0.0909400859
H  H33  1  0.85558000  0.76960000  0.00176000  1.0 0.0909400859
H  H34  1  0.00176000  0.37306000  0.85558000  1.0 0.0909400859
H  H35  1  0.37306000  0.00176000  0.76960000  1.0 0.0909400859
H  H36  1  0.76960000  0.85558000  0.37306000  1.0 0.0909400859
H  H37  1  0.99824000  0.14442000  0.62694000  1.0 0.0909400859
H  H38  1  0.14442000  0.99824000  0.23040000  1.0 0.0909400859
H  H39  1  0.23040000  0.62694000  0.14442000  1.0 0.0909400859
H  H40  1  0.62694000  0.23040000  0.99824000  1.0 0.0909400859
H  H41  1  0.23040000  0.99824000  0.62694000  1.0 0.0909400859
H  H42  1  0.62694000  0.14442000  0.23040000  1.0 0.0909400859
H  H43  1  0.99824000  0.23040000  0.14442000  1.0 0.0909400859
H  H44  1  0.14442000  0.62694000  0.99824000  1.0 0.0909400859
H  H45  1  0.14442000  0.23040000  0.62694000  1.0 0.0909400859
H  H46  1  0.99824000  0.62694000  0.23040000  1.0 0.0909400859
H  H47  1  0.62694000  0.99824000  0.14442000  1.0 0.0909400859
H  H48  1  0.23040000  0.14442000  0.99824000  1.0 0.0909400859
C  C1  1  0.97364000  0.12884000  0.32832000  1.0 0.348528355
C  C2  1  0.97485000  0.19115000  0.28089000  1.0 -0.1625269798
C  C3  1  0.98096000  0.18294000  0.23290000  1.0 -0.1625269798
C  C4  1  0.12884000  0.97364000  0.56920000  1.0 0.348528355
C  C5  1  0.19115000  0.97485000  0.55311000  1.0 -0.1625269798
C  C6  1  0.18294000  0.98096000  0.60320000  1.0 -0.1625269798
C  C7  1  0.32832000  0.56920000  0.97364000  1.0 0.348528355
C  C8  1  0.28089000  0.55311000  0.97485000  1.0 -0.1625269798
C  C9  1  0.23290000  0.60320000  0.98096000  1.0 -0.1625269798
C  C10  1  0.56920000  0.32832000  0.12884000  1.0 0.3407422174
C  C11  1  0.55311000  0.28089000  0.19115000  1.0 -0.1625269798
C  C12  1  0.60320000  0.23290000  0.18294000  1.0 -0.1625269798
C  C13  1  0.32832000  0.97364000  0.12884000  1.0 0.348528355
C  C14  1  0.28089000  0.97485000  0.19115000  1.0 -0.1625269798
C  C15  1  0.23290000  0.98096000  0.18294000  1.0 -0.1650741827
C  C16  1  0.56920000  0.12884000  0.97364000  1.0 0.348528355
C  C17  1  0.55311000  0.19115000  0.97485000  1.0 -0.1625269798
C  C18  1  0.60320000  0.18294000  0.98096000  1.0 -0.1625269798
C  C19  1  0.97364000  0.32832000  0.56920000  1.0 0.348528355
C  C20  1  0.97485000  0.28089000  0.55311000  1.0 -0.1625269798
C  C21  1  0.98096000  0.23290000  0.60320000  1.0 -0.1625269798
C  C22  1  0.12884000  0.56920000  0.32832000  1.0 0.3407422174
C  C23  1  0.19115000  0.55311000  0.28089000  1.0 -0.1625269798
C  C24  1  0.18294000  0.60320000  0.23290000  1.0 -0.1625269798
C  C25  1  0.12884000  0.32832000  0.97364000  1.0 0.3407422174
C  C26  1  0.19115000  0.28089000  0.97485000  1.0 -0.1625269798
C  C27  1  0.18294000  0.23290000  0.98096000  1.0 -0.1625269798
C  C28  1  0.97364000  0.56920000  0.12884000  1.0 0.348528355
C  C29  1  0.97485000  0.55311000  0.19115000  1.0 -0.1625269798
C  C30  1  0.98096000  0.60320000  0.18294000  1.0 -0.1625269798
C  C31  1  0.56920000  0.97364000  0.32832000  1.0 0.3407422174
C  C32  1  0.55311000  0.97485000  0.28089000  1.0 -0.1625269798
C  C33  1  0.60320000  0.98096000  0.23290000  1.0 -0.1625269798
C  C34  1  0.32832000  0.12884000  0.56920000  1.0 0.348528355
C  C35  1  0.28089000  0.19115000  0.55311000  1.0 -0.1625269798
C  C36  1  0.23290000  0.18294000  0.60320000  1.0 -0.1625269798
C  C37  1  0.02636000  0.87116000  0.43080000  1.0 0.3407422174
C  C38  1  0.02515000  0.80885000  0.44689000  1.0 -0.1625269798
C  C39  1  0.01904000  0.81706000  0.39680000  1.0 -0.1625269798
C  C40  1  0.87116000  0.02636000  0.67168000  1.0 0.348528355
C  C41  1  0.80885000  0.02515000  0.71911000  1.0 -0.1625269798
C  C42  1  0.81706000  0.01904000  0.76710000  1.0 -0.1625269798
C  C43  1  0.67168000  0.43080000  0.87116000  1.0 0.348528355
C  C44  1  0.71911000  0.44689000  0.80885000  1.0 -0.1625269798
C  C45  1  0.76710000  0.39680000  0.81706000  1.0 -0.1625269798
C  C46  1  0.43080000  0.67168000  0.02636000  1.0 0.3407422174
C  C47  1  0.44689000  0.71911000  0.02515000  1.0 -0.1650741827
C  C48  1  0.39680000  0.76710000  0.01904000  1.0 -0.1625269798
C  C49  1  0.67168000  0.02636000  0.43080000  1.0 0.3407422174
C  C50  1  0.71911000  0.02515000  0.44689000  1.0 -0.1625269798
C  C51  1  0.76710000  0.01904000  0.39680000  1.0 -0.1625269798
C  C52  1  0.43080000  0.87116000  0.67168000  1.0 0.3407422174
C  C53  1  0.44689000  0.80885000  0.71911000  1.0 -0.1625269798
C  C54  1  0.39680000  0.81706000  0.76710000  1.0 -0.1625269798
C  C55  1  0.02636000  0.67168000  0.87116000  1.0 0.3407422174
C  C56  1  0.02515000  0.71911000  0.80885000  1.0 -0.1625269798
C  C57  1  0.01904000  0.76710000  0.81706000  1.0 -0.1625269798
C  C58  1  0.87116000  0.43080000  0.02636000  1.0 0.348528355
C  C59  1  0.80885000  0.44689000  0.02515000  1.0 -0.1625269798
C  C60  1  0.81706000  0.39680000  0.01904000  1.0 -0.1625269798
C  C61  1  0.87116000  0.67168000  0.43080000  1.0 0.3586760778
C  C62  1  0.80885000  0.71911000  0.44689000  1.0 -0.1625269798
C  C63  1  0.81706000  0.76710000  0.39680000  1.0 -0.1625269798
C  C64  1  0.02636000  0.43080000  0.67168000  1.0 0.348528355
C  C65  1  0.02515000  0.44689000  0.71911000  1.0 -0.1625269798
C  C66  1  0.01904000  0.39680000  0.76710000  1.0 -0.1625269798
C  C67  1  0.43080000  0.02636000  0.87116000  1.0 0.348528355
C  C68  1  0.44689000  0.02515000  0.80885000  1.0 -0.1625269798
C  C69  1  0.39680000  0.01904000  0.81706000  1.0 -0.1625269798
C  C70  1  0.67168000  0.87116000  0.02636000  1.0 0.348528355
C  C71  1  0.71911000  0.80885000  0.02515000  1.0 -0.1625269798
C  C72  1  0.76710000  0.81706000  0.01904000  1.0 -0.1625269798
C  C73  1  0.02636000  0.87116000  0.67168000  1.0 0.348528355
C  C74  1  0.02515000  0.80885000  0.71911000  1.0 -0.1625269798
C  C75  1  0.01904000  0.81706000  0.76710000  1.0 -0.1625269798
C  C76  1  0.87116000  0.02636000  0.43080000  1.0 0.3407422174
C  C77  1  0.80885000  0.02515000  0.44689000  1.0 -0.1625269798
C  C78  1  0.81706000  0.01904000  0.39680000  1.0 -0.1625269798
C  C79  1  0.67168000  0.43080000  0.02636000  1.0 0.348528355
C  C80  1  0.71911000  0.44689000  0.02515000  1.0 -0.1625269798
C  C81  1  0.76710000  0.39680000  0.01904000  1.0 -0.1625269798
C  C82  1  0.43080000  0.67168000  0.87116000  1.0 0.348528355
C  C83  1  0.44689000  0.71911000  0.80885000  1.0 -0.1625269798
C  C84  1  0.39680000  0.76710000  0.81706000  1.0 -0.1625269798
C  C85  1  0.67168000  0.02636000  0.87116000  1.0 0.348528355
C  C86  1  0.71911000  0.02515000  0.80885000  1.0 -0.1625269798
C  C87  1  0.76710000  0.01904000  0.81706000  1.0 -0.1625269798
C  C88  1  0.43080000  0.87116000  0.02636000  1.0 0.3407422174
C  C89  1  0.44689000  0.80885000  0.02515000  1.0 -0.1625269798
C  C90  1  0.39680000  0.81706000  0.01904000  1.0 -0.1625269798
C  C91  1  0.02636000  0.67168000  0.43080000  1.0 0.3407422174
C  C92  1  0.02515000  0.71911000  0.44689000  1.0 -0.1625269798
C  C93  1  0.01904000  0.76710000  0.39680000  1.0 -0.1625269798
C  C94  1  0.87116000  0.43080000  0.67168000  1.0 0.348528355
C  C95  1  0.80885000  0.44689000  0.71911000  1.0 -0.1625269798
C  C96  1  0.81706000  0.39680000  0.76710000  1.0 -0.1650741827
C  C97  1  0.87116000  0.67168000  0.02636000  1.0 0.3407422174
C  C98  1  0.80885000  0.71911000  0.02515000  1.0 -0.1625269798
C  C99  1  0.81706000  0.76710000  0.01904000  1.0 -0.1625269798
C  C100  1  0.02636000  0.43080000  0.87116000  1.0 0.348528355
C  C101  1  0.02515000  0.44689000  0.80885000  1.0 -0.1625269798
C  C102  1  0.01904000  0.39680000  0.81706000  1.0 -0.1625269798
C  C103  1  0.43080000  0.02636000  0.67168000  1.0 0.348528355
C  C104  1  0.44689000  0.02515000  0.71911000  1.0 -0.1625269798
C  C105  1  0.39680000  0.01904000  0.76710000  1.0 -0.1625269798
C  C106  1  0.67168000  0.87116000  0.43080000  1.0 0.3407422174
C  C107  1  0.71911000  0.80885000  0.44689000  1.0 -0.1625269798
C  C108  1  0.76710000  0.81706000  0.39680000  1.0 -0.1625269798
C  C109  1  0.97364000  0.12884000  0.56920000  1.0 0.348528355
C  C110  1  0.97485000  0.19115000  0.55311000  1.0 -0.1625269798
C  C111  1  0.98096000  0.18294000  0.60320000  1.0 -0.1625269798
C  C112  1  0.12884000  0.97364000  0.32832000  1.0 0.3407422174
C  C113  1  0.19115000  0.97485000  0.28089000  1.0 -0.1625269798
C  C114  1  0.18294000  0.98096000  0.23290000  1.0 -0.1625269798
C  C115  1  0.32832000  0.56920000  0.12884000  1.0 0.3407422174
C  C116  1  0.28089000  0.55311000  0.19115000  1.0 -0.1625269798
C  C117  1  0.23290000  0.60320000  0.18294000  1.0 -0.1625269798
C  C118  1  0.56920000  0.32832000  0.97364000  1.0 0.348528355
C  C119  1  0.55311000  0.28089000  0.97485000  1.0 -0.1625269798
C  C120  1  0.60320000  0.23290000  0.98096000  1.0 -0.1625269798
C  C121  1  0.32832000  0.97364000  0.56920000  1.0 0.348528355
C  C122  1  0.28089000  0.97485000  0.55311000  1.0 -0.1625269798
C  C123  1  0.23290000  0.98096000  0.60320000  1.0 -0.1625269798
C  C124  1  0.56920000  0.12884000  0.32832000  1.0 0.348528355
C  C125  1  0.55311000  0.19115000  0.28089000  1.0 -0.1625269798
C  C126  1  0.60320000  0.18294000  0.23290000  1.0 -0.1625269798
C  C127  1  0.97364000  0.32832000  0.12884000  1.0 0.3407422174
C  C128  1  0.97485000  0.28089000  0.19115000  1.0 -0.1625269798
C  C129  1  0.98096000  0.23290000  0.18294000  1.0 -0.1625269798
C  C130  1  0.12884000  0.56920000  0.97364000  1.0 0.3407422174
C  C131  1  0.19115000  0.55311000  0.97485000  1.0 -0.1625269798
C  C132  1  0.18294000  0.60320000  0.98096000  1.0 -0.1625269798
C  C133  1  0.12884000  0.32832000  0.56920000  1.0 0.3407422174
C  C134  1  0.19115000  0.28089000  0.55311000  1.0 -0.1625269798
C  C135  1  0.18294000  0.23290000  0.60320000  1.0 -0.1625269798
C  C136  1  0.97364000  0.56920000  0.32832000  1.0 0.3407422174
C  C137  1  0.97485000  0.55311000  0.28089000  1.0 -0.1625269798
C  C138  1  0.98096000  0.60320000  0.23290000  1.0 -0.1625269798
C  C139  1  0.56920000  0.97364000  0.12884000  1.0 0.348528355
C  C140  1  0.55311000  0.97485000  0.19115000  1.0 -0.1625269798
C  C141  1  0.60320000  0.98096000  0.18294000  1.0 -0.1625269798
C  C142  1  0.32832000  0.12884000  0.97364000  1.0 0.348528355
C  C143  1  0.28089000  0.19115000  0.97485000  1.0 -0.1625269798
C  C144  1  0.23290000  0.18294000  0.98096000  1.0 -0.1625269798
S  S1  1  0.99825000  0.25107000  0.25107000  1.0 0.0909400859
S  S2  1  0.25107000  0.99825000  0.49961000  1.0 0.0909400859
S  S3  1  0.25107000  0.49961000  0.99825000  1.0 0.0909400859
S  S4  1  0.49961000  0.25107000  0.25107000  1.0 0.0909400859
S  S5  1  0.25107000  0.99825000  0.25107000  1.0 0.084545074
S  S6  1  0.49961000  0.25107000  0.99825000  1.0 0.0909400859
S  S7  1  0.99825000  0.25107000  0.49961000  1.0 0.0909400859
S  S8  1  0.25107000  0.49961000  0.25107000  1.0 0.0909400859
S  S9  1  0.25107000  0.25107000  0.99825000  1.0 0.0909400859
S  S10  1  0.99825000  0.49961000  0.25107000  1.0 0.0909400859
S  S11  1  0.49961000  0.99825000  0.25107000  1.0 0.084545074
S  S12  1  0.25107000  0.25107000  0.49961000  1.0 0.0909400859
S  S13  1  0.00175000  0.74893000  0.50039000  1.0 0.0909400859
S  S14  1  0.74893000  0.00175000  0.74893000  1.0 0.0909400859
S  S15  1  0.74893000  0.50039000  0.74893000  1.0 0.0909400859
S  S16  1  0.50039000  0.74893000  0.00175000  1.0 0.0909400859
S  S17  1  0.74893000  0.00175000  0.50039000  1.0 0.0909400859
S  S18  1  0.50039000  0.74893000  0.74893000  1.0 0.0909400859
S  S19  1  0.00175000  0.74893000  0.74893000  1.0 0.0909400859
S  S20  1  0.74893000  0.50039000  0.00175000  1.0 0.0909400859
S  S21  1  0.74893000  0.74893000  0.50039000  1.0 0.0909400859
S  S22  1  0.00175000  0.50039000  0.74893000  1.0 0.0909400859
S  S23  1  0.50039000  0.00175000  0.74893000  1.0 0.0909400859
S  S24  1  0.74893000  0.74893000  0.00175000  1.0 0.0909400859
O  O1  1  0.98719000  0.07119000  0.33991000  1.0 -0.4063689114
O  O2  1  0.97594000  0.10902000  0.38166000  1.0 -0.4828168472
O  O3  1  0.07119000  0.98719000  0.60171000  1.0 -0.4063689114
O  O4  1  0.10902000  0.97594000  0.53338000  1.0 -0.4828168472
O  O5  1  0.33991000  0.60171000  0.98719000  1.0 -0.4063689114
O  O6  1  0.38166000  0.53338000  0.97594000  1.0 -0.4828168472
O  O7  1  0.60171000  0.33991000  0.07119000  1.0 -0.4063689114
O  O8  1  0.53338000  0.38166000  0.10902000  1.0 -0.4828168472
O  O9  1  0.33991000  0.98719000  0.07119000  1.0 -0.4063689114
O  O10  1  0.38166000  0.97594000  0.10902000  1.0 -0.4828168472
O  O11  1  0.60171000  0.07119000  0.98719000  1.0 -0.4063689114
O  O12  1  0.53338000  0.10902000  0.97594000  1.0 -0.4828168472
O  O13  1  0.98719000  0.33991000  0.60171000  1.0 -0.4063689114
O  O14  1  0.97594000  0.38166000  0.53338000  1.0 -0.4828168472
O  O15  1  0.07119000  0.60171000  0.33991000  1.0 -0.4063689114
O  O16  1  0.10902000  0.53338000  0.38166000  1.0 -0.4828168472
O  O17  1  0.07119000  0.33991000  0.98719000  1.0 -0.4063689114
O  O18  1  0.10902000  0.38166000  0.97594000  1.0 -0.4828168472
O  O19  1  0.98719000  0.60171000  0.07119000  1.0 -0.4063689114
O  O20  1  0.97594000  0.53338000  0.10902000  1.0 -0.4859848899
O  O21  1  0.60171000  0.98719000  0.33991000  1.0 -0.4044950288
O  O22  1  0.53338000  0.97594000  0.38166000  1.0 -0.4828168472
O  O23  1  0.33991000  0.07119000  0.60171000  1.0 -0.4063689114
O  O24  1  0.38166000  0.10902000  0.53338000  1.0 -0.4859848899
O  O25  1  0.01281000  0.92881000  0.39829000  1.0 -0.4063689114
O  O26  1  0.02406000  0.89098000  0.46662000  1.0 -0.4828168472
O  O27  1  0.92881000  0.01281000  0.66009000  1.0 -0.4063689114
O  O28  1  0.89098000  0.02406000  0.61834000  1.0 -0.4828168472
O  O29  1  0.66009000  0.39829000  0.92881000  1.0 -0.4063689114
O  O30  1  0.61834000  0.46662000  0.89098000  1.0 -0.4859848899
O  O31  1  0.39829000  0.66009000  0.01281000  1.0 -0.4063689114
O  O32  1  0.46662000  0.61834000  0.02406000  1.0 -0.4828168472
O  O33  1  0.66009000  0.01281000  0.39829000  1.0 -0.4044950288
O  O34  1  0.61834000  0.02406000  0.46662000  1.0 -0.4828168472
O  O35  1  0.39829000  0.92881000  0.66009000  1.0 -0.4063689114
O  O36  1  0.46662000  0.89098000  0.61834000  1.0 -0.4859848899
O  O37  1  0.01281000  0.66009000  0.92881000  1.0 -0.4063689114
O  O38  1  0.02406000  0.61834000  0.89098000  1.0 -0.4828168472
O  O39  1  0.92881000  0.39829000  0.01281000  1.0 -0.4063689114
O  O40  1  0.89098000  0.46662000  0.02406000  1.0 -0.4828168472
O  O41  1  0.92881000  0.66009000  0.39829000  1.0 -0.4063689114
O  O42  1  0.89098000  0.61834000  0.46662000  1.0 -0.4828168472
O  O43  1  0.01281000  0.39829000  0.66009000  1.0 -0.4063689114
O  O44  1  0.02406000  0.46662000  0.61834000  1.0 -0.4828168472
O  O45  1  0.39829000  0.01281000  0.92881000  1.0 -0.4063689114
O  O46  1  0.46662000  0.02406000  0.89098000  1.0 -0.4828168472
O  O47  1  0.66009000  0.92881000  0.01281000  1.0 -0.4063689114
O  O48  1  0.61834000  0.89098000  0.02406000  1.0 -0.4859848899
O  O49  1  0.01281000  0.92881000  0.66009000  1.0 -0.4063689114
O  O50  1  0.02406000  0.89098000  0.61834000  1.0 -0.4859848899
O  O51  1  0.92881000  0.01281000  0.39829000  1.0 -0.4063689114
O  O52  1  0.89098000  0.02406000  0.46662000  1.0 -0.4828168472
O  O53  1  0.66009000  0.39829000  0.01281000  1.0 -0.4063689114
O  O54  1  0.61834000  0.46662000  0.02406000  1.0 -0.4859848899
O  O55  1  0.39829000  0.66009000  0.92881000  1.0 -0.4063689114
O  O56  1  0.46662000  0.61834000  0.89098000  1.0 -0.4828168472
O  O57  1  0.66009000  0.01281000  0.92881000  1.0 -0.4063689114
O  O58  1  0.61834000  0.02406000  0.89098000  1.0 -0.4828168472
O  O59  1  0.39829000  0.92881000  0.01281000  1.0 -0.4063689114
O  O60  1  0.46662000  0.89098000  0.02406000  1.0 -0.4828168472
O  O61  1  0.01281000  0.66009000  0.39829000  1.0 -0.4063689114
O  O62  1  0.02406000  0.61834000  0.46662000  1.0 -0.4828168472
O  O63  1  0.92881000  0.39829000  0.66009000  1.0 -0.4044950288
O  O64  1  0.89098000  0.46662000  0.61834000  1.0 -0.4859848899
O  O65  1  0.92881000  0.66009000  0.01281000  1.0 -0.4063689114
O  O66  1  0.89098000  0.61834000  0.02406000  1.0 -0.4828168472
O  O67  1  0.01281000  0.39829000  0.92881000  1.0 -0.4063689114
O  O68  1  0.02406000  0.46662000  0.89098000  1.0 -0.4859848899
O  O69  1  0.39829000  0.01281000  0.66009000  1.0 -0.4063689114
O  O70  1  0.46662000  0.02406000  0.61834000  1.0 -0.4828168472
O  O71  1  0.66009000  0.92881000  0.39829000  1.0 -0.4063689114
O  O72  1  0.61834000  0.89098000  0.46662000  1.0 -0.4828168472
O  O73  1  0.98719000  0.07119000  0.60171000  1.0 -0.4063689114
O  O74  1  0.97594000  0.10902000  0.53338000  1.0 -0.4828168472
O  O75  1  0.07119000  0.98719000  0.33991000  1.0 -0.4063689114
O  O76  1  0.10902000  0.97594000  0.38166000  1.0 -0.4828168472
O  O77  1  0.33991000  0.60171000  0.07119000  1.0 -0.4063689114
O  O78  1  0.38166000  0.53338000  0.10902000  1.0 -0.4828168472
O  O79  1  0.60171000  0.33991000  0.98719000  1.0 -0.4063689114
O  O80  1  0.53338000  0.38166000  0.97594000  1.0 -0.4859848899
O  O81  1  0.33991000  0.98719000  0.60171000  1.0 -0.4063689114
O  O82  1  0.38166000  0.97594000  0.53338000  1.0 -0.4828168472
O  O83  1  0.60171000  0.07119000  0.33991000  1.0 -0.4063689114
O  O84  1  0.53338000  0.10902000  0.38166000  1.0 -0.4828168472
O  O85  1  0.98719000  0.33991000  0.07119000  1.0 -0.4063689114
O  O86  1  0.97594000  0.38166000  0.10902000  1.0 -0.4828168472
O  O87  1  0.07119000  0.60171000  0.98719000  1.0 -0.4063689114
O  O88  1  0.10902000  0.53338000  0.97594000  1.0 -0.4828168472
O  O89  1  0.07119000  0.33991000  0.60171000  1.0 -0.4063689114
O  O90  1  0.10902000  0.38166000  0.53338000  1.0 -0.4828168472
O  O91  1  0.98719000  0.60171000  0.33991000  1.0 -0.4063689114
O  O92  1  0.97594000  0.53338000  0.38166000  1.0 -0.4828168472
O  O93  1  0.60171000  0.98719000  0.07119000  1.0 -0.4063689114
O  O94  1  0.53338000  0.97594000  0.10902000  1.0 -0.4828168472
O  O95  1  0.33991000  0.07119000  0.98719000  1.0 -0.4063689114
O  O96  1  0.38166000  0.10902000  0.97594000  1.0 -0.4828168472
O  O97  1  0.01178000  0.01178000  0.48508000  1.0 -0.2384819107
O  O98  1  0.01178000  0.01178000  0.49136000  1.0 -0.2384819107
O  O99  1  0.48508000  0.49136000  0.01178000  1.0 -0.2384819107
O  O100  1  0.49136000  0.48508000  0.01178000  1.0 -0.2384819107
O  O101  1  0.48508000  0.01178000  0.01178000  1.0 -0.2384819107
O  O102  1  0.49136000  0.01178000  0.01178000  1.0 -0.245321272
O  O103  1  0.01178000  0.48508000  0.49136000  1.0 -0.2384819107
O  O104  1  0.01178000  0.49136000  0.48508000  1.0 -0.2384819107
O  O105  1  0.01178000  0.48508000  0.01178000  1.0 -0.2384819107
O  O106  1  0.01178000  0.49136000  0.01178000  1.0 -0.2384819107
O  O107  1  0.49136000  0.01178000  0.48508000  1.0 -0.2384819107
O  O108  1  0.48508000  0.01178000  0.49136000  1.0 -0.2384819107
O  O109  1  0.98822000  0.98822000  0.50864000  1.0 -0.2384819107
O  O110  1  0.98822000  0.98822000  0.51492000  1.0 -0.2384819107
O  O111  1  0.51492000  0.50864000  0.98822000  1.0 -0.2312351795
O  O112  1  0.50864000  0.51492000  0.98822000  1.0 -0.2384819107
O  O113  1  0.51492000  0.98822000  0.50864000  1.0 -0.2312351795
O  O114  1  0.50864000  0.98822000  0.51492000  1.0 -0.2384819107
O  O115  1  0.98822000  0.51492000  0.98822000  1.0 -0.2384819107
O  O116  1  0.98822000  0.50864000  0.98822000  1.0 -0.2312351795
O  O117  1  0.98822000  0.51492000  0.50864000  1.0 -0.2312351795
O  O118  1  0.98822000  0.50864000  0.51492000  1.0 -0.2384819107
O  O119  1  0.50864000  0.98822000  0.98822000  1.0 -0.2312351795
O  O120  1  0.51492000  0.98822000  0.98822000  1.0 -0.2312351795
O  O121  1  0.06492000  0.93508000  0.53696000  1.0 -0.6210267585
O  O122  1  0.93508000  0.06492000  0.46304000  1.0 -0.6210267585
O  O123  1  0.53696000  0.46304000  0.06492000  1.0 -0.6210267585
O  O124  1  0.46304000  0.53696000  0.93508000  1.0 -0.6291620746
O  O125  1  0.53696000  0.06492000  0.93508000  1.0 -0.6210267585
O  O126  1  0.46304000  0.93508000  0.06492000  1.0 -0.6291620746
O  O127  1  0.06492000  0.53696000  0.46304000  1.0 -0.6291620746
O  O128  1  0.93508000  0.46304000  0.53696000  1.0 -0.6210267585
O  O129  1  0.93508000  0.53696000  0.06492000  1.0 -0.6210267585
O  O130  1  0.06492000  0.46304000  0.93508000  1.0 -0.6210267585
O  O131  1  0.46304000  0.06492000  0.53696000  1.0 -0.6210267585
O  O132  1  0.53696000  0.93508000  0.46304000  1.0 -0.6291620746
O  O133  1  0.93508000  0.06492000  0.53696000  1.0 -0.6210267585
O  O134  1  0.06492000  0.93508000  0.46304000  1.0 -0.6210267585
O  O135  1  0.46304000  0.53696000  0.06492000  1.0 -0.6291620746
O  O136  1  0.53696000  0.46304000  0.93508000  1.0 -0.6210267585
O  O137  1  0.46304000  0.93508000  0.53696000  1.0 -0.6291620746
O  O138  1  0.53696000  0.06492000  0.46304000  1.0 -0.6210267585
O  O139  1  0.93508000  0.46304000  0.06492000  1.0 -0.6210267585
O  O140  1  0.06492000  0.53696000  0.93508000  1.0 -0.6291620746
O  O141  1  0.06492000  0.46304000  0.53696000  1.0 -0.6210267585
O  O142  1  0.93508000  0.53696000  0.46304000  1.0 -0.6291620746
O  O143  1  0.53696000  0.93508000  0.06492000  1.0 -0.6291620746
O  O144  1  0.46304000  0.06492000  0.93508000  1.0 -0.6210267585
