# DDEC6 charges by PACMAN v1.1 (https://github.com/mtap-research/PACMAN-charge/)
data_OXODIR_ASR_pacman
_symmetry_space_group_name_H-M   'P 1'
_cell_length_a   27.40020000
_cell_length_b   27.40020000
_cell_length_c   27.40020000
_cell_angle_alpha   60.00000000
_cell_angle_beta   60.00000000
_cell_angle_gamma   60.00000000
_symmetry_Int_Tables_number   1
_chemical_formula_structural   Zr3C12(SO6)2
_chemical_formula_sum   'Zr36 C144 S24 O144'
_cell_volume   14546.08766781
_cell_formula_units_Z   12
loop_
 _symmetry_equiv_pos_site_id
 _symmetry_equiv_pos_as_xyz
  1  'x, y, z'
loop_
 _atom_site_type_symbol
 _atom_site_label
 _atom_site_symmetry_multiplicity
 _atom_site_fract_x
 _atom_site_fract_y
 _atom_site_fract_z
 _atom_site_occupancy
 _atom_site_charge
Zr  Zr1  1  0.89748000  0.54222000  0.01808000  1.0 2.2178328768
Zr  Zr2  1  0.01808000  0.54222000  0.89748000  1.0 2.2086926305
Zr  Zr3  1  0.54222000  0.89748000  0.54222000  1.0 2.2086926305
Zr  Zr4  1  0.54222000  0.01808000  0.54222000  1.0 2.2178328768
Zr  Zr5  1  0.54222000  0.01808000  0.89748000  1.0 2.2086926305
Zr  Zr6  1  0.54222000  0.89748000  0.01808000  1.0 2.2086926305
Zr  Zr7  1  0.89748000  0.54222000  0.54222000  1.0 2.2086926305
Zr  Zr8  1  0.01808000  0.54222000  0.54222000  1.0 2.202464749
Zr  Zr9  1  0.01808000  0.89748000  0.54222000  1.0 2.2086926305
Zr  Zr10  1  0.89748000  0.01808000  0.54222000  1.0 2.2178328768
Zr  Zr11  1  0.54222000  0.54222000  0.89748000  1.0 2.2086926305
Zr  Zr12  1  0.54222000  0.54222000  0.01808000  1.0 2.2086926305
Zr  Zr13  1  0.10252000  0.45778000  0.98192000  1.0 2.202464749
Zr  Zr14  1  0.98192000  0.45778000  0.10252000  1.0 2.2086926305
Zr  Zr15  1  0.45778000  0.98192000  0.45778000  1.0 2.2086926305
Zr  Zr16  1  0.45778000  0.10252000  0.45778000  1.0 2.2086926305
Zr  Zr17  1  0.45778000  0.45778000  0.10252000  1.0 2.202464749
Zr  Zr18  1  0.45778000  0.45778000  0.98192000  1.0 2.202464749
Zr  Zr19  1  0.10252000  0.98192000  0.45778000  1.0 2.202464749
Zr  Zr20  1  0.98192000  0.10252000  0.45778000  1.0 2.2178328768
Zr  Zr21  1  0.98192000  0.45778000  0.45778000  1.0 2.2086926305
Zr  Zr22  1  0.10252000  0.45778000  0.45778000  1.0 2.2086926305
Zr  Zr23  1  0.45778000  0.98192000  0.10252000  1.0 2.2086926305
Zr  Zr24  1  0.45778000  0.10252000  0.98192000  1.0 2.2178328768
Zr  Zr25  1  0.00000000  0.58630000  0.00000000  1.0 2.1093534008
Zr  Zr26  1  0.00000000  0.41370000  0.00000000  1.0 2.1032055394
Zr  Zr27  1  0.58630000  0.00000000  0.41370000  1.0 2.1093534008
Zr  Zr28  1  0.41370000  0.00000000  0.58630000  1.0 2.1171094552
Zr  Zr29  1  0.58630000  0.00000000  0.00000000  1.0 2.1171094552
Zr  Zr30  1  0.41370000  0.00000000  0.00000000  1.0 2.1171094552
Zr  Zr31  1  0.00000000  0.41370000  0.58630000  1.0 2.1032055394
Zr  Zr32  1  0.00000000  0.58630000  0.41370000  1.0 2.1032055394
Zr  Zr33  1  0.00000000  0.00000000  0.58630000  1.0 2.1171094552
Zr  Zr34  1  0.00000000  0.00000000  0.41370000  1.0 2.1093534008
Zr  Zr35  1  0.41370000  0.58630000  0.00000000  1.0 2.1093534008
Zr  Zr36  1  0.58630000  0.41370000  0.00000000  1.0 2.1032055394
C  C1  1  0.01952000  0.66994000  0.87174000  1.0 0.6909525237
C  C2  1  0.01820000  0.72958000  0.82892000  1.0 -0.2118823407
C  C3  1  0.00307000  0.78317000  0.83247000  1.0 0.0199450679
C  C4  1  0.87174000  0.43879000  0.01953000  1.0 0.6974303698
C  C5  1  0.82892000  0.42330000  0.01820000  1.0 -0.2162223234
C  C6  1  0.83247000  0.38129000  0.00307000  1.0 0.0199450679
C  C7  1  0.66993000  0.01952000  0.43879000  1.0 0.6909525237
C  C8  1  0.72958000  0.01820000  0.42330000  1.0 -0.2118823407
C  C9  1  0.78317000  0.00307000  0.38129000  1.0 0.0199450679
C  C10  1  0.43880000  0.87174000  0.66993000  1.0 0.6974303698
C  C11  1  0.42330000  0.82892000  0.72958000  1.0 -0.2118823407
C  C12  1  0.38129000  0.83247000  0.78317000  1.0 0.0199450679
C  C13  1  0.66993000  0.87174000  0.01953000  1.0 0.6909525237
C  C14  1  0.72958000  0.82892000  0.01820000  1.0 -0.2118823407
C  C15  1  0.78317000  0.83247000  0.00307000  1.0 0.0199450679
C  C16  1  0.43879000  0.01953000  0.87174000  1.0 0.6909525237
C  C17  1  0.42330000  0.01820000  0.82892000  1.0 -0.2118823407
C  C18  1  0.38129000  0.00307000  0.83247000  1.0 0.0199450679
C  C19  1  0.01952000  0.43880000  0.66993000  1.0 0.6909525237
C  C20  1  0.01820000  0.42330000  0.72958000  1.0 -0.2118823407
C  C21  1  0.00307000  0.38129000  0.78317000  1.0 0.0199450679
C  C22  1  0.87174000  0.66993000  0.43879000  1.0 0.6909525237
C  C23  1  0.82892000  0.72958000  0.42330000  1.0 -0.2118823407
C  C24  1  0.83247000  0.78317000  0.38129000  1.0 0.0199450679
C  C25  1  0.87174000  0.01953000  0.66993000  1.0 0.6909525237
C  C26  1  0.82892000  0.01820000  0.72958000  1.0 -0.2118823407
C  C27  1  0.83247000  0.00307000  0.78317000  1.0 0.0199450679
C  C28  1  0.01953000  0.87174000  0.43879000  1.0 0.6909525237
C  C29  1  0.01820000  0.82892000  0.42330000  1.0 -0.2118823407
C  C30  1  0.00307000  0.83247000  0.38129000  1.0 0.0199450679
C  C31  1  0.43879000  0.66993000  0.01953000  1.0 0.6909525237
C  C32  1  0.42330000  0.72958000  0.01820000  1.0 -0.2118823407
C  C33  1  0.38129000  0.78317000  0.00307000  1.0 0.0199450679
C  C34  1  0.66993000  0.43880000  0.87174000  1.0 0.6909525237
C  C35  1  0.72958000  0.42330000  0.82892000  1.0 -0.2118823407
C  C36  1  0.78317000  0.38129000  0.83247000  1.0 0.0199450679
C  C37  1  0.98048000  0.56120000  0.12826000  1.0 0.6974303698
C  C38  1  0.98180000  0.57670000  0.17108000  1.0 -0.2118823407
C  C39  1  0.99693000  0.61871000  0.16753000  1.0 0.025959203
C  C40  1  0.12826000  0.33006000  0.98047000  1.0 0.6909525237
C  C41  1  0.17108000  0.27042000  0.98180000  1.0 -0.2118823407
C  C42  1  0.16753000  0.21683000  0.99693000  1.0 0.0199450679
C  C43  1  0.33006000  0.12826000  0.56120000  1.0 0.6909525237
C  C44  1  0.27042000  0.17108000  0.57670000  1.0 -0.2118823407
C  C45  1  0.21683000  0.16753000  0.61871000  1.0 0.0199450679
C  C46  1  0.56120000  0.98048000  0.33006000  1.0 0.6974303698
C  C47  1  0.57670000  0.98180000  0.27042000  1.0 -0.2118823407
C  C48  1  0.61871000  0.99693000  0.21683000  1.0 0.0199450679
C  C49  1  0.33007000  0.56120000  0.98047000  1.0 0.6909525237
C  C50  1  0.27042000  0.57670000  0.98180000  1.0 -0.2118823407
C  C51  1  0.21683000  0.61871000  0.99693000  1.0 0.0199450679
C  C52  1  0.56120000  0.33006000  0.12826000  1.0 0.6974303698
C  C53  1  0.57670000  0.27042000  0.17108000  1.0 -0.2162223234
C  C54  1  0.61871000  0.21683000  0.16753000  1.0 0.0199450679
C  C55  1  0.98047000  0.12826000  0.33006000  1.0 0.6909525237
C  C56  1  0.98180000  0.17108000  0.27042000  1.0 -0.2118823407
C  C57  1  0.99693000  0.16753000  0.21683000  1.0 0.0199450679
C  C58  1  0.12825000  0.98048000  0.56120000  1.0 0.6909525237
C  C59  1  0.17108000  0.98180000  0.57670000  1.0 -0.2118823407
C  C60  1  0.16753000  0.99693000  0.61871000  1.0 0.0199450679
C  C61  1  0.12825000  0.56120000  0.33006000  1.0 0.6909525237
C  C62  1  0.17108000  0.57670000  0.27042000  1.0 -0.2162223234
C  C63  1  0.16753000  0.61871000  0.21683000  1.0 0.0199450679
C  C64  1  0.98047000  0.33006000  0.56120000  1.0 0.6974303698
C  C65  1  0.98180000  0.27042000  0.57670000  1.0 -0.2118823407
C  C66  1  0.99693000  0.21683000  0.61871000  1.0 0.0199450679
C  C67  1  0.56120000  0.12825000  0.98047000  1.0 0.6909525237
C  C68  1  0.57670000  0.17108000  0.98180000  1.0 -0.2118823407
C  C69  1  0.61871000  0.16753000  0.99693000  1.0 0.0199450679
C  C70  1  0.33006000  0.98048000  0.12826000  1.0 0.6974303698
C  C71  1  0.27042000  0.98180000  0.17108000  1.0 -0.2118823407
C  C72  1  0.21683000  0.99693000  0.16753000  1.0 0.0199450679
C  C73  1  0.98047000  0.33006000  0.12826000  1.0 0.6974303698
C  C74  1  0.98180000  0.27042000  0.17108000  1.0 -0.2118823407
C  C75  1  0.99693000  0.21683000  0.16753000  1.0 0.0199450679
C  C76  1  0.12826000  0.56120000  0.98047000  1.0 0.6909525237
C  C77  1  0.17108000  0.57670000  0.98180000  1.0 -0.2118823407
C  C78  1  0.16753000  0.61871000  0.99693000  1.0 0.0199450679
C  C79  1  0.33006000  0.98048000  0.56120000  1.0 0.6909525237
C  C80  1  0.27042000  0.98180000  0.57670000  1.0 -0.2118823407
C  C81  1  0.21683000  0.99693000  0.61871000  1.0 0.0199450679
C  C82  1  0.56120000  0.12826000  0.33006000  1.0 0.6909525237
C  C83  1  0.57670000  0.17108000  0.27042000  1.0 -0.2118823407
C  C84  1  0.61871000  0.16753000  0.21683000  1.0 0.0199450679
C  C85  1  0.33006000  0.12825000  0.98047000  1.0 0.6909525237
C  C86  1  0.27042000  0.17108000  0.98180000  1.0 -0.2118823407
C  C87  1  0.21683000  0.16753000  0.99693000  1.0 0.0199450679
C  C88  1  0.56120000  0.98048000  0.12826000  1.0 0.6909525237
C  C89  1  0.57670000  0.98180000  0.17108000  1.0 -0.2118823407
C  C90  1  0.61871000  0.99693000  0.16753000  1.0 0.0199450679
C  C91  1  0.98048000  0.56120000  0.33006000  1.0 0.6974303698
C  C92  1  0.98180000  0.57670000  0.27042000  1.0 -0.2162223234
C  C93  1  0.99693000  0.61871000  0.21683000  1.0 0.0199450679
C  C94  1  0.12826000  0.33006000  0.56120000  1.0 0.6909525237
C  C95  1  0.17108000  0.27042000  0.57670000  1.0 -0.2118823407
C  C96  1  0.16753000  0.21683000  0.61871000  1.0 0.0199450679
C  C97  1  0.12825000  0.98048000  0.33006000  1.0 0.6909525237
C  C98  1  0.17108000  0.98180000  0.27042000  1.0 -0.2118823407
C  C99  1  0.16753000  0.99693000  0.21683000  1.0 0.0199450679
C  C100  1  0.98048000  0.12826000  0.56120000  1.0 0.6909525237
C  C101  1  0.98180000  0.17108000  0.57670000  1.0 -0.2118823407
C  C102  1  0.99693000  0.16753000  0.61871000  1.0 0.0199450679
C  C103  1  0.56120000  0.33006000  0.98047000  1.0 0.6909525237
C  C104  1  0.57670000  0.27042000  0.98180000  1.0 -0.2118823407
C  C105  1  0.61871000  0.21683000  0.99693000  1.0 0.0199450679
C  C106  1  0.33006000  0.56120000  0.12826000  1.0 0.6909525237
C  C107  1  0.27042000  0.57670000  0.17108000  1.0 -0.2118823407
C  C108  1  0.21683000  0.61871000  0.16753000  1.0 0.0199450679
C  C109  1  0.01952000  0.43880000  0.87174000  1.0 0.6909525237
C  C110  1  0.01820000  0.42330000  0.82892000  1.0 -0.2118823407
C  C111  1  0.00307000  0.38129000  0.83247000  1.0 0.0199450679
C  C112  1  0.87174000  0.66993000  0.01953000  1.0 0.6974303698
C  C113  1  0.82892000  0.72958000  0.01820000  1.0 -0.2162223234
C  C114  1  0.83247000  0.78317000  0.00307000  1.0 0.0199450679
C  C115  1  0.66993000  0.87174000  0.43879000  1.0 0.6909525237
C  C116  1  0.72958000  0.82892000  0.42330000  1.0 -0.2118823407
C  C117  1  0.78317000  0.83247000  0.38129000  1.0 0.0199450679
C  C118  1  0.43880000  0.01953000  0.66993000  1.0 0.6909525237
C  C119  1  0.42330000  0.01820000  0.72958000  1.0 -0.2118823407
C  C120  1  0.38129000  0.00307000  0.78317000  1.0 0.0199450679
C  C121  1  0.66993000  0.43879000  0.01953000  1.0 0.6909525237
C  C122  1  0.72958000  0.42330000  0.01820000  1.0 -0.2118823407
C  C123  1  0.78317000  0.38129000  0.00307000  1.0 0.0199450679
C  C124  1  0.43879000  0.66994000  0.87174000  1.0 0.6974303698
C  C125  1  0.42330000  0.72958000  0.82892000  1.0 -0.2118823407
C  C126  1  0.38129000  0.78317000  0.83247000  1.0 0.0199450679
C  C127  1  0.01953000  0.87174000  0.66993000  1.0 0.6909525237
C  C128  1  0.01820000  0.82892000  0.72958000  1.0 -0.2118823407
C  C129  1  0.00307000  0.83247000  0.78317000  1.0 0.0199450679
C  C130  1  0.87174000  0.01952000  0.43879000  1.0 0.6909525237
C  C131  1  0.82892000  0.01820000  0.42330000  1.0 -0.2118823407
C  C132  1  0.83247000  0.00307000  0.38129000  1.0 0.0199450679
C  C133  1  0.87174000  0.43880000  0.66993000  1.0 0.6974303698
C  C134  1  0.82892000  0.42330000  0.72958000  1.0 -0.2118823407
C  C135  1  0.83247000  0.38129000  0.78317000  1.0 0.0199450679
C  C136  1  0.01953000  0.66993000  0.43879000  1.0 0.6909525237
C  C137  1  0.01820000  0.72958000  0.42330000  1.0 -0.2118823407
C  C138  1  0.00307000  0.78317000  0.38129000  1.0 0.0199450679
C  C139  1  0.43879000  0.87174000  0.01953000  1.0 0.6909525237
C  C140  1  0.42330000  0.82892000  0.01820000  1.0 -0.2162223234
C  C141  1  0.38129000  0.83247000  0.00307000  1.0 0.0199450679
C  C142  1  0.66993000  0.01953000  0.87174000  1.0 0.6909525237
C  C143  1  0.72958000  0.01820000  0.82892000  1.0 -0.2118823407
C  C144  1  0.78317000  0.00307000  0.83247000  1.0 0.0199450679
S  S1  1  0.03363000  0.75423000  0.75423000  1.0 0.208828594
S  S2  1  0.75423000  0.45791000  0.03363000  1.0 0.208828594
S  S3  1  0.75423000  0.03363000  0.45791000  1.0 0.208828594
S  S4  1  0.45791000  0.75423000  0.75423000  1.0 0.2329717055
S  S5  1  0.75423000  0.75423000  0.03363000  1.0 0.208828594
S  S6  1  0.45791000  0.03363000  0.75423000  1.0 0.208828594
S  S7  1  0.03363000  0.45791000  0.75423000  1.0 0.208828594
S  S8  1  0.75423000  0.75423000  0.45791000  1.0 0.2329717055
S  S9  1  0.75423000  0.03363000  0.75423000  1.0 0.208828594
S  S10  1  0.03363000  0.75423000  0.45791000  1.0 0.2329717055
S  S11  1  0.45791000  0.75423000  0.03363000  1.0 0.208828594
S  S12  1  0.75423000  0.45791000  0.75423000  1.0 0.2040211782
S  S13  1  0.96637000  0.54209000  0.24577000  1.0 0.208828594
S  S14  1  0.24577000  0.24577000  0.96637000  1.0 0.2376442527
S  S15  1  0.24577000  0.24577000  0.54209000  1.0 0.208828594
S  S16  1  0.54209000  0.96637000  0.24577000  1.0 0.2329717055
S  S17  1  0.24577000  0.54209000  0.96637000  1.0 0.208828594
S  S18  1  0.54209000  0.24577000  0.24577000  1.0 0.2329717055
S  S19  1  0.96637000  0.24577000  0.24577000  1.0 0.2329717055
S  S20  1  0.24577000  0.96637000  0.54209000  1.0 0.2376442527
S  S21  1  0.24577000  0.54209000  0.24577000  1.0 0.208828594
S  S22  1  0.96637000  0.24577000  0.54209000  1.0 0.208828594
S  S23  1  0.54209000  0.24577000  0.96637000  1.0 0.208828594
S  S24  1  0.24577000  0.96637000  0.24577000  1.0 0.2376442527
O  O1  1  0.00425000  0.66681000  0.92437000  1.0 -0.5178836609
O  O2  1  0.02752000  0.62868000  0.85780000  1.0 -0.5722424756
O  O3  1  0.92437000  0.40457000  0.00425000  1.0 -0.5144253133
O  O4  1  0.85780000  0.48600000  0.02752000  1.0 -0.5722424756
O  O5  1  0.66681000  0.00425000  0.40457000  1.0 -0.5178836609
O  O6  1  0.62868000  0.02752000  0.48600000  1.0 -0.5722424756
O  O7  1  0.40457000  0.92437000  0.66681000  1.0 -0.5178836609
O  O8  1  0.48600000  0.85780000  0.62868000  1.0 -0.5722424756
O  O9  1  0.66681000  0.92437000  0.00425000  1.0 -0.5178836609
O  O10  1  0.62868000  0.85780000  0.02752000  1.0 -0.5722424756
O  O11  1  0.40457000  0.00425000  0.92437000  1.0 -0.5178836609
O  O12  1  0.48600000  0.02752000  0.85780000  1.0 -0.5722424756
O  O13  1  0.00425000  0.40457000  0.66681000  1.0 -0.5178836609
O  O14  1  0.02752000  0.48600000  0.62868000  1.0 -0.5722424756
O  O15  1  0.92437000  0.66681000  0.40457000  1.0 -0.5178836609
O  O16  1  0.85780000  0.62868000  0.48600000  1.0 -0.5761238957
O  O17  1  0.92437000  0.00425000  0.66681000  1.0 -0.5144253133
O  O18  1  0.85780000  0.02752000  0.62868000  1.0 -0.5722424756
O  O19  1  0.00425000  0.92437000  0.40457000  1.0 -0.5178836609
O  O20  1  0.02752000  0.85780000  0.48600000  1.0 -0.5761238957
O  O21  1  0.40457000  0.66681000  0.00425000  1.0 -0.5178836609
O  O22  1  0.48600000  0.62868000  0.02752000  1.0 -0.5722424756
O  O23  1  0.66681000  0.40457000  0.92437000  1.0 -0.5144253133
O  O24  1  0.62868000  0.48600000  0.85780000  1.0 -0.5722424756
O  O25  1  0.99575000  0.59543000  0.07563000  1.0 -0.5178836609
O  O26  1  0.97248000  0.51400000  0.14220000  1.0 -0.5722424756
O  O27  1  0.07563000  0.33319000  0.99575000  1.0 -0.5178836609
O  O28  1  0.14220000  0.37132000  0.97248000  1.0 -0.5761238957
O  O29  1  0.33319000  0.07563000  0.59543000  1.0 -0.5178836609
O  O30  1  0.37132000  0.14220000  0.51400000  1.0 -0.5722424756
O  O31  1  0.59543000  0.99575000  0.33319000  1.0 -0.5178836609
O  O32  1  0.51400000  0.97248000  0.37132000  1.0 -0.5761238957
O  O33  1  0.33319000  0.59543000  0.99575000  1.0 -0.5178836609
O  O34  1  0.37132000  0.51400000  0.97248000  1.0 -0.5722424756
O  O35  1  0.59543000  0.33319000  0.07563000  1.0 -0.5144253133
O  O36  1  0.51400000  0.37132000  0.14220000  1.0 -0.5722424756
O  O37  1  0.99575000  0.07563000  0.33319000  1.0 -0.5178836609
O  O38  1  0.97248000  0.14220000  0.37132000  1.0 -0.5761238957
O  O39  1  0.07563000  0.99575000  0.59543000  1.0 -0.5178836609
O  O40  1  0.14220000  0.97248000  0.51400000  1.0 -0.5761238957
O  O41  1  0.07563000  0.59543000  0.33319000  1.0 -0.5178836609
O  O42  1  0.14220000  0.51400000  0.37132000  1.0 -0.5722424756
O  O43  1  0.99575000  0.33319000  0.59543000  1.0 -0.5178836609
O  O44  1  0.97248000  0.37132000  0.51400000  1.0 -0.5722424756
O  O45  1  0.59543000  0.07563000  0.99575000  1.0 -0.5178836609
O  O46  1  0.51400000  0.14220000  0.97248000  1.0 -0.5722424756
O  O47  1  0.33319000  0.99575000  0.07563000  1.0 -0.5144253133
O  O48  1  0.37132000  0.97248000  0.14220000  1.0 -0.5722424756
O  O49  1  0.99575000  0.33319000  0.07563000  1.0 -0.5178836609
O  O50  1  0.97248000  0.37132000  0.14220000  1.0 -0.5761238957
O  O51  1  0.07563000  0.59543000  0.99575000  1.0 -0.5178836609
O  O52  1  0.14220000  0.51400000  0.97248000  1.0 -0.5722424756
O  O53  1  0.33319000  0.99575000  0.59543000  1.0 -0.5178836609
O  O54  1  0.37132000  0.97248000  0.51400000  1.0 -0.5722424756
O  O55  1  0.59543000  0.07563000  0.33319000  1.0 -0.5178836609
O  O56  1  0.51400000  0.14220000  0.37132000  1.0 -0.5761238957
O  O57  1  0.33319000  0.07563000  0.99575000  1.0 -0.5144253133
O  O58  1  0.37132000  0.14220000  0.97248000  1.0 -0.5722424756
O  O59  1  0.59543000  0.99575000  0.07563000  1.0 -0.5178836609
O  O60  1  0.51400000  0.97248000  0.14220000  1.0 -0.5761238957
O  O61  1  0.99575000  0.59543000  0.33319000  1.0 -0.5178836609
O  O62  1  0.97248000  0.51400000  0.37132000  1.0 -0.5722424756
O  O63  1  0.07563000  0.33319000  0.59543000  1.0 -0.5144253133
O  O64  1  0.14220000  0.37132000  0.51400000  1.0 -0.5722424756
O  O65  1  0.07563000  0.99575000  0.33319000  1.0 -0.5178836609
O  O66  1  0.14220000  0.97248000  0.37132000  1.0 -0.5761238957
O  O67  1  0.99575000  0.07563000  0.59543000  1.0 -0.5144253133
O  O68  1  0.97248000  0.14220000  0.51400000  1.0 -0.5722424756
O  O69  1  0.59543000  0.33319000  0.99575000  1.0 -0.5178836609
O  O70  1  0.51400000  0.37132000  0.97248000  1.0 -0.5722424756
O  O71  1  0.33319000  0.59543000  0.07563000  1.0 -0.5178836609
O  O72  1  0.37132000  0.51400000  0.14220000  1.0 -0.5722424756
O  O73  1  0.00425000  0.40457000  0.92437000  1.0 -0.5178836609
O  O74  1  0.02752000  0.48600000  0.85780000  1.0 -0.5722424756
O  O75  1  0.92437000  0.66681000  0.00425000  1.0 -0.5178836609
O  O76  1  0.85780000  0.62868000  0.02752000  1.0 -0.5722424756
O  O77  1  0.66681000  0.92437000  0.40457000  1.0 -0.5178836609
O  O78  1  0.62868000  0.85780000  0.48600000  1.0 -0.5761238957
O  O79  1  0.40457000  0.00425000  0.66681000  1.0 -0.5178836609
O  O80  1  0.48600000  0.02752000  0.62868000  1.0 -0.5722424756
O  O81  1  0.66681000  0.40457000  0.00425000  1.0 -0.5144253133
O  O82  1  0.62868000  0.48600000  0.02752000  1.0 -0.5722424756
O  O83  1  0.40457000  0.66681000  0.92437000  1.0 -0.5178836609
O  O84  1  0.48600000  0.62868000  0.85780000  1.0 -0.5722424756
O  O85  1  0.00425000  0.92437000  0.66681000  1.0 -0.5178836609
O  O86  1  0.02752000  0.85780000  0.62868000  1.0 -0.5761238957
O  O87  1  0.92437000  0.00425000  0.40457000  1.0 -0.5178836609
O  O88  1  0.85780000  0.02752000  0.48600000  1.0 -0.5722424756
O  O89  1  0.92437000  0.40457000  0.66681000  1.0 -0.5178836609
O  O90  1  0.85780000  0.48600000  0.62868000  1.0 -0.5761238957
O  O91  1  0.00425000  0.66681000  0.40457000  1.0 -0.5178836609
O  O92  1  0.02752000  0.62868000  0.48600000  1.0 -0.5761238957
O  O93  1  0.40457000  0.92437000  0.00425000  1.0 -0.5178836609
O  O94  1  0.48600000  0.85780000  0.02752000  1.0 -0.5761238957
O  O95  1  0.66681000  0.00425000  0.92437000  1.0 -0.5178836609
O  O96  1  0.62868000  0.02752000  0.85780000  1.0 -0.5722424756
O  O97  1  0.95115000  0.59801000  0.95115000  1.0 -1.1598643288
O  O98  1  0.95115000  0.49969000  0.95115000  1.0 -1.1598643288
O  O99  1  0.59801000  0.95115000  0.49969000  1.0 -1.1598643288
O  O100  1  0.49969000  0.95115000  0.59801000  1.0 -1.1598643288
O  O101  1  0.59801000  0.95115000  0.95115000  1.0 -1.1598643288
O  O102  1  0.49969000  0.95115000  0.95115000  1.0 -1.1598643288
O  O103  1  0.95115000  0.49969000  0.59801000  1.0 -1.1508204366
O  O104  1  0.95115000  0.59801000  0.49969000  1.0 -1.1508204366
O  O105  1  0.95115000  0.95115000  0.59801000  1.0 -1.1598643288
O  O106  1  0.95115000  0.95115000  0.49969000  1.0 -1.1598643288
O  O107  1  0.49969000  0.59801000  0.95115000  1.0 -1.1598643288
O  O108  1  0.59801000  0.49969000  0.95115000  1.0 -1.1598643288
O  O109  1  0.04885000  0.50031000  0.04885000  1.0 -1.1678507551
O  O110  1  0.04885000  0.40199000  0.04885000  1.0 -1.1508204366
O  O111  1  0.40199000  0.04885000  0.50031000  1.0 -1.1598643288
O  O112  1  0.50031000  0.04885000  0.40199000  1.0 -1.1598643288
O  O113  1  0.40199000  0.50031000  0.04885000  1.0 -1.1598643288
O  O114  1  0.50031000  0.40199000  0.04885000  1.0 -1.1598643288
O  O115  1  0.04885000  0.04885000  0.40199000  1.0 -1.1598643288
O  O116  1  0.04885000  0.04885000  0.50031000  1.0 -1.1598643288
O  O117  1  0.04885000  0.50031000  0.40199000  1.0 -1.1508204366
O  O118  1  0.04885000  0.40199000  0.50031000  1.0 -1.1678507551
O  O119  1  0.50031000  0.04885000  0.04885000  1.0 -1.1598643288
O  O120  1  0.40199000  0.04885000  0.04885000  1.0 -1.1678507551
O  O121  1  0.93050000  0.45004000  0.06950000  1.0 -1.1403208863
O  O122  1  0.06950000  0.54996000  0.93050000  1.0 -1.1403208863
O  O123  1  0.45004000  0.93050000  0.54996000  1.0 -1.1508204366
O  O124  1  0.54996000  0.06950000  0.45004000  1.0 -1.1403208863
O  O125  1  0.45004000  0.06950000  0.93050000  1.0 -1.1403208863
O  O126  1  0.54996000  0.93050000  0.06950000  1.0 -1.1403208863
O  O127  1  0.93050000  0.54996000  0.45004000  1.0 -1.1508204366
O  O128  1  0.06950000  0.45004000  0.54996000  1.0 -1.1403208863
O  O129  1  0.06950000  0.93050000  0.45004000  1.0 -1.1403208863
O  O130  1  0.93050000  0.06950000  0.54996000  1.0 -1.1508204366
O  O131  1  0.54996000  0.45004000  0.93050000  1.0 -1.1403208863
O  O132  1  0.45004000  0.54996000  0.06950000  1.0 -1.1403208863
O  O133  1  0.06950000  0.45004000  0.93050000  1.0 -1.1403208863
O  O134  1  0.93050000  0.54996000  0.06950000  1.0 -1.1403208863
O  O135  1  0.54996000  0.93050000  0.45004000  1.0 -1.1403208863
O  O136  1  0.45004000  0.06950000  0.54996000  1.0 -1.1508204366
O  O137  1  0.54996000  0.45004000  0.06950000  1.0 -1.1403208863
O  O138  1  0.45004000  0.54996000  0.93050000  1.0 -1.1331269964
O  O139  1  0.06950000  0.93050000  0.54996000  1.0 -1.1403208863
O  O140  1  0.93050000  0.06950000  0.45004000  1.0 -1.1403208863
O  O141  1  0.93050000  0.45004000  0.54996000  1.0 -1.1403208863
O  O142  1  0.06950000  0.54996000  0.45004000  1.0 -1.1508204366
O  O143  1  0.45004000  0.93050000  0.06950000  1.0 -1.1403208863
O  O144  1  0.54996000  0.06950000  0.93050000  1.0 -1.1403208863
