# DDEC6 charges by PACMAN v1.1 (https://github.com/mtap-research/PACMAN-charge/)
data_OXUZEO_FSR_pacman
_symmetry_space_group_name_H-M   'P 1'
_cell_length_a   11.51500000
_cell_length_b   19.71600000
_cell_length_c   12.98300000
_cell_angle_alpha   90.00000000
_cell_angle_beta   107.35500000
_cell_angle_gamma   90.00000000
_symmetry_Int_Tables_number   1
_chemical_formula_structural   CuH10C23N4O7
_chemical_formula_sum   'Cu4 H40 C92 N16 O28'
_cell_volume   2813.34064858
_cell_formula_units_Z   4
loop_
 _symmetry_equiv_pos_site_id
 _symmetry_equiv_pos_as_xyz
  1  'x, y, z'
loop_
 _atom_site_type_symbol
 _atom_site_label
 _atom_site_symmetry_multiplicity
 _atom_site_fract_x
 _atom_site_fract_y
 _atom_site_fract_z
 _atom_site_occupancy
 _atom_site_charge
Cu  Cu1  1  0.12009000  0.21126000  0.45704000  1.0 0.7357922846
Cu  Cu2  1  0.37991000  0.71126000  0.54296000  1.0 0.7357922846
Cu  Cu3  1  0.87991000  0.78874000  0.54296000  1.0 0.7357922846
Cu  Cu4  1  0.62009000  0.28874000  0.45704000  1.0 0.7357922846
H  H1  1  0.97510000  0.20160000  0.05810000  1.0 0.1396277749
H  H2  1  0.52490000  0.70160000  0.94190000  1.0 0.1396277749
H  H3  1  0.96800000  0.18950000  0.23100000  1.0 0.120013238
H  H4  1  0.53200000  0.68950000  0.76900000  1.0 0.120013238
H  H5  1  0.33500000  0.20770000  0.17600000  1.0 0.1396277749
H  H6  1  0.16500000  0.70770000  0.82400000  1.0 0.1396277749
H  H7  1  0.22100000  0.94630000  0.51130000  1.0 0.1294391704
H  H8  1  0.27900000  0.44630000  0.48870000  1.0 0.1294391704
H  H9  1  0.45700000  0.10040000  0.61300000  1.0 0.1294391704
H  H10  1  0.04300000  0.60040000  0.38700000  1.0 0.1294391704
H  H11  1  0.57100000  0.91060000  0.65400000  1.0 0.1294391704
H  H12  1  0.92900000  0.41060000  0.34600000  1.0 0.1294391704
H  H13  1  0.81900000  0.00500000  0.75500000  1.0 0.3797546678
H  H14  1  0.68100000  0.50500000  0.24500000  1.0 0.3797546678
H  H15  1  0.31000000  0.20380000  0.35300000  1.0 0.1294391704
H  H16  1  0.19000000  0.70380000  0.64700000  1.0 0.1294391704
H  H17  1  0.98000000  0.11300000  0.42700000  1.0 0.3601038137
H  H18  1  0.52000000  0.61300000  0.57300000  1.0 0.3601038137
H  H19  1  0.88100000  0.15350000  0.42600000  1.0 0.3601038137
H  H20  1  0.61900000  0.65350000  0.57400000  1.0 0.3601038137
H  H21  1  0.02490000  0.79840000  0.94190000  1.0 0.1396277749
H  H22  1  0.47510000  0.29840000  0.05810000  1.0 0.1396277749
H  H23  1  0.03200000  0.81050000  0.76900000  1.0 0.120013238
H  H24  1  0.46800000  0.31050000  0.23100000  1.0 0.120013238
H  H25  1  0.66500000  0.79230000  0.82400000  1.0 0.1396277749
H  H26  1  0.83500000  0.29230000  0.17600000  1.0 0.1396277749
H  H27  1  0.77900000  0.05370000  0.48870000  1.0 0.1294391704
H  H28  1  0.72100000  0.55370000  0.51130000  1.0 0.1294391704
H  H29  1  0.54300000  0.89960000  0.38700000  1.0 0.1294391704
H  H30  1  0.95700000  0.39960000  0.61300000  1.0 0.1294391704
H  H31  1  0.42900000  0.08940000  0.34600000  1.0 0.1294391704
H  H32  1  0.07100000  0.58940000  0.65400000  1.0 0.1294391704
H  H33  1  0.18100000  0.99500000  0.24500000  1.0 0.3797546678
H  H34  1  0.31900000  0.49500000  0.75500000  1.0 0.3797546678
H  H35  1  0.69000000  0.79620000  0.64700000  1.0 0.1294391704
H  H36  1  0.81000000  0.29620000  0.35300000  1.0 0.1294391704
H  H37  1  0.02000000  0.88700000  0.57300000  1.0 0.3601038137
H  H38  1  0.48000000  0.38700000  0.42700000  1.0 0.3601038137
H  H39  1  0.11900000  0.84650000  0.57400000  1.0 0.3601038137
H  H40  1  0.38100000  0.34650000  0.42600000  1.0 0.3601038137
C  C1  1  0.39430000  0.91616000  0.58272000  1.0 -0.0052123994
C  C2  1  0.10570000  0.41616000  0.41728000  1.0 -0.0052123994
C  C3  1  0.29980000  0.96252000  0.54662000  1.0 -0.1164571944
C  C4  1  0.20020000  0.46252000  0.45338000  1.0 -0.1164571944
C  C5  1  0.43990000  0.05484000  0.60730000  1.0 -0.1093207437
C  C6  1  0.06010000  0.55484000  0.39270000  1.0 -0.1093207437
C  C7  1  0.21720000  0.08018000  0.51463000  1.0 0.5594260845
C  C8  1  0.28280000  0.58018000  0.48537000  1.0 0.5594260845
C  C9  1  0.24730000  0.20368000  0.29220000  1.0 0.1294391704
C  C10  1  0.25270000  0.70368000  0.70780000  1.0 0.1294391704
C  C11  1  0.66040000  0.03559000  0.69810000  1.0 0.5594260845
C  C12  1  0.83960000  0.53559000  0.30190000  1.0 0.5594260845
C  C13  1  0.51180000  0.93972000  0.63220000  1.0 -0.1093207437
C  C14  1  0.98820000  0.43972000  0.36780000  1.0 -0.1093207437
C  C15  1  0.32210000  0.03189000  0.55778000  1.0 -0.0052123994
C  C16  1  0.17790000  0.53189000  0.44222000  1.0 -0.0052123994
C  C17  1  0.26160000  0.20661000  0.18980000  1.0 -0.1838755107
C  C18  1  0.23840000  0.70661000  0.81020000  1.0 -0.1838755107
C  C19  1  0.15910000  0.20851000  0.10170000  1.0 0.2094299288
C  C20  1  0.34090000  0.70851000  0.89830000  1.0 0.2094299288
C  C21  1  0.53460000  0.00885000  0.64552000  1.0 -0.0280726424
C  C22  1  0.96540000  0.50885000  0.35448000  1.0 -0.0280726424
C  C23  1  0.36830000  0.84171000  0.56552000  1.0 0.5594260845
C  C24  1  0.13170000  0.34171000  0.43448000  1.0 0.5594260845
C  C25  1  0.04530000  0.20251000  0.11670000  1.0 -0.2031143105
C  C26  1  0.45470000  0.70251000  0.88330000  1.0 -0.2031143105
C  C27  1  0.03940000  0.19789000  0.22070000  1.0 0.0999952608
C  C28  1  0.46060000  0.69789000  0.77930000  1.0 0.0999952608
C  C29  1  0.10040000  0.22745000  0.81950000  1.0 0.120013238
C  C30  1  0.39960000  0.72745000  0.18050000  1.0 0.120013238
C  C31  1  0.99140000  0.19750000  0.73570000  1.0 -0.0539560432
C  C32  1  0.50860000  0.69750000  0.26430000  1.0 -0.0539560432
C  C33  1  0.18670000  0.24600000  0.68310000  1.0 0.120013238
C  C34  1  0.31330000  0.74600000  0.31690000  1.0 0.120013238
C  C35  1  0.19000000  0.24680000  0.79350000  1.0 0.0139625616
C  C36  1  0.31000000  0.74680000  0.20650000  1.0 0.0139625616
C  C37  1  0.99920000  0.19640000  0.63140000  1.0 0.0197635812
C  C38  1  0.50080000  0.69640000  0.36860000  1.0 0.0197635812
C  C39  1  0.01900000  0.24740000  0.63250000  1.0 0.0890440994
C  C40  1  0.48100000  0.74740000  0.36750000  1.0 0.0890440994
C  C41  1  0.01110000  0.25270000  0.73780000  1.0 -0.0405522643
C  C42  1  0.48890000  0.75270000  0.26220000  1.0 -0.0405522643
C  C43  1  0.21970000  0.21810000  0.80050000  1.0 -0.0026140127
C  C44  1  0.28030000  0.71810000  0.19950000  1.0 -0.0026140127
C  C45  1  0.22040000  0.21470000  0.69660000  1.0 0.0258905541
C  C46  1  0.27960000  0.71470000  0.30340000  1.0 0.0258905541
C  C47  1  0.60570000  0.08384000  0.41728000  1.0 -0.0052123994
C  C48  1  0.89430000  0.58384000  0.58272000  1.0 -0.0052123994
C  C49  1  0.70020000  0.03748000  0.45338000  1.0 -0.1164571944
C  C50  1  0.79980000  0.53748000  0.54662000  1.0 -0.1164571944
C  C51  1  0.56010000  0.94516000  0.39270000  1.0 -0.1093207437
C  C52  1  0.93990000  0.44516000  0.60730000  1.0 -0.1093207437
C  C53  1  0.78280000  0.91982000  0.48537000  1.0 0.5594260845
C  C54  1  0.71720000  0.41982000  0.51463000  1.0 0.5594260845
C  C55  1  0.75270000  0.79632000  0.70780000  1.0 0.1294391704
C  C56  1  0.74730000  0.29632000  0.29220000  1.0 0.1294391704
C  C57  1  0.33960000  0.96441000  0.30190000  1.0 0.5594260845
C  C58  1  0.16040000  0.46441000  0.69810000  1.0 0.5594260845
C  C59  1  0.48820000  0.06028000  0.36780000  1.0 -0.1093207437
C  C60  1  0.01180000  0.56028000  0.63220000  1.0 -0.1093207437
C  C61  1  0.67790000  0.96811000  0.44222000  1.0 -0.0052123994
C  C62  1  0.82210000  0.46811000  0.55778000  1.0 -0.0052123994
C  C63  1  0.73840000  0.79339000  0.81020000  1.0 -0.1838755107
C  C64  1  0.76160000  0.29339000  0.18980000  1.0 -0.1838755107
C  C65  1  0.84090000  0.79149000  0.89830000  1.0 0.2094299288
C  C66  1  0.65910000  0.29149000  0.10170000  1.0 0.2094299288
C  C67  1  0.46540000  0.99115000  0.35448000  1.0 -0.0280726424
C  C68  1  0.03460000  0.49115000  0.64552000  1.0 -0.0280726424
C  C69  1  0.63170000  0.15829000  0.43448000  1.0 0.5594260845
C  C70  1  0.86830000  0.65829000  0.56552000  1.0 0.5594260845
C  C71  1  0.95470000  0.79749000  0.88330000  1.0 -0.2031143105
C  C72  1  0.54530000  0.29749000  0.11670000  1.0 -0.2031143105
C  C73  1  0.96060000  0.80211000  0.77930000  1.0 0.0999952608
C  C74  1  0.53940000  0.30211000  0.22070000  1.0 0.0999952608
C  C75  1  0.89960000  0.77255000  0.18050000  1.0 0.120013238
C  C76  1  0.60040000  0.27255000  0.81950000  1.0 0.120013238
C  C77  1  0.00860000  0.80250000  0.26430000  1.0 -0.0539560432
C  C78  1  0.49140000  0.30250000  0.73570000  1.0 -0.0539560432
C  C79  1  0.81330000  0.75400000  0.31690000  1.0 0.120013238
C  C80  1  0.68670000  0.25400000  0.68310000  1.0 0.120013238
C  C81  1  0.81000000  0.75320000  0.20650000  1.0 0.0197635812
C  C82  1  0.69000000  0.25320000  0.79350000  1.0 0.0139625616
C  C83  1  0.00080000  0.80360000  0.36860000  1.0 0.0197635812
C  C84  1  0.49920000  0.30360000  0.63140000  1.0 0.0197635812
C  C85  1  0.98100000  0.75260000  0.36750000  1.0 0.0890440994
C  C86  1  0.51900000  0.25260000  0.63250000  1.0 0.0890440994
C  C87  1  0.98890000  0.74730000  0.26220000  1.0 -0.0405522643
C  C88  1  0.51110000  0.24730000  0.73780000  1.0 -0.0405522643
C  C89  1  0.78030000  0.78190000  0.19950000  1.0 -0.0026140127
C  C90  1  0.71970000  0.28190000  0.80050000  1.0 -0.0026140127
C  C91  1  0.77960000  0.78530000  0.30340000  1.0 0.0258905541
C  C92  1  0.72040000  0.28530000  0.69660000  1.0 0.0258905541
N  N1  1  0.13780000  0.20064000  0.30771000  1.0 -0.2135764419
N  N2  1  0.36220000  0.70064000  0.69229000  1.0 -0.2135764419
N  N3  1  0.17940000  0.21474000  0.99813000  1.0 -0.1164571944
N  N4  1  0.32060000  0.71474000  0.00187000  1.0 -0.1164571944
N  N5  1  0.10870000  0.22350000  0.60856000  1.0 -0.1011478661
N  N6  1  0.39130000  0.72350000  0.39144000  1.0 -0.1011478661
N  N7  1  0.08380000  0.22460000  0.92470000  1.0 -0.0928138218
N  N8  1  0.41620000  0.72460000  0.07530000  1.0 -0.0928138218
N  N9  1  0.86220000  0.79936000  0.69229000  1.0 -0.2135764419
N  N10  1  0.63780000  0.29936000  0.30771000  1.0 -0.2135764419
N  N11  1  0.82060000  0.78526000  0.00187000  1.0 -0.1164571944
N  N12  1  0.67940000  0.28526000  0.99813000  1.0 -0.1164571944
N  N13  1  0.89130000  0.77650000  0.39144000  1.0 -0.1011478661
N  N14  1  0.60870000  0.27650000  0.60856000  1.0 -0.1093207437
N  N15  1  0.91620000  0.77540000  0.07530000  1.0 -0.1011478661
N  N16  1  0.58380000  0.27540000  0.92470000  1.0 -0.0928138218
O  O1  1  0.45876000  0.80140000  0.58527000  1.0 -0.5285125173
O  O2  1  0.04124000  0.30140000  0.41473000  1.0 -0.5285125173
O  O3  1  0.93921000  0.14918000  0.39900000  1.0 -0.7064709759
O  O4  1  0.56079000  0.64918000  0.60100000  1.0 -0.7064709759
O  O5  1  0.26074000  0.82144000  0.53257000  1.0 -0.5572294361
O  O6  1  0.23926000  0.32144000  0.46743000  1.0 -0.5572294361
O  O7  1  0.24555000  0.14244000  0.51107000  1.0 -0.5651502854
O  O8  1  0.25445000  0.64244000  0.48893000  1.0 -0.5651502854
O  O9  1  0.74252000  0.98738000  0.72906000  1.0 -0.4667286819
O  O10  1  0.75748000  0.48738000  0.27094000  1.0 -0.4667286819
O  O11  1  0.11209000  0.05701000  0.48765000  1.0 -0.5236056692
O  O12  1  0.38791000  0.55701000  0.51235000  1.0 -0.5236056692
O  O13  1  0.68328000  0.09557000  0.70944000  1.0 -0.5285125173
O  O14  1  0.81672000  0.59557000  0.29056000  1.0 -0.5285125173
O  O15  1  0.54124000  0.19860000  0.41473000  1.0 -0.5285125173
O  O16  1  0.95876000  0.69860000  0.58527000  1.0 -0.5285125173
O  O17  1  0.06079000  0.85082000  0.60100000  1.0 -0.7064709759
O  O18  1  0.43921000  0.35082000  0.39900000  1.0 -0.7064709759
O  O19  1  0.73926000  0.17856000  0.46743000  1.0 -0.5572294361
O  O20  1  0.76074000  0.67856000  0.53257000  1.0 -0.5572294361
O  O21  1  0.75445000  0.85756000  0.48893000  1.0 -0.5651502854
O  O22  1  0.74555000  0.35756000  0.51107000  1.0 -0.5572294361
O  O23  1  0.25748000  0.01262000  0.27094000  1.0 -0.4667286819
O  O24  1  0.24252000  0.51262000  0.72906000  1.0 -0.4667286819
O  O25  1  0.88791000  0.94299000  0.51235000  1.0 -0.5236056692
O  O26  1  0.61209000  0.44299000  0.48765000  1.0 -0.5236056692
O  O27  1  0.31672000  0.90443000  0.29056000  1.0 -0.5285125173
O  O28  1  0.18328000  0.40443000  0.70944000  1.0 -0.5285125173
