# DDEC6 charges by PACMAN v1.1 (https://github.com/mtap-research/PACMAN-charge/)
data_OYERER_ASR_pacman
_symmetry_space_group_name_H-M   'P 1'
_cell_length_a   20.77200000
_cell_length_b   20.77200000
_cell_length_c   21.05300000
_cell_angle_alpha   90.00000000
_cell_angle_beta   90.00000000
_cell_angle_gamma   120.00000000
_symmetry_Int_Tables_number   1
_chemical_formula_structural   Cr3Cu3H24C36N6O13
_chemical_formula_sum   'Cr6 Cu6 H48 C72 N12 O26'
_cell_volume   7866.85689426
_cell_formula_units_Z   2
loop_
 _symmetry_equiv_pos_site_id
 _symmetry_equiv_pos_as_xyz
  1  'x, y, z'
loop_
 _atom_site_type_symbol
 _atom_site_label
 _atom_site_symmetry_multiplicity
 _atom_site_fract_x
 _atom_site_fract_y
 _atom_site_fract_z
 _atom_site_occupancy
 _atom_site_charge
Cr  Cr1  1  0.75976000  0.42354000  0.25000000  1.0 1.4427118848
Cr  Cr2  1  0.24024000  0.57646000  0.75000000  1.0 1.4427118848
Cr  Cr3  1  0.57646000  0.33622000  0.25000000  1.0 1.4427118848
Cr  Cr4  1  0.66378000  0.24024000  0.25000000  1.0 1.4427118848
Cr  Cr5  1  0.33622000  0.75976000  0.75000000  1.0 1.4427118848
Cr  Cr6  1  0.42354000  0.66378000  0.75000000  1.0 1.4427118848
Cu  Cu1  1  0.50000000  0.50000000  0.50000000  1.0 -0.0725720597
Cu  Cu2  1  0.50000000  0.50000000  0.00000000  1.0 -0.0725720597
Cu  Cu3  1  0.50000000  0.00000000  0.50000000  1.0 -0.0755498807
Cu  Cu4  1  0.00000000  0.50000000  0.50000000  1.0 -0.0755498807
Cu  Cu5  1  0.00000000  0.50000000  0.00000000  1.0 -0.0725720597
Cu  Cu6  1  0.50000000  0.00000000  0.00000000  1.0 -0.0725720597
H  H1  1  0.56080000  0.44960000  0.40360000  1.0 0.099305385
H  H2  1  0.43920000  0.55040000  0.90360000  1.0 0.099305385
H  H3  1  0.55040000  0.11120000  0.40360000  1.0 0.099305385
H  H4  1  0.88880000  0.43920000  0.40360000  1.0 0.099305385
H  H5  1  0.11120000  0.56080000  0.90360000  1.0 0.099305385
H  H6  1  0.44960000  0.88880000  0.90360000  1.0 0.099305385
H  H7  1  0.43920000  0.55040000  0.59640000  1.0 0.099305385
H  H8  1  0.56080000  0.44960000  0.09640000  1.0 0.099305385
H  H9  1  0.44960000  0.88880000  0.59640000  1.0 0.099305385
H  H10  1  0.11120000  0.56080000  0.59640000  1.0 0.099305385
H  H11  1  0.88880000  0.43920000  0.09640000  1.0 0.099305385
H  H12  1  0.55040000  0.11120000  0.09640000  1.0 0.099305385
H  H13  1  0.66420000  0.60250000  0.53420000  1.0 0.099305385
H  H14  1  0.33580000  0.39750000  0.03420000  1.0 0.099305385
H  H15  1  0.39750000  0.06170000  0.53420000  1.0 0.099305385
H  H16  1  0.93830000  0.33580000  0.53420000  1.0 0.099305385
H  H17  1  0.06170000  0.66420000  0.03420000  1.0 0.099305385
H  H18  1  0.60250000  0.93830000  0.03420000  1.0 0.099305385
H  H19  1  0.33580000  0.39750000  0.46580000  1.0 0.099305385
H  H20  1  0.66420000  0.60250000  0.96580000  1.0 0.099305385
H  H21  1  0.60250000  0.93830000  0.46580000  1.0 0.099305385
H  H22  1  0.06170000  0.66420000  0.46580000  1.0 0.099305385
H  H23  1  0.93830000  0.33580000  0.96580000  1.0 0.099305385
H  H24  1  0.39750000  0.06170000  0.96580000  1.0 0.099305385
H  H25  1  0.78020000  0.62280000  0.50230000  1.0 0.1244370018
H  H26  1  0.21980000  0.37720000  0.00230000  1.0 0.1244370018
H  H27  1  0.37720000  0.15740000  0.50230000  1.0 0.1287091899
H  H28  1  0.84260000  0.21980000  0.50230000  1.0 0.1287091899
H  H29  1  0.15740000  0.78020000  0.00230000  1.0 0.1244370018
H  H30  1  0.62280000  0.84260000  0.00230000  1.0 0.1244370018
H  H31  1  0.21980000  0.37720000  0.49770000  1.0 0.1244370018
H  H32  1  0.78020000  0.62280000  0.99770000  1.0 0.1244370018
H  H33  1  0.62280000  0.84260000  0.49770000  1.0 0.1244370018
H  H34  1  0.15740000  0.78020000  0.49770000  1.0 0.1244370018
H  H35  1  0.84260000  0.21980000  0.99770000  1.0 0.1287091899
H  H36  1  0.37720000  0.15740000  0.99770000  1.0 0.1287091899
H  H37  1  0.78610000  0.56550000  0.40680000  1.0 0.1287091899
H  H38  1  0.21390000  0.43450000  0.90680000  1.0 0.1287091899
H  H39  1  0.43450000  0.22060000  0.40680000  1.0 0.1287091899
H  H40  1  0.77940000  0.21390000  0.40680000  1.0 0.1287091899
H  H41  1  0.22060000  0.78610000  0.90680000  1.0 0.1287091899
H  H42  1  0.56550000  0.77940000  0.90680000  1.0 0.1287091899
H  H43  1  0.21390000  0.43450000  0.59320000  1.0 0.1287091899
H  H44  1  0.78610000  0.56550000  0.09320000  1.0 0.1287091899
H  H45  1  0.56550000  0.77940000  0.59320000  1.0 0.1287091899
H  H46  1  0.22060000  0.78610000  0.59320000  1.0 0.1287091899
H  H47  1  0.77940000  0.21390000  0.09320000  1.0 0.1287091899
H  H48  1  0.43450000  0.22060000  0.09320000  1.0 0.1287091899
C  C1  1  0.66880000  0.45530000  0.33840000  1.0 0.5982298602
C  C2  1  0.33120000  0.54470000  0.83840000  1.0 0.5982298602
C  C3  1  0.54470000  0.21350000  0.33840000  1.0 0.5982298602
C  C4  1  0.78650000  0.33120000  0.33840000  1.0 0.5982298602
C  C5  1  0.21350000  0.66880000  0.83840000  1.0 0.5982298602
C  C6  1  0.45530000  0.78650000  0.83840000  1.0 0.5982298602
C  C7  1  0.33120000  0.54470000  0.66160000  1.0 0.5982298602
C  C8  1  0.66880000  0.45530000  0.16160000  1.0 0.5982298602
C  C9  1  0.45530000  0.78650000  0.66160000  1.0 0.5982298602
C  C10  1  0.21350000  0.66880000  0.66160000  1.0 0.5982298602
C  C11  1  0.78650000  0.33120000  0.16160000  1.0 0.5982298602
C  C12  1  0.54470000  0.21350000  0.16160000  1.0 0.5982298602
C  C13  1  0.67310000  0.50150000  0.39390000  1.0 -0.0967979131
C  C14  1  0.32690000  0.49850000  0.89390000  1.0 -0.0967979131
C  C15  1  0.49850000  0.17160000  0.39390000  1.0 -0.0967979131
C  C16  1  0.82840000  0.32690000  0.39390000  1.0 -0.0967979131
C  C17  1  0.17160000  0.67310000  0.89390000  1.0 -0.0967979131
C  C18  1  0.50150000  0.82840000  0.89390000  1.0 -0.0967979131
C  C19  1  0.32690000  0.49850000  0.60610000  1.0 -0.0967979131
C  C20  1  0.67310000  0.50150000  0.10610000  1.0 -0.0947927187
C  C21  1  0.50150000  0.82840000  0.60610000  1.0 -0.0967979131
C  C22  1  0.17160000  0.67310000  0.60610000  1.0 -0.0967979131
C  C23  1  0.82840000  0.32690000  0.10610000  1.0 -0.0967979131
C  C24  1  0.49850000  0.17160000  0.10610000  1.0 -0.0967979131
C  C25  1  0.60580000  0.48720000  0.42190000  1.0 0.0615874025
C  C26  1  0.39420000  0.51280000  0.92190000  1.0 0.0615874025
C  C27  1  0.51280000  0.11860000  0.42190000  1.0 0.0615874025
C  C28  1  0.88140000  0.39420000  0.42190000  1.0 0.0615874025
C  C29  1  0.11860000  0.60580000  0.92190000  1.0 0.0615874025
C  C30  1  0.48720000  0.88140000  0.92190000  1.0 0.0615874025
C  C31  1  0.39420000  0.51280000  0.57810000  1.0 0.0615874025
C  C32  1  0.60580000  0.48720000  0.07810000  1.0 0.0615874025
C  C33  1  0.48720000  0.88140000  0.57810000  1.0 0.0615874025
C  C34  1  0.11860000  0.60580000  0.57810000  1.0 0.0615874025
C  C35  1  0.88140000  0.39420000  0.07810000  1.0 0.0615874025
C  C36  1  0.51280000  0.11860000  0.07810000  1.0 0.0615874025
C  C37  1  0.66650000  0.57480000  0.49930000  1.0 0.0888971195
C  C38  1  0.33350000  0.42520000  0.99930000  1.0 0.0888971195
C  C39  1  0.42520000  0.09170000  0.49930000  1.0 0.0888971195
C  C40  1  0.90830000  0.33350000  0.49930000  1.0 0.0888971195
C  C41  1  0.09170000  0.66650000  0.99930000  1.0 0.0888971195
C  C42  1  0.57480000  0.90830000  0.99930000  1.0 0.0888971195
C  C43  1  0.33350000  0.42520000  0.50070000  1.0 0.0888971195
C  C44  1  0.66650000  0.57480000  0.00070000  1.0 0.0888971195
C  C45  1  0.57480000  0.90830000  0.50070000  1.0 0.0888971195
C  C46  1  0.09170000  0.66650000  0.50070000  1.0 0.0888971195
C  C47  1  0.90830000  0.33350000  0.00070000  1.0 0.0888971195
C  C48  1  0.42520000  0.09170000  0.00070000  1.0 0.0888971195
C  C49  1  0.73650000  0.58990000  0.47950000  1.0 -0.1669312108
C  C50  1  0.26350000  0.41010000  0.97950000  1.0 -0.1669312108
C  C51  1  0.41010000  0.14660000  0.47950000  1.0 -0.1619292449
C  C52  1  0.85340000  0.26350000  0.47950000  1.0 -0.1619292449
C  C53  1  0.14660000  0.73650000  0.97950000  1.0 -0.1669312108
C  C54  1  0.58990000  0.85340000  0.97950000  1.0 -0.1669312108
C  C55  1  0.26350000  0.41010000  0.52050000  1.0 -0.1669312108
C  C56  1  0.73650000  0.58990000  0.02050000  1.0 -0.1669312108
C  C57  1  0.58990000  0.85340000  0.52050000  1.0 -0.1669312108
C  C58  1  0.14660000  0.73650000  0.52050000  1.0 -0.1669312108
C  C59  1  0.85340000  0.26350000  0.02050000  1.0 -0.1619292449
C  C60  1  0.41010000  0.14660000  0.02050000  1.0 -0.1619292449
C  C61  1  0.73940000  0.55420000  0.42410000  1.0 -0.056384109
C  C62  1  0.26060000  0.44580000  0.92410000  1.0 -0.0540891551
C  C63  1  0.44580000  0.18520000  0.42410000  1.0 -0.0540891551
C  C64  1  0.81480000  0.26060000  0.42410000  1.0 -0.0540891551
C  C65  1  0.18520000  0.73940000  0.92410000  1.0 -0.0540891551
C  C66  1  0.55420000  0.81480000  0.92410000  1.0 -0.0540891551
C  C67  1  0.26060000  0.44580000  0.57590000  1.0 -0.0540891551
C  C68  1  0.73940000  0.55420000  0.07590000  1.0 -0.056384109
C  C69  1  0.55420000  0.81480000  0.57590000  1.0 -0.056384109
C  C70  1  0.18520000  0.73940000  0.57590000  1.0 -0.0540891551
C  C71  1  0.81480000  0.26060000  0.07590000  1.0 -0.0540891551
C  C72  1  0.44580000  0.18520000  0.07590000  1.0 -0.0540891551
N  N1  1  0.60120000  0.52350000  0.47290000  1.0 -0.2405345078
N  N2  1  0.39880000  0.47650000  0.97290000  1.0 -0.2405345078
N  N3  1  0.47650000  0.07770000  0.47290000  1.0 -0.2405345078
N  N4  1  0.92230000  0.39880000  0.47290000  1.0 -0.2453062858
N  N5  1  0.07770000  0.60120000  0.97290000  1.0 -0.2405345078
N  N6  1  0.52350000  0.92230000  0.97290000  1.0 -0.2405345078
N  N7  1  0.39880000  0.47650000  0.52710000  1.0 -0.2405345078
N  N8  1  0.60120000  0.52350000  0.02710000  1.0 -0.2405345078
N  N9  1  0.52350000  0.92230000  0.52710000  1.0 -0.2405345078
N  N10  1  0.07770000  0.60120000  0.52710000  1.0 -0.2405345078
N  N11  1  0.92230000  0.39880000  0.02710000  1.0 -0.2453062858
N  N12  1  0.47650000  0.07770000  0.02710000  1.0 -0.2405345078
O  O1  1  0.66666667  0.33333333  0.25000000  1.0 -1.0909709583
O  O2  1  0.33333333  0.66666667  0.75000000  1.0 -1.0909709583
O  O3  1  0.73180000  0.46960000  0.31810000  1.0 -0.5958931338
O  O4  1  0.26820000  0.53040000  0.81810000  1.0 -0.5958931338
O  O5  1  0.53040000  0.26220000  0.31810000  1.0 -0.5958931338
O  O6  1  0.73780000  0.26820000  0.31810000  1.0 -0.5958931338
O  O7  1  0.26220000  0.73180000  0.81810000  1.0 -0.5942118417
O  O8  1  0.46960000  0.73780000  0.81810000  1.0 -0.5958931338
O  O9  1  0.26820000  0.53040000  0.68190000  1.0 -0.5958931338
O  O10  1  0.73180000  0.46960000  0.18190000  1.0 -0.5958931338
O  O11  1  0.46960000  0.73780000  0.68190000  1.0 -0.5958931338
O  O12  1  0.26220000  0.73180000  0.68190000  1.0 -0.5942118417
O  O13  1  0.73780000  0.26820000  0.18190000  1.0 -0.5958931338
O  O14  1  0.53040000  0.26220000  0.18190000  1.0 -0.5958931338
O  O15  1  0.60770000  0.41090000  0.31640000  1.0 -0.5511402041
O  O16  1  0.39230000  0.58910000  0.81640000  1.0 -0.5511402041
O  O17  1  0.58910000  0.19680000  0.31640000  1.0 -0.5511402041
O  O18  1  0.80320000  0.39230000  0.31640000  1.0 -0.5511402041
O  O19  1  0.19680000  0.60770000  0.81640000  1.0 -0.5511402041
O  O20  1  0.41090000  0.80320000  0.81640000  1.0 -0.5511402041
O  O21  1  0.39230000  0.58910000  0.68360000  1.0 -0.5511402041
O  O22  1  0.60770000  0.41090000  0.18360000  1.0 -0.5511402041
O  O23  1  0.41090000  0.80320000  0.68360000  1.0 -0.5511402041
O  O24  1  0.19680000  0.60770000  0.68360000  1.0 -0.5511402041
O  O25  1  0.80320000  0.39230000  0.18360000  1.0 -0.5511402041
O  O26  1  0.58910000  0.19680000  0.18360000  1.0 -0.5511402041
