# DDEC6 charges by PACMAN v1.1 (https://github.com/mtap-research/PACMAN-charge/)
data_OYEROB_ion_pacman
_symmetry_space_group_name_H-M   'P 1'
_cell_length_a   20.60800000
_cell_length_b   20.60800000
_cell_length_c   22.35000000
_cell_angle_alpha   90.00000000
_cell_angle_beta   90.00000000
_cell_angle_gamma   90.00000000
_symmetry_Int_Tables_number   1
_chemical_formula_structural   Cr3Cd2H70C54(N3O10)4
_chemical_formula_sum   'Cr12 Cd8 H280 C216 N48 O160'
_cell_volume   9491.81399040
_cell_formula_units_Z   4
loop_
 _symmetry_equiv_pos_site_id
 _symmetry_equiv_pos_as_xyz
  1  'x, y, z'
loop_
 _atom_site_type_symbol
 _atom_site_label
 _atom_site_symmetry_multiplicity
 _atom_site_fract_x
 _atom_site_fract_y
 _atom_site_fract_z
 _atom_site_occupancy
 _atom_site_charge
Cr  Cr1  1  0.42236000  0.01945000  0.31920000  1.0 1.4497561937
Cr  Cr2  1  0.57764000  0.98055000  0.31920000  1.0 1.4422283655
Cr  Cr3  1  0.92236000  0.48055000  0.18080000  1.0 1.4497561937
Cr  Cr4  1  0.07764000  0.51945000  0.18080000  1.0 1.4497561937
Cr  Cr5  1  0.51945000  0.92236000  0.81920000  1.0 1.4497561937
Cr  Cr6  1  0.48055000  0.07764000  0.81920000  1.0 1.4497561937
Cr  Cr7  1  0.98055000  0.42236000  0.68080000  1.0 1.4422283655
Cr  Cr8  1  0.01945000  0.57764000  0.68080000  1.0 1.4497561937
Cr  Cr9  1  0.50000000  0.00000000  0.44649000  1.0 1.4422283655
Cr  Cr10  1  0.00000000  0.50000000  0.05351000  1.0 1.4422283655
Cr  Cr11  1  0.50000000  0.00000000  0.94649000  1.0 1.4422283655
Cr  Cr12  1  0.00000000  0.50000000  0.55351000  1.0 1.4422283655
Cd  Cd1  1  0.71886000  0.20871000  0.11437000  1.0 0.6956964121
Cd  Cd2  1  0.28114000  0.79129000  0.11437000  1.0 0.6956964121
Cd  Cd3  1  0.21886000  0.29129000  0.38563000  1.0 0.6956964121
Cd  Cd4  1  0.78114000  0.70871000  0.38563000  1.0 0.6956964121
Cd  Cd5  1  0.70871000  0.21886000  0.61437000  1.0 0.6956964121
Cd  Cd6  1  0.29129000  0.78114000  0.61437000  1.0 0.6956964121
Cd  Cd7  1  0.79129000  0.71886000  0.88563000  1.0 0.6956964121
Cd  Cd8  1  0.20871000  0.28114000  0.88563000  1.0 0.6956964121
H  H1  1  0.66450000  0.39980000  0.15910000  1.0 0.1169688473
H  H2  1  0.33550000  0.60020000  0.15910000  1.0 0.1169688473
H  H3  1  0.16450000  0.10020000  0.34090000  1.0 0.1169688473
H  H4  1  0.83550000  0.89980000  0.34090000  1.0 0.1169688473
H  H5  1  0.89980000  0.16450000  0.65910000  1.0 0.1169688473
H  H6  1  0.10020000  0.83550000  0.65910000  1.0 0.1169688473
H  H7  1  0.60020000  0.66450000  0.84090000  1.0 0.1169688473
H  H8  1  0.39980000  0.33550000  0.84090000  1.0 0.1169688473
H  H9  1  0.64500000  0.33580000  0.19550000  1.0 0.0903633558
H  H10  1  0.35500000  0.66420000  0.19550000  1.0 0.0903633558
H  H11  1  0.14500000  0.16420000  0.30450000  1.0 0.0903633558
H  H12  1  0.85500000  0.83580000  0.30450000  1.0 0.0903633558
H  H13  1  0.83580000  0.14500000  0.69550000  1.0 0.0903633558
H  H14  1  0.16420000  0.85500000  0.69550000  1.0 0.0903633558
H  H15  1  0.66420000  0.64500000  0.80450000  1.0 0.0903633558
H  H16  1  0.33580000  0.35500000  0.80450000  1.0 0.0903633558
H  H17  1  0.71860000  0.36050000  0.19550000  1.0 0.0834268345
H  H18  1  0.28140000  0.63950000  0.19550000  1.0 0.0834268345
H  H19  1  0.21860000  0.13950000  0.30450000  1.0 0.0834268345
H  H20  1  0.78140000  0.86050000  0.30450000  1.0 0.0834268345
H  H21  1  0.86050000  0.21860000  0.69550000  1.0 0.0834268345
H  H22  1  0.13950000  0.78140000  0.69550000  1.0 0.0834268345
H  H23  1  0.63950000  0.71860000  0.80450000  1.0 0.0834268345
H  H24  1  0.36050000  0.28140000  0.80450000  1.0 0.0834268345
H  H25  1  0.63040000  0.12070000  0.19800000  1.0 0.099103487
H  H26  1  0.36960000  0.87930000  0.19800000  1.0 0.099103487
H  H27  1  0.13040000  0.37930000  0.30200000  1.0 0.099103487
H  H28  1  0.86960000  0.62070000  0.30200000  1.0 0.099103487
H  H29  1  0.62070000  0.13040000  0.69800000  1.0 0.099103487
H  H30  1  0.37930000  0.86960000  0.69800000  1.0 0.099103487
H  H31  1  0.87930000  0.63040000  0.80200000  1.0 0.099103487
H  H32  1  0.12070000  0.36960000  0.80200000  1.0 0.099103487
H  H33  1  0.57840000  0.27550000  0.10570000  1.0 0.1169688473
H  H34  1  0.42160000  0.72450000  0.10570000  1.0 0.1169688473
H  H35  1  0.07840000  0.22450000  0.39430000  1.0 0.1169688473
H  H36  1  0.92160000  0.77550000  0.39430000  1.0 0.1169688473
H  H37  1  0.77550000  0.07840000  0.60570000  1.0 0.1169688473
H  H38  1  0.22450000  0.92160000  0.60570000  1.0 0.1169688473
H  H39  1  0.72450000  0.57840000  0.89430000  1.0 0.1169688473
H  H40  1  0.27550000  0.42160000  0.89430000  1.0 0.1169688473
H  H41  1  0.47370000  0.26880000  0.13910000  1.0 0.1302666749
H  H42  1  0.52630000  0.73120000  0.13910000  1.0 0.1302666749
H  H43  1  0.97370000  0.23120000  0.36090000  1.0 0.1302666749
H  H44  1  0.02630000  0.76880000  0.36090000  1.0 0.1302666749
H  H45  1  0.76880000  0.97370000  0.63910000  1.0 0.1302666749
H  H46  1  0.23120000  0.02630000  0.63910000  1.0 0.1302666749
H  H47  1  0.73120000  0.47370000  0.86090000  1.0 0.1302666749
H  H48  1  0.26880000  0.52630000  0.86090000  1.0 0.1302666749
H  H49  1  0.44490000  0.18350000  0.20610000  1.0 0.1302666749
H  H50  1  0.55510000  0.81650000  0.20610000  1.0 0.1302666749
H  H51  1  0.94490000  0.31650000  0.29390000  1.0 0.1302666749
H  H52  1  0.05510000  0.68350000  0.29390000  1.0 0.1302666749
H  H53  1  0.68350000  0.94490000  0.70610000  1.0 0.1302666749
H  H54  1  0.31650000  0.05510000  0.70610000  1.0 0.1302666749
H  H55  1  0.81650000  0.44490000  0.79390000  1.0 0.1302666749
H  H56  1  0.18350000  0.55510000  0.79390000  1.0 0.1302666749
H  H57  1  0.28400000  0.96650000  0.28950000  1.0 0.0689530639
H  H58  1  0.71600000  0.03350000  0.28950000  1.0 0.0689530639
H  H59  1  0.78400000  0.53350000  0.21050000  1.0 0.0689530639
H  H60  1  0.21600000  0.46650000  0.21050000  1.0 0.0689530639
H  H61  1  0.46650000  0.78400000  0.78950000  1.0 0.0689530639
H  H62  1  0.53350000  0.21600000  0.78950000  1.0 0.0689530639
H  H63  1  0.03350000  0.28400000  0.71050000  1.0 0.0689530639
H  H64  1  0.96650000  0.71600000  0.71050000  1.0 0.0689530639
H  H65  1  0.30540000  0.97320000  0.22110000  1.0 0.1107828444
H  H66  1  0.69460000  0.02680000  0.22110000  1.0 0.1107828444
H  H67  1  0.80540000  0.52680000  0.27890000  1.0 0.1107828444
H  H68  1  0.19460000  0.47320000  0.27890000  1.0 0.1107828444
H  H69  1  0.47320000  0.80540000  0.72110000  1.0 0.1107828444
H  H70  1  0.52680000  0.19460000  0.72110000  1.0 0.1107828444
H  H71  1  0.02680000  0.30540000  0.77890000  1.0 0.1107828444
H  H72  1  0.97320000  0.69460000  0.77890000  1.0 0.1107828444
H  H73  1  0.21150000  0.04620000  0.27980000  1.0 0.0280898865
H  H74  1  0.78850000  0.95380000  0.27980000  1.0 0.0280898865
H  H75  1  0.71150000  0.45380000  0.22020000  1.0 0.0280898865
H  H76  1  0.28850000  0.54620000  0.22020000  1.0 0.0280898865
H  H77  1  0.54620000  0.71150000  0.77980000  1.0 0.0280898865
H  H78  1  0.45380000  0.28850000  0.77980000  1.0 0.0280898865
H  H79  1  0.95380000  0.21150000  0.72020000  1.0 0.0280898865
H  H80  1  0.04620000  0.78850000  0.72020000  1.0 0.0280898865
H  H81  1  0.22630000  0.06060000  0.21080000  1.0 0.099103487
H  H82  1  0.77370000  0.93940000  0.21080000  1.0 0.099103487
H  H83  1  0.72630000  0.43940000  0.28920000  1.0 0.099103487
H  H84  1  0.27370000  0.56060000  0.28920000  1.0 0.099103487
H  H85  1  0.56060000  0.72630000  0.71080000  1.0 0.099103487
H  H86  1  0.43940000  0.27370000  0.71080000  1.0 0.099103487
H  H87  1  0.93940000  0.22630000  0.78920000  1.0 0.099103487
H  H88  1  0.06060000  0.77370000  0.78920000  1.0 0.099103487
H  H89  1  0.20190000  0.99020000  0.23100000  1.0 0.058698967
H  H90  1  0.79810000  0.00980000  0.23100000  1.0 0.058698967
H  H91  1  0.70190000  0.50980000  0.26900000  1.0 0.058698967
H  H92  1  0.29810000  0.49020000  0.26900000  1.0 0.058698967
H  H93  1  0.49020000  0.70190000  0.73100000  1.0 0.058698967
H  H94  1  0.50980000  0.29810000  0.73100000  1.0 0.058698967
H  H95  1  0.00980000  0.20190000  0.76900000  1.0 0.058698967
H  H96  1  0.99020000  0.79810000  0.76900000  1.0 0.058698967
H  H97  1  0.35960000  0.88070000  0.51960000  1.0 0.0903633558
H  H98  1  0.64040000  0.11930000  0.51960000  1.0 0.0903633558
H  H99  1  0.85960000  0.61930000  0.98040000  1.0 0.0903633558
H  H100  1  0.14040000  0.38070000  0.98040000  1.0 0.0903633558
H  H101  1  0.38070000  0.85960000  0.01960000  1.0 0.0903633558
H  H102  1  0.61930000  0.14040000  0.01960000  1.0 0.0903633558
H  H103  1  0.11930000  0.35960000  0.48040000  1.0 0.0903633558
H  H104  1  0.88070000  0.64040000  0.48040000  1.0 0.0903633558
H  H105  1  0.27020000  0.88850000  0.35980000  1.0 0.1302666749
H  H106  1  0.72980000  0.11150000  0.35980000  1.0 0.1302666749
H  H107  1  0.77020000  0.61150000  0.14020000  1.0 0.1302666749
H  H108  1  0.22980000  0.38850000  0.14020000  1.0 0.1302666749
H  H109  1  0.38850000  0.77020000  0.85980000  1.0 0.1302666749
H  H110  1  0.61150000  0.22980000  0.85980000  1.0 0.1302666749
H  H111  1  0.11150000  0.27020000  0.64020000  1.0 0.1302666749
H  H112  1  0.88850000  0.72980000  0.64020000  1.0 0.1302666749
H  H113  1  0.32610000  0.18320000  0.37680000  1.0 0.1378449317
H  H114  1  0.67390000  0.81680000  0.37680000  1.0 0.1378449317
H  H115  1  0.82610000  0.31680000  0.12320000  1.0 0.1378449317
H  H116  1  0.17390000  0.68320000  0.12320000  1.0 0.1378449317
H  H117  1  0.68320000  0.82610000  0.87680000  1.0 0.1378449317
H  H118  1  0.31680000  0.17390000  0.87680000  1.0 0.1378449317
H  H119  1  0.81680000  0.32610000  0.62320000  1.0 0.1378449317
H  H120  1  0.18320000  0.67390000  0.62320000  1.0 0.1378449317
H  H121  1  0.46000000  0.19400000  0.51030000  1.0 0.099103487
H  H122  1  0.54000000  0.80600000  0.51030000  1.0 0.099103487
H  H123  1  0.96000000  0.30600000  0.98970000  1.0 0.099103487
H  H124  1  0.04000000  0.69400000  0.98970000  1.0 0.099103487
H  H125  1  0.69400000  0.96000000  0.01030000  1.0 0.099103487
H  H126  1  0.30600000  0.04000000  0.01030000  1.0 0.099103487
H  H127  1  0.80600000  0.46000000  0.48970000  1.0 0.099103487
H  H128  1  0.19400000  0.54000000  0.48970000  1.0 0.099103487
H  H129  1  0.18940000  0.81850000  0.39920000  1.0 0.1378449317
H  H130  1  0.81060000  0.18150000  0.39920000  1.0 0.1378449317
H  H131  1  0.68940000  0.68150000  0.10080000  1.0 0.1378449317
H  H132  1  0.31060000  0.31850000  0.10080000  1.0 0.1378449317
H  H133  1  0.31850000  0.68940000  0.89920000  1.0 0.1378449317
H  H134  1  0.68150000  0.31060000  0.89920000  1.0 0.1378449317
H  H135  1  0.18150000  0.18940000  0.60080000  1.0 0.1378449317
H  H136  1  0.81850000  0.81060000  0.60080000  1.0 0.1378449317
H  H137  1  0.40890000  0.29080000  0.54110000  1.0 0.1378449317
H  H138  1  0.59110000  0.70920000  0.54110000  1.0 0.1378449317
H  H139  1  0.90890000  0.20920000  0.95890000  1.0 0.1378449317
H  H140  1  0.09110000  0.79080000  0.95890000  1.0 0.1378449317
H  H141  1  0.79080000  0.90890000  0.04110000  1.0 0.1378449317
H  H142  1  0.20920000  0.09110000  0.04110000  1.0 0.1378449317
H  H143  1  0.70920000  0.40890000  0.45890000  1.0 0.1378449317
H  H144  1  0.29080000  0.59110000  0.45890000  1.0 0.1378449317
H  H145  1  0.20320000  0.77530000  0.49430000  1.0 0.1107828444
H  H146  1  0.79680000  0.22470000  0.49430000  1.0 0.1107828444
H  H147  1  0.70320000  0.72470000  0.00570000  1.0 0.1107828444
H  H148  1  0.29680000  0.27530000  0.00570000  1.0 0.1107828444
H  H149  1  0.27530000  0.70320000  0.99430000  1.0 0.1107828444
H  H150  1  0.72470000  0.29680000  0.99430000  1.0 0.1107828444
H  H151  1  0.22470000  0.20320000  0.50570000  1.0 0.1107828444
H  H152  1  0.77530000  0.79680000  0.50570000  1.0 0.1107828444
H  H153  1  0.32520000  0.33240000  0.48730000  1.0 0.0834268345
H  H154  1  0.67480000  0.66760000  0.48730000  1.0 0.0834268345
H  H155  1  0.82520000  0.16760000  0.01270000  1.0 0.0834268345
H  H156  1  0.17480000  0.83240000  0.01270000  1.0 0.0834268345
H  H157  1  0.83240000  0.82520000  0.98730000  1.0 0.0834268345
H  H158  1  0.16760000  0.17480000  0.98730000  1.0 0.0834268345
H  H159  1  0.66760000  0.32520000  0.51270000  1.0 0.0834268345
H  H160  1  0.33240000  0.67480000  0.51270000  1.0 0.0834268345
H  H161  1  0.76950000  0.01040000  0.22330000  1.0 0.0533843553
H  H162  1  0.23050000  0.98960000  0.22330000  1.0 0.0533843553
H  H163  1  0.26950000  0.48960000  0.27670000  1.0 0.0533843553
H  H164  1  0.73050000  0.51040000  0.27670000  1.0 0.0533843553
H  H165  1  0.51040000  0.26950000  0.72330000  1.0 0.0533843553
H  H166  1  0.48960000  0.73050000  0.72330000  1.0 0.0533843553
H  H167  1  0.98960000  0.76950000  0.77670000  1.0 0.0533843553
H  H168  1  0.01040000  0.23050000  0.77670000  1.0 0.0533843553
H  H169  1  0.74680000  0.03660000  0.28740000  1.0 0.058698967
H  H170  1  0.25320000  0.96340000  0.28740000  1.0 0.058698967
H  H171  1  0.24680000  0.46340000  0.21260000  1.0 0.058698967
H  H172  1  0.75320000  0.53660000  0.21260000  1.0 0.058698967
H  H173  1  0.53660000  0.24680000  0.78740000  1.0 0.058698967
H  H174  1  0.46340000  0.75320000  0.78740000  1.0 0.058698967
H  H175  1  0.96340000  0.74680000  0.71260000  1.0 0.058698967
H  H176  1  0.03660000  0.25320000  0.71260000  1.0 0.058698967
H  H177  1  0.81570000  0.00170000  0.28030000  1.0 0.0689530639
H  H178  1  0.18430000  0.99830000  0.28030000  1.0 0.0689530639
H  H179  1  0.31570000  0.49830000  0.21970000  1.0 0.0689530639
H  H180  1  0.68430000  0.50170000  0.21970000  1.0 0.0689530639
H  H181  1  0.50170000  0.31570000  0.78030000  1.0 0.0689530639
H  H182  1  0.49830000  0.68430000  0.78030000  1.0 0.0689530639
H  H183  1  0.99830000  0.81570000  0.71970000  1.0 0.0689530639
H  H184  1  0.00170000  0.18430000  0.71970000  1.0 0.0689530639
H  H185  1  0.74300000  0.91320000  0.28800000  1.0 0.0689530639
H  H186  1  0.25700000  0.08680000  0.28800000  1.0 0.0689530639
H  H187  1  0.24300000  0.58680000  0.21200000  1.0 0.0689530639
H  H188  1  0.75700000  0.41320000  0.21200000  1.0 0.0689530639
H  H189  1  0.41320000  0.24300000  0.78800000  1.0 0.0689530639
H  H190  1  0.58680000  0.75700000  0.78800000  1.0 0.0689530639
H  H191  1  0.08680000  0.74300000  0.71200000  1.0 0.058698967
H  H192  1  0.91320000  0.25700000  0.71200000  1.0 0.0689530639
H  H193  1  0.72520000  0.96610000  0.33720000  1.0 0.0903633558
H  H194  1  0.27480000  0.03390000  0.33720000  1.0 0.0903633558
H  H195  1  0.22520000  0.53390000  0.16280000  1.0 0.0903633558
H  H196  1  0.77480000  0.46610000  0.16280000  1.0 0.0903633558
H  H197  1  0.46610000  0.22520000  0.83720000  1.0 0.0903633558
H  H198  1  0.53390000  0.77480000  0.83720000  1.0 0.0903633558
H  H199  1  0.03390000  0.72520000  0.66280000  1.0 0.0903633558
H  H200  1  0.96610000  0.27480000  0.66280000  1.0 0.0903633558
H  H201  1  0.56300000  0.04180000  0.59200000  1.0 0.1107828444
H  H202  1  0.43700000  0.95820000  0.59200000  1.0 0.1107828444
H  H203  1  0.06300000  0.45820000  0.90800000  1.0 0.1107828444
H  H204  1  0.93700000  0.54180000  0.90800000  1.0 0.1107828444
H  H205  1  0.54180000  0.06300000  0.09200000  1.0 0.1107828444
H  H206  1  0.45820000  0.93700000  0.09200000  1.0 0.1107828444
H  H207  1  0.95820000  0.56300000  0.40800000  1.0 0.1107828444
H  H208  1  0.04180000  0.43700000  0.40800000  1.0 0.1107828444
H  H209  1  0.52540000  0.09170000  0.54820000  1.0 0.216890885
H  H210  1  0.47460000  0.90830000  0.54820000  1.0 0.216890885
H  H211  1  0.02540000  0.40830000  0.95180000  1.0 0.216890885
H  H212  1  0.97460000  0.59170000  0.95180000  1.0 0.216890885
H  H213  1  0.59170000  0.02540000  0.04820000  1.0 0.216890885
H  H214  1  0.40830000  0.97460000  0.04820000  1.0 0.216890885
H  H215  1  0.90830000  0.52540000  0.45180000  1.0 0.216890885
H  H216  1  0.09170000  0.47460000  0.45180000  1.0 0.216890885
H  H217  1  0.43280000  0.07950000  0.60270000  1.0 0.2031151284
H  H218  1  0.56720000  0.92050000  0.60270000  1.0 0.2031151284
H  H219  1  0.93280000  0.42050000  0.89730000  1.0 0.2031151284
H  H220  1  0.06720000  0.57950000  0.89730000  1.0 0.2031151284
H  H221  1  0.57950000  0.93280000  0.10270000  1.0 0.2031151284
H  H222  1  0.42050000  0.06720000  0.10270000  1.0 0.2031151284
H  H223  1  0.92050000  0.43280000  0.39730000  1.0 0.2031151284
H  H224  1  0.07950000  0.56720000  0.39730000  1.0 0.2031151284
H  H225  1  0.46990000  0.03010000  0.64600000  1.0 0.1517053233
H  H226  1  0.53010000  0.96990000  0.64600000  1.0 0.1517053233
H  H227  1  0.96990000  0.46990000  0.85400000  1.0 0.1517053233
H  H228  1  0.03010000  0.53010000  0.85400000  1.0 0.1517053233
H  H229  1  0.53010000  0.96990000  0.14600000  1.0 0.1517053233
H  H230  1  0.46990000  0.03010000  0.14600000  1.0 0.1517053233
H  H231  1  0.96990000  0.46990000  0.35400000  1.0 0.1517053233
H  H232  1  0.03010000  0.53010000  0.35400000  1.0 0.1517053233
H  H233  1  0.49110000  0.10480000  0.64390000  1.0 0.2492484436
H  H234  1  0.50890000  0.89520000  0.64390000  1.0 0.2492484436
H  H235  1  0.99110000  0.39520000  0.85610000  1.0 0.2492484436
H  H236  1  0.00890000  0.60480000  0.85610000  1.0 0.2492484436
H  H237  1  0.60480000  0.99110000  0.14390000  1.0 0.2492484436
H  H238  1  0.39520000  0.00890000  0.14390000  1.0 0.2492484436
H  H239  1  0.89520000  0.49110000  0.35610000  1.0 0.2492484436
H  H240  1  0.10480000  0.50890000  0.35610000  1.0 0.2492484436
H  H241  1  0.75250000  0.99720000  0.48460000  1.0 0.0689530639
H  H242  1  0.71150000  0.95450000  0.43820000  1.0 0.0834268345
H  H243  1  0.71590000  0.92550000  0.56330000  1.0 0.1107828444
H  H244  1  0.67670000  0.88980000  0.51100000  1.0 0.1107828444
H  H245  1  0.65650000  0.96150000  0.53120000  1.0 0.099103487
H  H246  1  0.24750000  0.00280000  0.48460000  1.0 0.0689530639
H  H247  1  0.28850000  0.04550000  0.43820000  1.0 0.0834268345
H  H248  1  0.28410000  0.07450000  0.56330000  1.0 0.1107828444
H  H249  1  0.32330000  0.11020000  0.51100000  1.0 0.1107828444
H  H250  1  0.34350000  0.03850000  0.53120000  1.0 0.099103487
H  H251  1  0.74750000  0.49720000  0.01540000  1.0 0.0689530639
H  H252  1  0.78850000  0.45450000  0.06180000  1.0 0.0834268345
H  H253  1  0.78410000  0.42550000  0.93670000  1.0 0.1107828444
H  H254  1  0.82330000  0.38980000  0.98900000  1.0 0.1107828444
H  H255  1  0.84350000  0.46150000  0.96880000  1.0 0.099103487
H  H256  1  0.25250000  0.50280000  0.01540000  1.0 0.0689530639
H  H257  1  0.21150000  0.54550000  0.06180000  1.0 0.0834268345
H  H258  1  0.21590000  0.57450000  0.93670000  1.0 0.1107828444
H  H259  1  0.17670000  0.61020000  0.98900000  1.0 0.1107828444
H  H260  1  0.15650000  0.53850000  0.96880000  1.0 0.099103487
H  H261  1  0.49720000  0.25250000  0.98460000  1.0 0.0689530639
H  H262  1  0.45450000  0.21150000  0.93820000  1.0 0.0834268345
H  H263  1  0.42550000  0.21590000  0.06330000  1.0 0.1107828444
H  H264  1  0.38980000  0.17670000  0.01100000  1.0 0.1107828444
H  H265  1  0.46150000  0.15650000  0.03120000  1.0 0.099103487
H  H266  1  0.50280000  0.74750000  0.98460000  1.0 0.0689530639
H  H267  1  0.54550000  0.78850000  0.93820000  1.0 0.0834268345
H  H268  1  0.57450000  0.78410000  0.06330000  1.0 0.1107828444
H  H269  1  0.61020000  0.82330000  0.01100000  1.0 0.1107828444
H  H270  1  0.53850000  0.84350000  0.03120000  1.0 0.099103487
H  H271  1  0.99720000  0.24750000  0.51540000  1.0 0.0689530639
H  H272  1  0.95450000  0.28850000  0.56180000  1.0 0.0834268345
H  H273  1  0.92550000  0.28410000  0.43670000  1.0 0.1107828444
H  H274  1  0.88980000  0.32330000  0.48900000  1.0 0.1107828444
H  H275  1  0.96150000  0.34350000  0.46880000  1.0 0.099103487
H  H276  1  0.00280000  0.75250000  0.51540000  1.0 0.0689530639
H  H277  1  0.04550000  0.71150000  0.56180000  1.0 0.0834268345
H  H278  1  0.07450000  0.71590000  0.43670000  1.0 0.1107828444
H  H279  1  0.11020000  0.67670000  0.48900000  1.0 0.1107828444
H  H280  1  0.03850000  0.65650000  0.46880000  1.0 0.099103487
C  C1  1  0.67900000  0.35660000  0.17150000  1.0 -0.2193056806
C  C2  1  0.32100000  0.64340000  0.17150000  1.0 -0.2193056806
C  C3  1  0.17900000  0.14340000  0.32850000  1.0 -0.2193056806
C  C4  1  0.82100000  0.85660000  0.32850000  1.0 -0.2193056806
C  C5  1  0.85660000  0.17900000  0.67150000  1.0 -0.2193056806
C  C6  1  0.14340000  0.82100000  0.67150000  1.0 -0.2193056806
C  C7  1  0.64340000  0.67900000  0.82850000  1.0 -0.2193056806
C  C8  1  0.35660000  0.32100000  0.82850000  1.0 -0.2193056806
C  C9  1  0.59790000  0.15080000  0.18620000  1.0 0.004308118
C  C10  1  0.40210000  0.84920000  0.18620000  1.0 0.0079812993
C  C11  1  0.09790000  0.34920000  0.31380000  1.0 0.0079812993
C  C12  1  0.90210000  0.65080000  0.31380000  1.0 0.0079812993
C  C13  1  0.65080000  0.09790000  0.68620000  1.0 0.004308118
C  C14  1  0.34920000  0.90210000  0.68620000  1.0 0.0079812993
C  C15  1  0.84920000  0.59790000  0.81380000  1.0 0.004308118
C  C16  1  0.15080000  0.40210000  0.81380000  1.0 0.0079812993
C  C17  1  0.56690000  0.24160000  0.13240000  1.0 0.0689530639
C  C18  1  0.43310000  0.75840000  0.13240000  1.0 0.0689530639
C  C19  1  0.06690000  0.25840000  0.36760000  1.0 0.0689530639
C  C20  1  0.93310000  0.74160000  0.36760000  1.0 0.0689530639
C  C21  1  0.74160000  0.06690000  0.63240000  1.0 0.0689530639
C  C22  1  0.25840000  0.93310000  0.63240000  1.0 0.0689530639
C  C23  1  0.75840000  0.56690000  0.86760000  1.0 0.0689530639
C  C24  1  0.24160000  0.43310000  0.86760000  1.0 0.0689530639
C  C25  1  0.53460000  0.14340000  0.20770000  1.0 -0.0844361828
C  C26  1  0.46540000  0.85660000  0.20770000  1.0 -0.0844361828
C  C27  1  0.03460000  0.35660000  0.29230000  1.0 -0.0844361828
C  C28  1  0.96540000  0.64340000  0.29230000  1.0 -0.0865980401
C  C29  1  0.64340000  0.03460000  0.70770000  1.0 -0.0844361828
C  C30  1  0.35660000  0.96540000  0.70770000  1.0 -0.0865980401
C  C31  1  0.85660000  0.53460000  0.79230000  1.0 -0.0844361828
C  C32  1  0.14340000  0.46540000  0.79230000  1.0 -0.0844361828
C  C33  1  0.50510000  0.23790000  0.15180000  1.0 -0.1285889262
C  C34  1  0.49490000  0.76210000  0.15180000  1.0 -0.1285889262
C  C35  1  0.00510000  0.26210000  0.34820000  1.0 -0.1285889262
C  C36  1  0.99490000  0.73790000  0.34820000  1.0 -0.1285889262
C  C37  1  0.73790000  0.00510000  0.65180000  1.0 -0.1285889262
C  C38  1  0.26210000  0.99490000  0.65180000  1.0 -0.1285889262
C  C39  1  0.76210000  0.50510000  0.84820000  1.0 -0.1285889262
C  C40  1  0.23790000  0.49490000  0.84820000  1.0 -0.1285889262
C  C41  1  0.52030000  0.08810000  0.24800000  1.0 0.5636370168
C  C42  1  0.47970000  0.91190000  0.24800000  1.0 0.5636370168
C  C43  1  0.02030000  0.41190000  0.25200000  1.0 0.5636370168
C  C44  1  0.97970000  0.58810000  0.25200000  1.0 0.5636370168
C  C45  1  0.58810000  0.02030000  0.74800000  1.0 0.5636370168
C  C46  1  0.41190000  0.97970000  0.74800000  1.0 0.5636370168
C  C47  1  0.91190000  0.52030000  0.75200000  1.0 0.5636370168
C  C48  1  0.08810000  0.47970000  0.75200000  1.0 0.5636370168
C  C49  1  0.48800000  0.18710000  0.19130000  1.0 -0.0639017632
C  C50  1  0.51200000  0.81290000  0.19130000  1.0 -0.0639017632
C  C51  1  0.98800000  0.31290000  0.30870000  1.0 -0.0639017632
C  C52  1  0.01200000  0.68710000  0.30870000  1.0 -0.0639017632
C  C53  1  0.68710000  0.98800000  0.69130000  1.0 -0.0639017632
C  C54  1  0.31290000  0.01200000  0.69130000  1.0 -0.0639017632
C  C55  1  0.81290000  0.48800000  0.80870000  1.0 -0.0639017632
C  C56  1  0.18710000  0.51200000  0.80870000  1.0 -0.0639017632
C  C57  1  0.37310000  0.93900000  0.41620000  1.0 0.6045671538
C  C58  1  0.62690000  0.06100000  0.41620000  1.0 0.6045671538
C  C59  1  0.87310000  0.56100000  0.08380000  1.0 0.6045671538
C  C60  1  0.12690000  0.43900000  0.08380000  1.0 0.6045671538
C  C61  1  0.43900000  0.87310000  0.91620000  1.0 0.6045671538
C  C62  1  0.56100000  0.12690000  0.91620000  1.0 0.6045671538
C  C63  1  0.06100000  0.37310000  0.58380000  1.0 0.6045671538
C  C64  1  0.93900000  0.62690000  0.58380000  1.0 0.6045671538
C  C65  1  0.42040000  0.11360000  0.42100000  1.0 0.61337903
C  C66  1  0.57960000  0.88640000  0.42100000  1.0 0.61337903
C  C67  1  0.92040000  0.38640000  0.07900000  1.0 0.61337903
C  C68  1  0.07960000  0.61360000  0.07900000  1.0 0.61337903
C  C69  1  0.61360000  0.92040000  0.92100000  1.0 0.61337903
C  C70  1  0.38640000  0.07960000  0.92100000  1.0 0.61337903
C  C71  1  0.88640000  0.42040000  0.57900000  1.0 0.61337903
C  C72  1  0.11360000  0.57960000  0.57900000  1.0 0.61337903
C  C73  1  0.29050000  0.99780000  0.25650000  1.0 -0.0360181579
C  C74  1  0.70950000  0.00220000  0.25650000  1.0 -0.0346023641
C  C75  1  0.79050000  0.50220000  0.24350000  1.0 -0.0346023641
C  C76  1  0.20950000  0.49780000  0.24350000  1.0 -0.0360181579
C  C77  1  0.49780000  0.79050000  0.75650000  1.0 -0.0346023641
C  C78  1  0.50220000  0.20950000  0.75650000  1.0 -0.0360181579
C  C79  1  0.00220000  0.29050000  0.74350000  1.0 -0.0360181579
C  C80  1  0.99780000  0.70950000  0.74350000  1.0 -0.0346023641
C  C81  1  0.32200000  0.89220000  0.43730000  1.0 -0.0639017632
C  C82  1  0.67800000  0.10780000  0.43730000  1.0 -0.0639017632
C  C83  1  0.82200000  0.60780000  0.06270000  1.0 -0.0639017632
C  C84  1  0.17800000  0.39220000  0.06270000  1.0 -0.0639017632
C  C85  1  0.39220000  0.82200000  0.93730000  1.0 -0.0639017632
C  C86  1  0.60780000  0.17800000  0.93730000  1.0 -0.0639017632
C  C87  1  0.10780000  0.32200000  0.56270000  1.0 -0.0639017632
C  C88  1  0.89220000  0.67800000  0.56270000  1.0 -0.0639017632
C  C89  1  0.39540000  0.17720000  0.44100000  1.0 -0.0713969248
C  C90  1  0.60460000  0.82280000  0.44100000  1.0 -0.0713969248
C  C91  1  0.89540000  0.32280000  0.05900000  1.0 -0.0713969248
C  C92  1  0.10460000  0.67720000  0.05900000  1.0 -0.0713969248
C  C93  1  0.67720000  0.89540000  0.94100000  1.0 -0.0713969248
C  C94  1  0.32280000  0.10460000  0.94100000  1.0 -0.0713969248
C  C95  1  0.82280000  0.39540000  0.55900000  1.0 -0.0713969248
C  C96  1  0.17720000  0.60460000  0.55900000  1.0 -0.0713969248
C  C97  1  0.22830000  0.02800000  0.24200000  1.0 -0.1572512402
C  C98  1  0.77170000  0.97200000  0.24200000  1.0 -0.1572512402
C  C99  1  0.72830000  0.47200000  0.25800000  1.0 -0.1572512402
C  C100  1  0.27170000  0.52800000  0.25800000  1.0 -0.1572512402
C  C101  1  0.52800000  0.72830000  0.74200000  1.0 -0.1572512402
C  C102  1  0.47200000  0.27170000  0.74200000  1.0 -0.1572512402
C  C103  1  0.97200000  0.22830000  0.75800000  1.0 -0.1572512402
C  C104  1  0.02800000  0.77170000  0.75800000  1.0 -0.1572512402
C  C105  1  0.32500000  0.86710000  0.49440000  1.0 -0.001741097
C  C106  1  0.67500000  0.13290000  0.49440000  1.0 -0.001741097
C  C107  1  0.82500000  0.63290000  0.00560000  1.0 -0.001741097
C  C108  1  0.17500000  0.36710000  0.00560000  1.0 -0.001741097
C  C109  1  0.36710000  0.82500000  0.99440000  1.0 -0.001741097
C  C110  1  0.63290000  0.17500000  0.99440000  1.0 -0.001741097
C  C111  1  0.13290000  0.32500000  0.50560000  1.0 -0.001741097
C  C112  1  0.86710000  0.67500000  0.50560000  1.0 -0.001741097
C  C113  1  0.27250000  0.87320000  0.39980000  1.0 -0.0360181579
C  C114  1  0.72750000  0.12680000  0.39980000  1.0 -0.0360181579
C  C115  1  0.77250000  0.62680000  0.10020000  1.0 -0.0360181579
C  C116  1  0.22750000  0.37320000  0.10020000  1.0 -0.0360181579
C  C117  1  0.37320000  0.77250000  0.89980000  1.0 -0.0360181579
C  C118  1  0.62680000  0.22750000  0.89980000  1.0 -0.0360181579
C  C119  1  0.12680000  0.27250000  0.60020000  1.0 -0.0360181579
C  C120  1  0.87320000  0.72750000  0.60020000  1.0 -0.0360181579
C  C121  1  0.34290000  0.20470000  0.41110000  1.0 0.0903633558
C  C122  1  0.65710000  0.79530000  0.41110000  1.0 0.0903633558
C  C123  1  0.84290000  0.29530000  0.08890000  1.0 0.0903633558
C  C124  1  0.15710000  0.70470000  0.08890000  1.0 0.0903633558
C  C125  1  0.70470000  0.84290000  0.91110000  1.0 0.0903633558
C  C126  1  0.29530000  0.15710000  0.91110000  1.0 0.0903633558
C  C127  1  0.79530000  0.34290000  0.58890000  1.0 0.0903633558
C  C128  1  0.20470000  0.65710000  0.58890000  1.0 0.0903633558
C  C129  1  0.42290000  0.21030000  0.49000000  1.0 -0.0713969248
C  C130  1  0.57710000  0.78970000  0.49000000  1.0 -0.0713969248
C  C131  1  0.92290000  0.28970000  0.01000000  1.0 -0.0713969248
C  C132  1  0.07710000  0.71030000  0.01000000  1.0 -0.0713969248
C  C133  1  0.71030000  0.92290000  0.99000000  1.0 -0.0713969248
C  C134  1  0.28970000  0.07710000  0.99000000  1.0 -0.0713969248
C  C135  1  0.78970000  0.42290000  0.51000000  1.0 -0.0713969248
C  C136  1  0.21030000  0.57710000  0.51000000  1.0 -0.0713969248
C  C137  1  0.22590000  0.83070000  0.42260000  1.0 -0.1285889262
C  C138  1  0.77410000  0.16930000  0.42260000  1.0 -0.1285889262
C  C139  1  0.72590000  0.66930000  0.07740000  1.0 -0.1285889262
C  C140  1  0.27410000  0.33070000  0.07740000  1.0 -0.1285889262
C  C141  1  0.33070000  0.72590000  0.92260000  1.0 -0.1285889262
C  C142  1  0.66930000  0.27410000  0.92260000  1.0 -0.1285889262
C  C143  1  0.16930000  0.22590000  0.57740000  1.0 -0.1285889262
C  C144  1  0.83070000  0.77410000  0.57740000  1.0 -0.1285889262
C  C145  1  0.39330000  0.26800000  0.50710000  1.0 -0.1362367361
C  C146  1  0.60670000  0.73200000  0.50710000  1.0 -0.1362367361
C  C147  1  0.89330000  0.23200000  0.99290000  1.0 -0.1362367361
C  C148  1  0.10670000  0.76800000  0.99290000  1.0 -0.1362367361
C  C149  1  0.76800000  0.89330000  0.00710000  1.0 -0.1362367361
C  C150  1  0.23200000  0.10670000  0.00710000  1.0 -0.1362367361
C  C151  1  0.73200000  0.39330000  0.49290000  1.0 -0.1362367361
C  C152  1  0.26800000  0.60670000  0.49290000  1.0 -0.1362367361
C  C153  1  0.23380000  0.80630000  0.48030000  1.0 0.099103487
C  C154  1  0.76620000  0.19370000  0.48030000  1.0 0.099103487
C  C155  1  0.73380000  0.69370000  0.01970000  1.0 0.099103487
C  C156  1  0.26620000  0.30630000  0.01970000  1.0 0.099103487
C  C157  1  0.30630000  0.73380000  0.98030000  1.0 0.099103487
C  C158  1  0.69370000  0.26620000  0.98030000  1.0 0.099103487
C  C159  1  0.19370000  0.23380000  0.51970000  1.0 0.099103487
C  C160  1  0.80630000  0.76620000  0.51970000  1.0 0.099103487
C  C161  1  0.34270000  0.29160000  0.47580000  1.0 0.0360308582
C  C162  1  0.65730000  0.70840000  0.47580000  1.0 0.0360308582
C  C163  1  0.84270000  0.20840000  0.02420000  1.0 0.0360308582
C  C164  1  0.15730000  0.79160000  0.02420000  1.0 0.0360308582
C  C165  1  0.79160000  0.84270000  0.97580000  1.0 0.0360308582
C  C166  1  0.20840000  0.15730000  0.97580000  1.0 0.0360308582
C  C167  1  0.70840000  0.34270000  0.52420000  1.0 0.0360308582
C  C168  1  0.29160000  0.65730000  0.52420000  1.0 0.0360308582
C  C169  1  0.77100000  0.00200000  0.26700000  1.0 -0.1777916714
C  C170  1  0.22900000  0.99800000  0.26700000  1.0 -0.1777916714
C  C171  1  0.27100000  0.49800000  0.23300000  1.0 -0.1777916714
C  C172  1  0.72900000  0.50200000  0.23300000  1.0 -0.1777916714
C  C173  1  0.50200000  0.27100000  0.76700000  1.0 -0.1777916714
C  C174  1  0.49800000  0.72900000  0.76700000  1.0 -0.1777916714
C  C175  1  0.99800000  0.77100000  0.73300000  1.0 -0.1777916714
C  C176  1  0.00200000  0.22900000  0.73300000  1.0 -0.1777916714
C  C177  1  0.72560000  0.95800000  0.29400000  1.0 -0.0143072676
C  C178  1  0.27440000  0.04200000  0.29400000  1.0 -0.0143072676
C  C179  1  0.22560000  0.54200000  0.20600000  1.0 -0.0143072676
C  C180  1  0.77440000  0.45800000  0.20600000  1.0 -0.0143072676
C  C181  1  0.45800000  0.22560000  0.79400000  1.0 -0.0143072676
C  C182  1  0.54200000  0.77440000  0.79400000  1.0 -0.0143072676
C  C183  1  0.04200000  0.72560000  0.70600000  1.0 -0.0143072676
C  C184  1  0.95800000  0.27440000  0.70600000  1.0 -0.0143072676
C  C185  1  0.52060000  0.05270000  0.57370000  1.0 0.0225065878
C  C186  1  0.47940000  0.94730000  0.57370000  1.0 0.0225065878
C  C187  1  0.02060000  0.44730000  0.92630000  1.0 0.0225065878
C  C188  1  0.97940000  0.55270000  0.92630000  1.0 0.0225065878
C  C189  1  0.55270000  0.02060000  0.07370000  1.0 0.0225065878
C  C190  1  0.44730000  0.97940000  0.07370000  1.0 0.0225065878
C  C191  1  0.94730000  0.52060000  0.42630000  1.0 0.0225065878
C  C192  1  0.05270000  0.47940000  0.42630000  1.0 0.0225065878
C  C193  1  0.47490000  0.06810000  0.62020000  1.0 0.0079812993
C  C194  1  0.52510000  0.93190000  0.62020000  1.0 0.0079812993
C  C195  1  0.97490000  0.43190000  0.87980000  1.0 0.0079812993
C  C196  1  0.02510000  0.56810000  0.87980000  1.0 0.0079812993
C  C197  1  0.56810000  0.97490000  0.12020000  1.0 0.0079812993
C  C198  1  0.43190000  0.02510000  0.12020000  1.0 0.0079812993
C  C199  1  0.93190000  0.47490000  0.37980000  1.0 0.0079812993
C  C200  1  0.06810000  0.52510000  0.37980000  1.0 0.0079812993
C  C201  1  0.73620000  0.95300000  0.47610000  1.0 0.0903633558
C  C202  1  0.69300000  0.93200000  0.52530000  1.0 -0.4478475578
C  C203  1  0.26380000  0.04700000  0.47610000  1.0 0.0903633558
C  C204  1  0.30700000  0.06800000  0.52530000  1.0 -0.4478475578
C  C205  1  0.76380000  0.45300000  0.02390000  1.0 0.0903633558
C  C206  1  0.80700000  0.43200000  0.97470000  1.0 -0.4478475578
C  C207  1  0.23620000  0.54700000  0.02390000  1.0 0.0903633558
C  C208  1  0.19300000  0.56800000  0.97470000  1.0 -0.4478475578
C  C209  1  0.45300000  0.23620000  0.97610000  1.0 0.0903633558
C  C210  1  0.43200000  0.19300000  0.02530000  1.0 -0.4478475578
C  C211  1  0.54700000  0.76380000  0.97610000  1.0 0.0903633558
C  C212  1  0.56800000  0.80700000  0.02530000  1.0 -0.4478475578
C  C213  1  0.95300000  0.26380000  0.52390000  1.0 0.0903633558
C  C214  1  0.93200000  0.30700000  0.47470000  1.0 -0.4478475578
C  C215  1  0.04700000  0.73620000  0.52390000  1.0 0.0903633558
C  C216  1  0.06800000  0.69300000  0.47470000  1.0 -0.4478475578
N  N1  1  0.49100000  0.12070000  0.62810000  1.0 0.0280898865
N  N2  1  0.50900000  0.87930000  0.62810000  1.0 0.0280898865
N  N3  1  0.99100000  0.37930000  0.87190000  1.0 0.0280898865
N  N4  1  0.00900000  0.62070000  0.87190000  1.0 0.0280898865
N  N5  1  0.62070000  0.99100000  0.12810000  1.0 0.0280898865
N  N6  1  0.37930000  0.00900000  0.12810000  1.0 0.0280898865
N  N7  1  0.87930000  0.49100000  0.37190000  1.0 0.0280898865
N  N8  1  0.12070000  0.50900000  0.37190000  1.0 0.0280898865
N  N9  1  0.61340000  0.19860000  0.14970000  1.0 -0.252121504
N  N10  1  0.38660000  0.80140000  0.14970000  1.0 -0.252121504
N  N11  1  0.11340000  0.30140000  0.35030000  1.0 -0.252121504
N  N12  1  0.88660000  0.69860000  0.35030000  1.0 -0.252121504
N  N13  1  0.69860000  0.11340000  0.64970000  1.0 -0.252121504
N  N14  1  0.30140000  0.88660000  0.64970000  1.0 -0.252121504
N  N15  1  0.80140000  0.61340000  0.85030000  1.0 -0.252121504
N  N16  1  0.19860000  0.38660000  0.85030000  1.0 -0.252121504
N  N17  1  0.81530000  0.23990000  0.07130000  1.0 -0.2371232301
N  N18  1  0.18470000  0.76010000  0.07130000  1.0 -0.2371232301
N  N19  1  0.31530000  0.26010000  0.42870000  1.0 -0.2371232301
N  N20  1  0.68470000  0.73990000  0.42870000  1.0 -0.2371232301
N  N21  1  0.73990000  0.31530000  0.57130000  1.0 -0.2371232301
N  N22  1  0.26010000  0.68470000  0.57130000  1.0 -0.2371232301
N  N23  1  0.76010000  0.81530000  0.92870000  1.0 -0.2371232301
N  N24  1  0.23990000  0.18470000  0.92870000  1.0 -0.2371232301
N  N25  1  0.67630000  0.21870000  0.01660000  1.0 -0.2644928038
N  N26  1  0.32370000  0.78130000  0.01660000  1.0 -0.2644928038
N  N27  1  0.17630000  0.28130000  0.48340000  1.0 -0.2644928038
N  N28  1  0.82370000  0.71870000  0.48340000  1.0 -0.2644928038
N  N29  1  0.71870000  0.17630000  0.51660000  1.0 -0.2644928038
N  N30  1  0.28130000  0.82370000  0.51660000  1.0 -0.2644928038
N  N31  1  0.78130000  0.67630000  0.98340000  1.0 -0.2644928038
N  N32  1  0.21870000  0.32370000  0.98340000  1.0 -0.2644928038
N  N33  1  0.77450000  0.19360000  0.23540000  1.0 0.5005883411
N  N34  1  0.22550000  0.80640000  0.23540000  1.0 0.5005883411
N  N35  1  0.27450000  0.30640000  0.26460000  1.0 0.5005883411
N  N36  1  0.72550000  0.69360000  0.26460000  1.0 0.5005883411
N  N37  1  0.69360000  0.27450000  0.73540000  1.0 0.5005883411
N  N38  1  0.30640000  0.72550000  0.73540000  1.0 0.5005883411
N  N39  1  0.80640000  0.77450000  0.76460000  1.0 0.5005883411
N  N40  1  0.19360000  0.22550000  0.76460000  1.0 0.5005883411
N  N41  1  0.74620000  0.06040000  0.10000000  1.0 0.3707581148
N  N42  1  0.25380000  0.93960000  0.10000000  1.0 0.3707581148
N  N43  1  0.24620000  0.43960000  0.40000000  1.0 0.3707581148
N  N44  1  0.75380000  0.56040000  0.40000000  1.0 0.3707581148
N  N45  1  0.56040000  0.24620000  0.60000000  1.0 0.3707581148
N  N46  1  0.43960000  0.75380000  0.60000000  1.0 0.3707581148
N  N47  1  0.93960000  0.74620000  0.90000000  1.0 0.3707581148
N  N48  1  0.06040000  0.25380000  0.90000000  1.0 0.3707581148
O  O1  1  0.44720000  0.08640000  0.64350000  1.0 -0.1285889262
O  O2  1  0.55280000  0.91360000  0.64350000  1.0 -0.1285889262
O  O3  1  0.94720000  0.41360000  0.85650000  1.0 -0.1285889262
O  O4  1  0.05280000  0.58640000  0.85650000  1.0 -0.1285889262
O  O5  1  0.58640000  0.94720000  0.14350000  1.0 -0.1285889262
O  O6  1  0.41360000  0.05280000  0.14350000  1.0 -0.1285889262
O  O7  1  0.91360000  0.44720000  0.35650000  1.0 -0.1285889262
O  O8  1  0.08640000  0.55280000  0.35650000  1.0 -0.1285889262
O  O9  1  0.53000000  0.10550000  0.58730000  1.0 -0.0997936442
O  O10  1  0.47000000  0.89450000  0.58730000  1.0 -0.0997936442
O  O11  1  0.03000000  0.39450000  0.91270000  1.0 -0.0997936442
O  O12  1  0.97000000  0.60550000  0.91270000  1.0 -0.0997936442
O  O13  1  0.60550000  0.03000000  0.08730000  1.0 -0.0997936442
O  O14  1  0.39450000  0.97000000  0.08730000  1.0 -0.0997936442
O  O15  1  0.89450000  0.53000000  0.41270000  1.0 -0.0997936442
O  O16  1  0.10550000  0.47000000  0.41270000  1.0 -0.0997936442
O  O17  1  0.49870000  0.17560000  0.65740000  1.0 -0.4399570614
O  O18  1  0.50130000  0.82440000  0.65740000  1.0 -0.4399570614
O  O19  1  0.99870000  0.32440000  0.84260000  1.0 -0.4399570614
O  O20  1  0.00130000  0.67560000  0.84260000  1.0 -0.4399570614
O  O21  1  0.67560000  0.99870000  0.15740000  1.0 -0.4399570614
O  O22  1  0.32440000  0.00130000  0.15740000  1.0 -0.4399570614
O  O23  1  0.82440000  0.49870000  0.34260000  1.0 -0.4399570614
O  O24  1  0.17560000  0.50130000  0.34260000  1.0 -0.4399570614
O  O25  1  0.69660000  0.32410000  0.11850000  1.0 -0.4201599672
O  O26  1  0.30340000  0.67590000  0.11850000  1.0 -0.4201599672
O  O27  1  0.19660000  0.17590000  0.38150000  1.0 -0.4201599672
O  O28  1  0.80340000  0.82410000  0.38150000  1.0 -0.4201599672
O  O29  1  0.82410000  0.19660000  0.61850000  1.0 -0.4201599672
O  O30  1  0.17590000  0.80340000  0.61850000  1.0 -0.4255220904
O  O31  1  0.67590000  0.69660000  0.88150000  1.0 -0.4201599672
O  O32  1  0.32410000  0.30340000  0.88150000  1.0 -0.4201599672
O  O33  1  0.76970000  0.24600000  0.20560000  1.0 -0.3844242607
O  O34  1  0.23030000  0.75400000  0.20560000  1.0 -0.3844242607
O  O35  1  0.26970000  0.25400000  0.29440000  1.0 -0.3853406623
O  O36  1  0.73030000  0.74600000  0.29440000  1.0 -0.3844242607
O  O37  1  0.74600000  0.26970000  0.70560000  1.0 -0.3844242607
O  O38  1  0.25400000  0.73030000  0.70560000  1.0 -0.3844242607
O  O39  1  0.75400000  0.76970000  0.79440000  1.0 -0.3844242607
O  O40  1  0.24600000  0.23030000  0.79440000  1.0 -0.3853406623
O  O41  1  0.74700000  0.14840000  0.21270000  1.0 -0.4024648774
O  O42  1  0.25300000  0.85160000  0.21270000  1.0 -0.4024648774
O  O43  1  0.24700000  0.35160000  0.28730000  1.0 -0.4024648774
O  O44  1  0.75300000  0.64840000  0.28730000  1.0 -0.4024648774
O  O45  1  0.64840000  0.24700000  0.71270000  1.0 -0.4024648774
O  O46  1  0.35160000  0.75300000  0.71270000  1.0 -0.4024648774
O  O47  1  0.85160000  0.74700000  0.78730000  1.0 -0.4024648774
O  O48  1  0.14840000  0.25300000  0.78730000  1.0 -0.4024648774
O  O49  1  0.79000000  0.10030000  0.09480000  1.0 -0.0713969248
O  O50  1  0.21000000  0.89970000  0.09480000  1.0 -0.0713969248
O  O51  1  0.29000000  0.39970000  0.40520000  1.0 -0.0713969248
O  O52  1  0.71000000  0.60030000  0.40520000  1.0 -0.0713969248
O  O53  1  0.60030000  0.29000000  0.59480000  1.0 -0.0713969248
O  O54  1  0.39970000  0.71000000  0.59480000  1.0 -0.0713969248
O  O55  1  0.89970000  0.79000000  0.90520000  1.0 -0.0713969248
O  O56  1  0.10030000  0.21000000  0.90520000  1.0 -0.0713969248
O  O57  1  0.69790000  0.08770000  0.10100000  1.0 -0.0865980401
O  O58  1  0.30210000  0.91230000  0.10100000  1.0 -0.0865980401
O  O59  1  0.19790000  0.41230000  0.39900000  1.0 -0.0844361828
O  O60  1  0.80210000  0.58770000  0.39900000  1.0 -0.0865980401
O  O61  1  0.58770000  0.19790000  0.60100000  1.0 -0.0865980401
O  O62  1  0.41230000  0.80210000  0.60100000  1.0 -0.0865980401
O  O63  1  0.91230000  0.69790000  0.89900000  1.0 -0.0865980401
O  O64  1  0.08770000  0.30210000  0.89900000  1.0 -0.0865980401
O  O65  1  0.80200000  0.18760000  0.28310000  1.0 -0.3657678938
O  O66  1  0.19800000  0.81240000  0.28310000  1.0 -0.3657678938
O  O67  1  0.30200000  0.31240000  0.21690000  1.0 -0.3657678938
O  O68  1  0.69800000  0.68760000  0.21690000  1.0 -0.3657678938
O  O69  1  0.68760000  0.30200000  0.78310000  1.0 -0.3657678938
O  O70  1  0.31240000  0.69800000  0.78310000  1.0 -0.3657678938
O  O71  1  0.81240000  0.80200000  0.71690000  1.0 -0.3657678938
O  O72  1  0.18760000  0.19800000  0.71690000  1.0 -0.3657678938
O  O73  1  0.75310000  0.00790000  0.10090000  1.0 -0.1183802714
O  O74  1  0.24690000  0.99210000  0.10090000  1.0 -0.1183802714
O  O75  1  0.25310000  0.49210000  0.39910000  1.0 -0.1183802714
O  O76  1  0.74690000  0.50790000  0.39910000  1.0 -0.1183802714
O  O77  1  0.50790000  0.25310000  0.60090000  1.0 -0.1183802714
O  O78  1  0.49210000  0.74690000  0.60090000  1.0 -0.1183802714
O  O79  1  0.99210000  0.75310000  0.89910000  1.0 -0.1183802714
O  O80  1  0.00790000  0.24690000  0.89910000  1.0 -0.1183802714
O  O81  1  0.46320000  0.08740000  0.27030000  1.0 -0.5746403053
O  O82  1  0.53680000  0.91260000  0.27030000  1.0 -0.5746403053
O  O83  1  0.96320000  0.41260000  0.22970000  1.0 -0.5746403053
O  O84  1  0.03680000  0.58740000  0.22970000  1.0 -0.5746403053
O  O85  1  0.58740000  0.96320000  0.77030000  1.0 -0.5746403053
O  O86  1  0.41260000  0.03680000  0.77030000  1.0 -0.5746403053
O  O87  1  0.91260000  0.46320000  0.72970000  1.0 -0.5746403053
O  O88  1  0.08740000  0.53680000  0.72970000  1.0 -0.5746403053
O  O89  1  0.56320000  0.04810000  0.25730000  1.0 -0.5583782881
O  O90  1  0.43680000  0.95190000  0.25730000  1.0 -0.5583782881
O  O91  1  0.06320000  0.45190000  0.24270000  1.0 -0.5583782881
O  O92  1  0.93680000  0.54810000  0.24270000  1.0 -0.5583782881
O  O93  1  0.54810000  0.06320000  0.75730000  1.0 -0.5583782881
O  O94  1  0.45190000  0.93680000  0.75730000  1.0 -0.5583782881
O  O95  1  0.95190000  0.56320000  0.74270000  1.0 -0.5583782881
O  O96  1  0.04810000  0.43680000  0.74270000  1.0 -0.5583782881
O  O97  1  0.50000000  0.00000000  0.36150000  1.0 -1.0072055175
O  O98  1  0.00000000  0.50000000  0.13850000  1.0 -1.0072055175
O  O99  1  0.50000000  0.00000000  0.86150000  1.0 -1.0072055175
O  O100  1  0.00000000  0.50000000  0.63850000  1.0 -1.0072055175
O  O101  1  0.37040000  0.95450000  0.36170000  1.0 -0.5583782881
O  O102  1  0.62960000  0.04550000  0.36170000  1.0 -0.5583782881
O  O103  1  0.87040000  0.54550000  0.13830000  1.0 -0.5583782881
O  O104  1  0.12960000  0.45450000  0.13830000  1.0 -0.5583782881
O  O105  1  0.45450000  0.87040000  0.86170000  1.0 -0.5583782881
O  O106  1  0.54550000  0.12960000  0.86170000  1.0 -0.5583782881
O  O107  1  0.04550000  0.37040000  0.63830000  1.0 -0.5583782881
O  O108  1  0.95450000  0.62960000  0.63830000  1.0 -0.5583782881
O  O109  1  0.39580000  0.08960000  0.37420000  1.0 -0.551759915
O  O110  1  0.60420000  0.91040000  0.37420000  1.0 -0.551759915
O  O111  1  0.89580000  0.41040000  0.12580000  1.0 -0.551759915
O  O112  1  0.10420000  0.58960000  0.12580000  1.0 -0.551759915
O  O113  1  0.58960000  0.89580000  0.87420000  1.0 -0.551759915
O  O114  1  0.41040000  0.10420000  0.87420000  1.0 -0.551759915
O  O115  1  0.91040000  0.39580000  0.62580000  1.0 -0.551759915
O  O116  1  0.08960000  0.60420000  0.62580000  1.0 -0.551759915
O  O117  1  0.34010000  0.04240000  0.27350000  1.0 -0.4024648774
O  O118  1  0.65990000  0.95760000  0.27350000  1.0 -0.4024648774
O  O119  1  0.84010000  0.45760000  0.22650000  1.0 -0.4024648774
O  O120  1  0.15990000  0.54240000  0.22650000  1.0 -0.4024648774
O  O121  1  0.54240000  0.84010000  0.77350000  1.0 -0.4024648774
O  O122  1  0.45760000  0.15990000  0.77350000  1.0 -0.4024648774
O  O123  1  0.95760000  0.34010000  0.72650000  1.0 -0.4024648774
O  O124  1  0.04240000  0.65990000  0.72650000  1.0 -0.4024648774
O  O125  1  0.53630000  0.91210000  0.45300000  1.0 -0.5908454485
O  O126  1  0.46370000  0.08790000  0.45300000  1.0 -0.5908454485
O  O127  1  0.03630000  0.58790000  0.04700000  1.0 -0.5908454485
O  O128  1  0.96370000  0.41210000  0.04700000  1.0 -0.5908454485
O  O129  1  0.41210000  0.03630000  0.95300000  1.0 -0.5908454485
O  O130  1  0.58790000  0.96370000  0.95300000  1.0 -0.5908454485
O  O131  1  0.08790000  0.53630000  0.54700000  1.0 -0.5908454485
O  O132  1  0.91210000  0.46370000  0.54700000  1.0 -0.5908454485
O  O133  1  0.41370000  0.95880000  0.45400000  1.0 -0.5908454485
O  O134  1  0.58630000  0.04120000  0.45400000  1.0 -0.5908454485
O  O135  1  0.91370000  0.54120000  0.04600000  1.0 -0.5908454485
O  O136  1  0.08630000  0.45880000  0.04600000  1.0 -0.5908454485
O  O137  1  0.45880000  0.91370000  0.95400000  1.0 -0.5908454485
O  O138  1  0.54120000  0.08630000  0.95400000  1.0 -0.5908454485
O  O139  1  0.04120000  0.41370000  0.54600000  1.0 -0.5908454485
O  O140  1  0.95880000  0.58630000  0.54600000  1.0 -0.5908454485
O  O141  1  0.50000000  0.00000000  0.53640000  1.0 -0.5273141875
O  O142  1  0.00000000  0.50000000  0.96360000  1.0 -0.5273141875
O  O143  1  0.50000000  0.00000000  0.03640000  1.0 -0.5273141875
O  O144  1  0.00000000  0.50000000  0.46360000  1.0 -0.5273141875
O  O145  1  0.73730000  0.09550000  0.08350000  1.0 0.3532485314
O  O146  1  0.26270000  0.90450000  0.08350000  1.0 0.3532485314
O  O147  1  0.23730000  0.40450000  0.41650000  1.0 0.3532485314
O  O148  1  0.76270000  0.59550000  0.41650000  1.0 0.3532485314
O  O149  1  0.59550000  0.23730000  0.58350000  1.0 0.3532485314
O  O150  1  0.40450000  0.76270000  0.58350000  1.0 0.3532485314
O  O151  1  0.90450000  0.73730000  0.91650000  1.0 0.3532485314
O  O152  1  0.09550000  0.26270000  0.91650000  1.0 0.3532485314
O  O153  1  0.78730000  0.91150000  0.47020000  1.0 -0.4201599672
O  O154  1  0.21270000  0.08850000  0.47020000  1.0 -0.4201599672
O  O155  1  0.71270000  0.41150000  0.02980000  1.0 -0.4201599672
O  O156  1  0.28730000  0.58850000  0.02980000  1.0 -0.4201599672
O  O157  1  0.41150000  0.28730000  0.97020000  1.0 -0.4201599672
O  O158  1  0.58850000  0.71270000  0.97020000  1.0 -0.4201599672
O  O159  1  0.91150000  0.21270000  0.52980000  1.0 -0.4201599672
O  O160  1  0.08850000  0.78730000  0.52980000  1.0 -0.4201599672
