# DDEC6 charges by PACMAN v1.1 (https://github.com/mtap-research/PACMAN-charge/)
data_OYEWIA_FSR_pacman
_symmetry_space_group_name_H-M   'P 1'
_cell_length_a   16.27960000
_cell_length_b   16.75540000
_cell_length_c   33.21170000
_cell_angle_alpha   90.00000000
_cell_angle_beta   90.00000000
_cell_angle_gamma   90.00000000
_symmetry_Int_Tables_number   1
_chemical_formula_structural   Al4H36C46N2O23
_chemical_formula_sum   'Al16 H144 C184 N8 O92'
_cell_volume   9059.19558984
_cell_formula_units_Z   4
loop_
 _symmetry_equiv_pos_site_id
 _symmetry_equiv_pos_as_xyz
  1  'x, y, z'
loop_
 _atom_site_type_symbol
 _atom_site_label
 _atom_site_symmetry_multiplicity
 _atom_site_fract_x
 _atom_site_fract_y
 _atom_site_fract_z
 _atom_site_occupancy
 _atom_site_charge
Al  Al1  1  0.35705000  0.61657000  0.09137000  1.0 1.577075843
Al  Al2  1  0.64295000  0.38343000  0.09137000  1.0 1.577075843
Al  Al3  1  0.85705000  0.88343000  0.40863000  1.0 1.577075843
Al  Al4  1  0.14295000  0.11657000  0.40863000  1.0 1.577075843
Al  Al5  1  0.64295000  0.38343000  0.90863000  1.0 1.577075843
Al  Al6  1  0.35705000  0.61657000  0.90863000  1.0 1.577075843
Al  Al7  1  0.14295000  0.11657000  0.59137000  1.0 1.577075843
Al  Al8  1  0.85705000  0.88343000  0.59137000  1.0 1.577075843
Al  Al9  1  0.35382000  0.70892000  0.00000000  1.0 1.5002497474
Al  Al10  1  0.64618000  0.29108000  0.00000000  1.0 1.5002497474
Al  Al11  1  0.85382000  0.79108000  0.50000000  1.0 1.5002497474
Al  Al12  1  0.14618000  0.20892000  0.50000000  1.0 1.5002497474
Al  Al13  1  0.00000000  0.00000000  0.36977000  1.0 1.6090459863
Al  Al14  1  0.50000000  0.50000000  0.13023000  1.0 1.6090459863
Al  Al15  1  0.00000000  0.00000000  0.63023000  1.0 1.6090459863
Al  Al16  1  0.50000000  0.50000000  0.86977000  1.0 1.6090459863
H  H1  1  0.43810000  0.62170000  0.03460000  1.0 0.3868807892
H  H2  1  0.56190000  0.37830000  0.03460000  1.0 0.3868807892
H  H3  1  0.93810000  0.87830000  0.46540000  1.0 0.3868807892
H  H4  1  0.06190000  0.12170000  0.46540000  1.0 0.3868807892
H  H5  1  0.56190000  0.37830000  0.96540000  1.0 0.3868807892
H  H6  1  0.43810000  0.62170000  0.96540000  1.0 0.3868807892
H  H7  1  0.06190000  0.12170000  0.53460000  1.0 0.3868807892
H  H8  1  0.93810000  0.87830000  0.53460000  1.0 0.3868807892
H  H9  1  0.27280000  0.45950000  0.09520000  1.0 0.1221550718
H  H10  1  0.72720000  0.54050000  0.09520000  1.0 0.1221550718
H  H11  1  0.77280000  0.04050000  0.40480000  1.0 0.1221550718
H  H12  1  0.22720000  0.95950000  0.40480000  1.0 0.1221550718
H  H13  1  0.72720000  0.54050000  0.90480000  1.0 0.1221550718
H  H14  1  0.27280000  0.45950000  0.90480000  1.0 0.1221550718
H  H15  1  0.22720000  0.95950000  0.59520000  1.0 0.1221550718
H  H16  1  0.77280000  0.04050000  0.59520000  1.0 0.1221550718
H  H17  1  0.25120000  0.61210000  0.01540000  1.0 0.2403217668
H  H18  1  0.74880000  0.38790000  0.01540000  1.0 0.2403217668
H  H19  1  0.75120000  0.88790000  0.48460000  1.0 0.2403217668
H  H20  1  0.24880000  0.11210000  0.48460000  1.0 0.2403217668
H  H21  1  0.74880000  0.38790000  0.98460000  1.0 0.2403217668
H  H22  1  0.25120000  0.61210000  0.98460000  1.0 0.2403217668
H  H23  1  0.24880000  0.11210000  0.51540000  1.0 0.2403217668
H  H24  1  0.75120000  0.88790000  0.51540000  1.0 0.2403217668
H  H25  1  0.53260000  0.74820000  0.04010000  1.0 0.1380406807
H  H26  1  0.46740000  0.25180000  0.04010000  1.0 0.1380406807
H  H27  1  0.03260000  0.75180000  0.45990000  1.0 0.1380406807
H  H28  1  0.96740000  0.24820000  0.45990000  1.0 0.1380406807
H  H29  1  0.46740000  0.25180000  0.95990000  1.0 0.1380406807
H  H30  1  0.53260000  0.74820000  0.95990000  1.0 0.1380406807
H  H31  1  0.96740000  0.24820000  0.54010000  1.0 0.1380406807
H  H32  1  0.03260000  0.75180000  0.54010000  1.0 0.1380406807
H  H33  1  0.28840000  0.79270000  0.15450000  1.0 0.1221550718
H  H34  1  0.71160000  0.20730000  0.15450000  1.0 0.1221550718
H  H35  1  0.78840000  0.70730000  0.34550000  1.0 0.1221550718
H  H36  1  0.21160000  0.29270000  0.34550000  1.0 0.1221550718
H  H37  1  0.71160000  0.20730000  0.84550000  1.0 0.1221550718
H  H38  1  0.28840000  0.79270000  0.84550000  1.0 0.1221550718
H  H39  1  0.21160000  0.29270000  0.65450000  1.0 0.1221550718
H  H40  1  0.78840000  0.70730000  0.65450000  1.0 0.1221550718
H  H41  1  0.29400000  0.92850000  0.05490000  1.0 0.1221550718
H  H42  1  0.70600000  0.07150000  0.05490000  1.0 0.1221550718
H  H43  1  0.79400000  0.57150000  0.44510000  1.0 0.1221550718
H  H44  1  0.20600000  0.42850000  0.44510000  1.0 0.1221550718
H  H45  1  0.70600000  0.07150000  0.94510000  1.0 0.1221550718
H  H46  1  0.29400000  0.92850000  0.94510000  1.0 0.1221550718
H  H47  1  0.20600000  0.42850000  0.55490000  1.0 0.1221550718
H  H48  1  0.79400000  0.57150000  0.55490000  1.0 0.1221550718
H  H49  1  0.29460000  0.90550000  0.19340000  1.0 0.1221550718
H  H50  1  0.70540000  0.09450000  0.19340000  1.0 0.1221550718
H  H51  1  0.79460000  0.59450000  0.30660000  1.0 0.1221550718
H  H52  1  0.20540000  0.40550000  0.30660000  1.0 0.1221550718
H  H53  1  0.70540000  0.09450000  0.80660000  1.0 0.1221550718
H  H54  1  0.29460000  0.90550000  0.80660000  1.0 0.1221550718
H  H55  1  0.20540000  0.40550000  0.69340000  1.0 0.1221550718
H  H56  1  0.79460000  0.59450000  0.69340000  1.0 0.1221550718
H  H57  1  0.29480000  0.04140000  0.09430000  1.0 0.1266710164
H  H58  1  0.70520000  0.95860000  0.09430000  1.0 0.1266710164
H  H59  1  0.79480000  0.45860000  0.40570000  1.0 0.1266710164
H  H60  1  0.20520000  0.54140000  0.40570000  1.0 0.1266710164
H  H61  1  0.70520000  0.95860000  0.90570000  1.0 0.1266710164
H  H62  1  0.29480000  0.04140000  0.90570000  1.0 0.1266710164
H  H63  1  0.20520000  0.54140000  0.59430000  1.0 0.1266710164
H  H64  1  0.79480000  0.45860000  0.59430000  1.0 0.1266710164
H  H65  1  0.35170000  0.11580000  0.23930000  1.0 0.1221550718
H  H66  1  0.64830000  0.88420000  0.23930000  1.0 0.1221550718
H  H67  1  0.85170000  0.38420000  0.26070000  1.0 0.1221550718
H  H68  1  0.14830000  0.61580000  0.26070000  1.0 0.1221550718
H  H69  1  0.64830000  0.88420000  0.76070000  1.0 0.1221550718
H  H70  1  0.35170000  0.11580000  0.76070000  1.0 0.1221550718
H  H71  1  0.14830000  0.61580000  0.73930000  1.0 0.1221550718
H  H72  1  0.85170000  0.38420000  0.73930000  1.0 0.1221550718
H  H73  1  0.15410000  0.00110000  0.19430000  1.0 0.1221550718
H  H74  1  0.84590000  0.99890000  0.19430000  1.0 0.1221550718
H  H75  1  0.65410000  0.49890000  0.30570000  1.0 0.1221550718
H  H76  1  0.34590000  0.50110000  0.30570000  1.0 0.1221550718
H  H77  1  0.84590000  0.99890000  0.80570000  1.0 0.1221550718
H  H78  1  0.15410000  0.00110000  0.80570000  1.0 0.1221550718
H  H79  1  0.34590000  0.50110000  0.69430000  1.0 0.1221550718
H  H80  1  0.65410000  0.49890000  0.69430000  1.0 0.1221550718
H  H81  1  0.25810000  0.20380000  0.17400000  1.0 0.1266710164
H  H82  1  0.74190000  0.79620000  0.17400000  1.0 0.1266710164
H  H83  1  0.75810000  0.29620000  0.32600000  1.0 0.1266710164
H  H84  1  0.24190000  0.70380000  0.32600000  1.0 0.1266710164
H  H85  1  0.74190000  0.79620000  0.82600000  1.0 0.1266710164
H  H86  1  0.25810000  0.20380000  0.82600000  1.0 0.1266710164
H  H87  1  0.24190000  0.70380000  0.67400000  1.0 0.1266710164
H  H88  1  0.75810000  0.29620000  0.67400000  1.0 0.1266710164
H  H89  1  0.44560000  0.06370000  0.13940000  1.0 0.1221550718
H  H90  1  0.55440000  0.93630000  0.13940000  1.0 0.1221550718
H  H91  1  0.94560000  0.43630000  0.36060000  1.0 0.1221550718
H  H92  1  0.05440000  0.56370000  0.36060000  1.0 0.1221550718
H  H93  1  0.55440000  0.93630000  0.86060000  1.0 0.1221550718
H  H94  1  0.44560000  0.06370000  0.86060000  1.0 0.1221550718
H  H95  1  0.05440000  0.56370000  0.63940000  1.0 0.1221550718
H  H96  1  0.94560000  0.43630000  0.63940000  1.0 0.1221550718
H  H97  1  0.29070000  0.11710000  0.30200000  1.0 0.1221550718
H  H98  1  0.70930000  0.88290000  0.30200000  1.0 0.1221550718
H  H99  1  0.79070000  0.38290000  0.19800000  1.0 0.1221550718
H  H100  1  0.20930000  0.61710000  0.19800000  1.0 0.1221550718
H  H101  1  0.70930000  0.88290000  0.69800000  1.0 0.1221550718
H  H102  1  0.29070000  0.11710000  0.69800000  1.0 0.1221550718
H  H103  1  0.20930000  0.61710000  0.80200000  1.0 0.1221550718
H  H104  1  0.79070000  0.38290000  0.80200000  1.0 0.1221550718
H  H105  1  0.09500000  0.00030000  0.25820000  1.0 0.1221550718
H  H106  1  0.90500000  0.99970000  0.25820000  1.0 0.1221550718
H  H107  1  0.59500000  0.49970000  0.24180000  1.0 0.1221550718
H  H108  1  0.40500000  0.50030000  0.24180000  1.0 0.1221550718
H  H109  1  0.90500000  0.99970000  0.74180000  1.0 0.1221550718
H  H110  1  0.09500000  0.00030000  0.74180000  1.0 0.1221550718
H  H111  1  0.40500000  0.50030000  0.75820000  1.0 0.1221550718
H  H112  1  0.59500000  0.49970000  0.75820000  1.0 0.1221550718
H  H113  1  0.33490000  0.31470000  0.15790000  1.0 0.1121958794
H  H114  1  0.66510000  0.68530000  0.15790000  1.0 0.1121958794
H  H115  1  0.83490000  0.18530000  0.34210000  1.0 0.1121958794
H  H116  1  0.16510000  0.81470000  0.34210000  1.0 0.1121958794
H  H117  1  0.66510000  0.68530000  0.84210000  1.0 0.1121958794
H  H118  1  0.33490000  0.31470000  0.84210000  1.0 0.1121958794
H  H119  1  0.16510000  0.81470000  0.65790000  1.0 0.1121958794
H  H120  1  0.83490000  0.18530000  0.65790000  1.0 0.1121958794
H  H121  1  0.52120000  0.17410000  0.12230000  1.0 0.1121958794
H  H122  1  0.47880000  0.82590000  0.12230000  1.0 0.1121958794
H  H123  1  0.02120000  0.32590000  0.37770000  1.0 0.1121958794
H  H124  1  0.97880000  0.67410000  0.37770000  1.0 0.1121958794
H  H125  1  0.47880000  0.82590000  0.87770000  1.0 0.1121958794
H  H126  1  0.52120000  0.17410000  0.87770000  1.0 0.1121958794
H  H127  1  0.97880000  0.67410000  0.62230000  1.0 0.1121958794
H  H128  1  0.02120000  0.32590000  0.62230000  1.0 0.1121958794
H  H129  1  0.08490000  0.99350000  0.42620000  1.0 0.3980748395
H  H130  1  0.91510000  0.00650000  0.42620000  1.0 0.3980748395
H  H131  1  0.58490000  0.50650000  0.07380000  1.0 0.3980748395
H  H132  1  0.41510000  0.49350000  0.07380000  1.0 0.3980748395
H  H133  1  0.91510000  0.00650000  0.57380000  1.0 0.3980748395
H  H134  1  0.08490000  0.99350000  0.57380000  1.0 0.3980748395
H  H135  1  0.41510000  0.49350000  0.92620000  1.0 0.3980748395
H  H136  1  0.58490000  0.50650000  0.92620000  1.0 0.3980748395
H  H137  1  0.28980000  0.18530000  0.49240000  1.0 0.2319475787
H  H138  1  0.71020000  0.81470000  0.49240000  1.0 0.2319475787
H  H139  1  0.78980000  0.31470000  0.00760000  1.0 0.2319475787
H  H140  1  0.21020000  0.68530000  0.00760000  1.0 0.2319475787
H  H141  1  0.71020000  0.81470000  0.50760000  1.0 0.2319475787
H  H142  1  0.28980000  0.18530000  0.50760000  1.0 0.2319475787
H  H143  1  0.21020000  0.68530000  0.99240000  1.0 0.2319475787
H  H144  1  0.78980000  0.31470000  0.99240000  1.0 0.2319475787
C  C1  1  0.29790000  0.77573000  0.07544000  1.0 0.6022264699
C  C2  1  0.70210000  0.22427000  0.07544000  1.0 0.6022264699
C  C3  1  0.79790000  0.72427000  0.42456000  1.0 0.6022264699
C  C4  1  0.20210000  0.27573000  0.42456000  1.0 0.6022264699
C  C5  1  0.70210000  0.22427000  0.92456000  1.0 0.6022264699
C  C6  1  0.29790000  0.77573000  0.92456000  1.0 0.6022264699
C  C7  1  0.20210000  0.27573000  0.57544000  1.0 0.6022264699
C  C8  1  0.79790000  0.72427000  0.57544000  1.0 0.6022264699
C  C9  1  0.24060000  0.48900000  0.07746000  1.0 0.4744831959
C  C10  1  0.75940000  0.51100000  0.07746000  1.0 0.4756658968
C  C11  1  0.74060000  0.01100000  0.42254000  1.0 0.4756658968
C  C12  1  0.25940000  0.98900000  0.42254000  1.0 0.4756658968
C  C13  1  0.75940000  0.51100000  0.92254000  1.0 0.4756658968
C  C14  1  0.24060000  0.48900000  0.92254000  1.0 0.4756658968
C  C15  1  0.25940000  0.98900000  0.57746000  1.0 0.4756658968
C  C16  1  0.74060000  0.01100000  0.57746000  1.0 0.4756658968
C  C17  1  0.29320000  0.84790000  0.10028000  1.0 -0.0789740322
C  C18  1  0.70680000  0.15210000  0.10028000  1.0 -0.0789740322
C  C19  1  0.79320000  0.65210000  0.39972000  1.0 -0.0789740322
C  C20  1  0.20680000  0.34790000  0.39972000  1.0 -0.0789740322
C  C21  1  0.70680000  0.15210000  0.89972000  1.0 -0.0789740322
C  C22  1  0.29320000  0.84790000  0.89972000  1.0 -0.0789740322
C  C23  1  0.20680000  0.34790000  0.60028000  1.0 -0.0789740322
C  C24  1  0.79320000  0.65210000  0.60028000  1.0 -0.0789740322
C  C25  1  0.52180000  0.77610000  0.01650000  1.0 0.2403217668
C  C26  1  0.47820000  0.22390000  0.01650000  1.0 0.2403217668
C  C27  1  0.02180000  0.72390000  0.48350000  1.0 0.2403217668
C  C28  1  0.97820000  0.27610000  0.48350000  1.0 0.2403217668
C  C29  1  0.47820000  0.22390000  0.98350000  1.0 0.2403217668
C  C30  1  0.52180000  0.77610000  0.98350000  1.0 0.2403217668
C  C31  1  0.97820000  0.27610000  0.51650000  1.0 0.2403217668
C  C32  1  0.02180000  0.72390000  0.51650000  1.0 0.2403217668
C  C33  1  0.29130000  0.84248000  0.14222000  1.0 -0.0789740322
C  C34  1  0.70870000  0.15752000  0.14222000  1.0 -0.0789740322
C  C35  1  0.79130000  0.65752000  0.35778000  1.0 -0.0789740322
C  C36  1  0.20870000  0.34248000  0.35778000  1.0 -0.0789740322
C  C37  1  0.70870000  0.15752000  0.85778000  1.0 -0.0789740322
C  C38  1  0.29130000  0.84248000  0.85778000  1.0 -0.0789740322
C  C39  1  0.20870000  0.34248000  0.64222000  1.0 -0.0789740322
C  C40  1  0.79130000  0.65752000  0.64222000  1.0 -0.0789740322
C  C41  1  0.29400000  0.92364000  0.08284000  1.0 -0.0789740322
C  C42  1  0.70600000  0.07636000  0.08284000  1.0 -0.0789740322
C  C43  1  0.79400000  0.57636000  0.41716000  1.0 -0.0789740322
C  C44  1  0.20600000  0.42364000  0.41716000  1.0 -0.0789740322
C  C45  1  0.70600000  0.07636000  0.91716000  1.0 -0.0789740322
C  C46  1  0.29400000  0.92364000  0.91716000  1.0 -0.0789740322
C  C47  1  0.20600000  0.42364000  0.58284000  1.0 -0.0789740322
C  C48  1  0.79400000  0.57636000  0.58284000  1.0 -0.0789740322
C  C49  1  0.29390000  0.91030000  0.16552000  1.0 -0.1898277395
C  C50  1  0.70610000  0.08970000  0.16552000  1.0 -0.1898277395
C  C51  1  0.79390000  0.58970000  0.33448000  1.0 -0.1898277395
C  C52  1  0.20610000  0.41030000  0.33448000  1.0 -0.1898277395
C  C53  1  0.70610000  0.08970000  0.83448000  1.0 -0.1898277395
C  C54  1  0.29390000  0.91030000  0.83448000  1.0 -0.1898277395
C  C55  1  0.20610000  0.41030000  0.66552000  1.0 -0.1898277395
C  C56  1  0.79390000  0.58970000  0.66552000  1.0 -0.1898277395
C  C57  1  0.29480000  0.99130000  0.10642000  1.0 -0.1898277395
C  C58  1  0.70520000  0.00870000  0.10642000  1.0 -0.1898277395
C  C59  1  0.79480000  0.50870000  0.39358000  1.0 -0.1898277395
C  C60  1  0.20520000  0.49130000  0.39358000  1.0 -0.1898277395
C  C61  1  0.70520000  0.00870000  0.89358000  1.0 -0.1898277395
C  C62  1  0.29480000  0.99130000  0.89358000  1.0 -0.1898277395
C  C63  1  0.20520000  0.49130000  0.60642000  1.0 -0.1898277395
C  C64  1  0.79480000  0.50870000  0.60642000  1.0 -0.1898277395
C  C65  1  0.29550000  0.98550000  0.14830000  1.0 0.1770465115
C  C66  1  0.70450000  0.01450000  0.14830000  1.0 0.1770465115
C  C67  1  0.79550000  0.51450000  0.35170000  1.0 0.1770465115
C  C68  1  0.20450000  0.48550000  0.35170000  1.0 0.1770465115
C  C69  1  0.70450000  0.01450000  0.85170000  1.0 0.1770465115
C  C70  1  0.29550000  0.98550000  0.85170000  1.0 0.1770465115
C  C71  1  0.20450000  0.48550000  0.64830000  1.0 0.1770465115
C  C72  1  0.79550000  0.51450000  0.64830000  1.0 0.1770465115
C  C73  1  0.26000000  0.05604000  0.21052000  1.0 0.1695038073
C  C74  1  0.74000000  0.94396000  0.21052000  1.0 0.1695038073
C  C75  1  0.76000000  0.44396000  0.28948000  1.0 0.1695038073
C  C76  1  0.24000000  0.55604000  0.28948000  1.0 0.1695038073
C  C77  1  0.74000000  0.94396000  0.78948000  1.0 0.1695038073
C  C78  1  0.26000000  0.05604000  0.78948000  1.0 0.1695038073
C  C79  1  0.24000000  0.55604000  0.71052000  1.0 0.1695038073
C  C80  1  0.76000000  0.44396000  0.71052000  1.0 0.1695038073
C  C81  1  0.34460000  0.12170000  0.15903000  1.0 0.1695038073
C  C82  1  0.65540000  0.87830000  0.15903000  1.0 0.1695038073
C  C83  1  0.84460000  0.37830000  0.34097000  1.0 0.1695038073
C  C84  1  0.15540000  0.62170000  0.34097000  1.0 0.1695038073
C  C85  1  0.65540000  0.87830000  0.84097000  1.0 0.1695038073
C  C86  1  0.34460000  0.12170000  0.84097000  1.0 0.1695038073
C  C87  1  0.15540000  0.62170000  0.65903000  1.0 0.1695038073
C  C88  1  0.84460000  0.37830000  0.65903000  1.0 0.1695038073
C  C89  1  0.30040000  0.09250000  0.24298000  1.0 -0.200505303
C  C90  1  0.69960000  0.90750000  0.24298000  1.0 -0.200505303
C  C91  1  0.80040000  0.40750000  0.25702000  1.0 -0.200505303
C  C92  1  0.19960000  0.59250000  0.25702000  1.0 -0.200505303
C  C93  1  0.69960000  0.90750000  0.75702000  1.0 -0.200505303
C  C94  1  0.30040000  0.09250000  0.75702000  1.0 -0.200505303
C  C95  1  0.19960000  0.59250000  0.74298000  1.0 -0.200505303
C  C96  1  0.80040000  0.40750000  0.74298000  1.0 -0.200505303
C  C97  1  0.18200000  0.02330000  0.21596000  1.0 -0.200505303
C  C98  1  0.81800000  0.97670000  0.21596000  1.0 -0.200505303
C  C99  1  0.68200000  0.47670000  0.28404000  1.0 -0.200505303
C  C100  1  0.31800000  0.52330000  0.28404000  1.0 -0.200505303
C  C101  1  0.81800000  0.97670000  0.78404000  1.0 -0.200505303
C  C102  1  0.18200000  0.02330000  0.78404000  1.0 -0.200505303
C  C103  1  0.31800000  0.52330000  0.71596000  1.0 -0.200505303
C  C104  1  0.68200000  0.47670000  0.71596000  1.0 -0.200505303
C  C105  1  0.31110000  0.19780000  0.16389000  1.0 -0.1898277395
C  C106  1  0.68890000  0.80220000  0.16389000  1.0 -0.1898277395
C  C107  1  0.81110000  0.30220000  0.33611000  1.0 -0.1898277395
C  C108  1  0.18890000  0.69780000  0.33611000  1.0 -0.1898277395
C  C109  1  0.68890000  0.80220000  0.83611000  1.0 -0.1898277395
C  C110  1  0.31110000  0.19780000  0.83611000  1.0 -0.1898277395
C  C111  1  0.18890000  0.69780000  0.66389000  1.0 -0.1898277395
C  C112  1  0.81110000  0.30220000  0.66389000  1.0 -0.1898277395
C  C113  1  0.42330000  0.11420000  0.14307000  1.0 -0.1898277395
C  C114  1  0.57670000  0.88580000  0.14307000  1.0 -0.1898277395
C  C115  1  0.92330000  0.38580000  0.35693000  1.0 -0.1898277395
C  C116  1  0.07670000  0.61420000  0.35693000  1.0 -0.1898277395
C  C117  1  0.57670000  0.88580000  0.85693000  1.0 -0.1898277395
C  C118  1  0.42330000  0.11420000  0.85693000  1.0 -0.1898277395
C  C119  1  0.07670000  0.61420000  0.64307000  1.0 -0.1898277395
C  C120  1  0.92330000  0.38580000  0.64307000  1.0 -0.1898277395
C  C121  1  0.26360000  0.09370000  0.28040000  1.0 -0.0878323476
C  C122  1  0.73640000  0.90630000  0.28040000  1.0 -0.0878323476
C  C123  1  0.76360000  0.40630000  0.21960000  1.0 -0.0878323476
C  C124  1  0.23640000  0.59370000  0.21960000  1.0 -0.0878323476
C  C125  1  0.73640000  0.90630000  0.71960000  1.0 -0.0878323476
C  C126  1  0.26360000  0.09370000  0.71960000  1.0 -0.0878323476
C  C127  1  0.23640000  0.59370000  0.78040000  1.0 -0.0878323476
C  C128  1  0.76360000  0.40630000  0.78040000  1.0 -0.0878323476
C  C129  1  0.14590000  0.02410000  0.25424000  1.0 -0.0878323476
C  C130  1  0.85410000  0.97590000  0.25424000  1.0 -0.0878323476
C  C131  1  0.64590000  0.47590000  0.24576000  1.0 -0.0878323476
C  C132  1  0.35410000  0.52410000  0.24576000  1.0 -0.0878323476
C  C133  1  0.85410000  0.97590000  0.74576000  1.0 -0.0878323476
C  C134  1  0.14590000  0.02410000  0.74576000  1.0 -0.0878323476
C  C135  1  0.35410000  0.52410000  0.75424000  1.0 -0.0878323476
C  C136  1  0.64590000  0.47590000  0.75424000  1.0 -0.0878323476
C  C137  1  0.35680000  0.26410000  0.15371000  1.0 -0.0878323476
C  C138  1  0.64320000  0.73590000  0.15371000  1.0 -0.0878323476
C  C139  1  0.85680000  0.23590000  0.34629000  1.0 -0.0878323476
C  C140  1  0.14320000  0.76410000  0.34629000  1.0 -0.0878323476
C  C141  1  0.64320000  0.73590000  0.84629000  1.0 -0.0878323476
C  C142  1  0.35680000  0.26410000  0.84629000  1.0 -0.0878323476
C  C143  1  0.14320000  0.76410000  0.65371000  1.0 -0.0878323476
C  C144  1  0.85680000  0.23590000  0.65371000  1.0 -0.0878323476
C  C145  1  0.46850000  0.18030000  0.13258000  1.0 -0.0970557367
C  C146  1  0.53150000  0.81970000  0.13258000  1.0 -0.0970557367
C  C147  1  0.96850000  0.31970000  0.36742000  1.0 -0.0970557367
C  C148  1  0.03150000  0.68030000  0.36742000  1.0 -0.0970557367
C  C149  1  0.53150000  0.81970000  0.86742000  1.0 -0.0970557367
C  C150  1  0.46850000  0.18030000  0.86742000  1.0 -0.0970557367
C  C151  1  0.03150000  0.68030000  0.63258000  1.0 -0.0970557367
C  C152  1  0.96850000  0.31970000  0.63258000  1.0 -0.0970557367
C  C153  1  0.18610000  0.06010000  0.28602000  1.0 -0.0603905597
C  C154  1  0.81390000  0.93990000  0.28602000  1.0 -0.0603905597
C  C155  1  0.68610000  0.43990000  0.21398000  1.0 -0.0603905597
C  C156  1  0.31390000  0.56010000  0.21398000  1.0 -0.0603905597
C  C157  1  0.81390000  0.93990000  0.71398000  1.0 -0.0603905597
C  C158  1  0.18610000  0.06010000  0.71398000  1.0 -0.0603905597
C  C159  1  0.31390000  0.56010000  0.78602000  1.0 -0.0603905597
C  C160  1  0.68610000  0.43990000  0.78602000  1.0 -0.0603905597
C  C161  1  0.43560000  0.25669000  0.13720000  1.0 -0.0603905597
C  C162  1  0.56440000  0.74331000  0.13720000  1.0 -0.0603905597
C  C163  1  0.93560000  0.24331000  0.36280000  1.0 -0.0603905597
C  C164  1  0.06440000  0.75669000  0.36280000  1.0 -0.0603905597
C  C165  1  0.56440000  0.74331000  0.86280000  1.0 -0.0603905597
C  C166  1  0.43560000  0.25669000  0.86280000  1.0 -0.0603905597
C  C167  1  0.06440000  0.75669000  0.63720000  1.0 -0.0603905597
C  C168  1  0.93560000  0.24331000  0.63720000  1.0 -0.0603905597
C  C169  1  0.14440000  0.06148000  0.32642000  1.0 0.6155349651
C  C170  1  0.85560000  0.93852000  0.32642000  1.0 0.6155349651
C  C171  1  0.64440000  0.43852000  0.17358000  1.0 0.6155349651
C  C172  1  0.35560000  0.56148000  0.17358000  1.0 0.6155349651
C  C173  1  0.85560000  0.93852000  0.67358000  1.0 0.6155349651
C  C174  1  0.14440000  0.06148000  0.67358000  1.0 0.6155349651
C  C175  1  0.35560000  0.56148000  0.82642000  1.0 0.6155349651
C  C176  1  0.64440000  0.43852000  0.82642000  1.0 0.6155349651
C  C177  1  0.48572000  0.32890000  0.12742000  1.0 0.6138477961
C  C178  1  0.51428000  0.67110000  0.12742000  1.0 0.6138477961
C  C179  1  0.98572000  0.17110000  0.37258000  1.0 0.6138477961
C  C180  1  0.01428000  0.82890000  0.37258000  1.0 0.6138477961
C  C181  1  0.51428000  0.67110000  0.87258000  1.0 0.6138477961
C  C182  1  0.48572000  0.32890000  0.87258000  1.0 0.6138477961
C  C183  1  0.01428000  0.82890000  0.62742000  1.0 0.6138477961
C  C184  1  0.98572000  0.17110000  0.62742000  1.0 0.6138477961
N  N1  1  0.29770000  0.05430000  0.17181000  1.0 -0.1798454391
N  N2  1  0.70230000  0.94570000  0.17181000  1.0 -0.1798454391
N  N3  1  0.79770000  0.44570000  0.32819000  1.0 -0.1798454391
N  N4  1  0.20230000  0.55430000  0.32819000  1.0 -0.1798454391
N  N5  1  0.70230000  0.94570000  0.82819000  1.0 -0.1798454391
N  N6  1  0.29770000  0.05430000  0.82819000  1.0 -0.1798454391
N  N7  1  0.20230000  0.55430000  0.67181000  1.0 -0.1798454391
N  N8  1  0.79770000  0.44570000  0.67181000  1.0 -0.1798454391
O  O1  1  0.39311000  0.64412000  0.04026000  1.0 -0.945976693
O  O2  1  0.60689000  0.35588000  0.04026000  1.0 -0.945976693
O  O3  1  0.89311000  0.85588000  0.45974000  1.0 -0.945976693
O  O4  1  0.10689000  0.14412000  0.45974000  1.0 -0.945976693
O  O5  1  0.60689000  0.35588000  0.95974000  1.0 -0.945976693
O  O6  1  0.39311000  0.64412000  0.95974000  1.0 -0.945976693
O  O7  1  0.10689000  0.14412000  0.54026000  1.0 -0.945976693
O  O8  1  0.89311000  0.85588000  0.54026000  1.0 -0.945976693
O  O9  1  0.28927000  0.70900000  0.09323000  1.0 -0.594057566
O  O10  1  0.71073000  0.29100000  0.09323000  1.0 -0.594057566
O  O11  1  0.78927000  0.79100000  0.40677000  1.0 -0.594057566
O  O12  1  0.21073000  0.20900000  0.40677000  1.0 -0.594057566
O  O13  1  0.71073000  0.29100000  0.90677000  1.0 -0.594057566
O  O14  1  0.28927000  0.70900000  0.90677000  1.0 -0.594057566
O  O15  1  0.21073000  0.20900000  0.59323000  1.0 -0.594057566
O  O16  1  0.78927000  0.79100000  0.59323000  1.0 -0.594057566
O  O17  1  0.26420000  0.56040000  0.07015000  1.0 -0.5593234261
O  O18  1  0.73580000  0.43960000  0.07015000  1.0 -0.5593234261
O  O19  1  0.76420000  0.93960000  0.42985000  1.0 -0.5593234261
O  O20  1  0.23580000  0.06040000  0.42985000  1.0 -0.5593234261
O  O21  1  0.73580000  0.43960000  0.92985000  1.0 -0.5593234261
O  O22  1  0.26420000  0.56040000  0.92985000  1.0 -0.5593234261
O  O23  1  0.23580000  0.06040000  0.57015000  1.0 -0.5593234261
O  O24  1  0.76420000  0.93960000  0.57015000  1.0 -0.5593234261
O  O25  1  0.31729000  0.59462000  0.14495000  1.0 -0.6096369697
O  O26  1  0.68271000  0.40538000  0.14495000  1.0 -0.6096369697
O  O27  1  0.81729000  0.90538000  0.35505000  1.0 -0.6096369697
O  O28  1  0.18271000  0.09462000  0.35505000  1.0 -0.6096369697
O  O29  1  0.68271000  0.40538000  0.85505000  1.0 -0.6096369697
O  O30  1  0.31729000  0.59462000  0.85505000  1.0 -0.6096369697
O  O31  1  0.18271000  0.09462000  0.64495000  1.0 -0.6096369697
O  O32  1  0.81729000  0.90538000  0.64495000  1.0 -0.6096369697
O  O33  1  0.44171000  0.68295000  0.11441000  1.0 -0.6156950256
O  O34  1  0.55829000  0.31705000  0.11441000  1.0 -0.6156950256
O  O35  1  0.94171000  0.81705000  0.38559000  1.0 -0.6156950256
O  O36  1  0.05829000  0.18295000  0.38559000  1.0 -0.6156950256
O  O37  1  0.55829000  0.31705000  0.88559000  1.0 -0.6156950256
O  O38  1  0.44171000  0.68295000  0.88559000  1.0 -0.6156950256
O  O39  1  0.05829000  0.18295000  0.61441000  1.0 -0.6156950256
O  O40  1  0.94171000  0.81705000  0.61441000  1.0 -0.6156950256
O  O41  1  0.42205000  0.52722000  0.09238000  1.0 -0.9945941528
O  O42  1  0.57795000  0.47278000  0.09238000  1.0 -0.9945941528
O  O43  1  0.92205000  0.97278000  0.40762000  1.0 -0.9945941528
O  O44  1  0.07795000  0.02722000  0.40762000  1.0 -0.9945941528
O  O45  1  0.57795000  0.47278000  0.90762000  1.0 -0.9945941528
O  O46  1  0.42205000  0.52722000  0.90762000  1.0 -0.9945941528
O  O47  1  0.07795000  0.02722000  0.59238000  1.0 -0.9945941528
O  O48  1  0.92205000  0.97278000  0.59238000  1.0 -0.9945941528
O  O49  1  0.31177000  0.78340000  0.03838000  1.0 -0.6096369697
O  O50  1  0.68823000  0.21660000  0.03838000  1.0 -0.6096369697
O  O51  1  0.81177000  0.71660000  0.46162000  1.0 -0.6096369697
O  O52  1  0.18823000  0.28340000  0.46162000  1.0 -0.6096369697
O  O53  1  0.68823000  0.21660000  0.96162000  1.0 -0.6096369697
O  O54  1  0.31177000  0.78340000  0.96162000  1.0 -0.6096369697
O  O55  1  0.18823000  0.28340000  0.53838000  1.0 -0.6096369697
O  O56  1  0.81177000  0.71660000  0.53838000  1.0 -0.6096369697
O  O57  1  0.45450000  0.77250000  0.00000000  1.0 -0.3371116182
O  O58  1  0.54550000  0.22750000  0.00000000  1.0 -0.3371116182
O  O59  1  0.95450000  0.72750000  0.50000000  1.0 -0.3371116182
O  O60  1  0.04550000  0.27250000  0.50000000  1.0 -0.3371116182
O  O61  1  0.24910000  0.65350000  0.00000000  1.0 -0.5359262487
O  O62  1  0.75090000  0.34650000  0.00000000  1.0 -0.5359262487
O  O63  1  0.74910000  0.84650000  0.50000000  1.0 -0.5359262487
O  O64  1  0.25090000  0.15350000  0.50000000  1.0 -0.5348149797
O  O65  1  0.18150000  0.45620000  0.06386000  1.0 -0.397107031
O  O66  1  0.81850000  0.54380000  0.06386000  1.0 -0.3929321428
O  O67  1  0.68150000  0.04380000  0.43614000  1.0 -0.397107031
O  O68  1  0.31850000  0.95620000  0.43614000  1.0 -0.397107031
O  O69  1  0.81850000  0.54380000  0.93614000  1.0 -0.3929321428
O  O70  1  0.18150000  0.45620000  0.93614000  1.0 -0.397107031
O  O71  1  0.31850000  0.95620000  0.56386000  1.0 -0.397107031
O  O72  1  0.68150000  0.04380000  0.56386000  1.0 -0.397107031
O  O73  1  0.57560000  0.81930000  0.00000000  1.0 -0.319439437
O  O74  1  0.42440000  0.18070000  0.00000000  1.0 -0.319439437
O  O75  1  0.07560000  0.68070000  0.50000000  1.0 -0.319439437
O  O76  1  0.92440000  0.31930000  0.50000000  1.0 -0.319439437
O  O77  1  0.07363000  0.02969000  0.32790000  1.0 -0.594057566
O  O78  1  0.92637000  0.97031000  0.32790000  1.0 -0.594057566
O  O79  1  0.57363000  0.47031000  0.17210000  1.0 -0.594057566
O  O80  1  0.42637000  0.52969000  0.17210000  1.0 -0.594057566
O  O81  1  0.92637000  0.97031000  0.67210000  1.0 -0.594057566
O  O82  1  0.07363000  0.02969000  0.67210000  1.0 -0.594057566
O  O83  1  0.42637000  0.52969000  0.82790000  1.0 -0.594057566
O  O84  1  0.57363000  0.47031000  0.82790000  1.0 -0.594057566
O  O85  1  0.45224000  0.39540000  0.13323000  1.0 -0.594057566
O  O86  1  0.54776000  0.60460000  0.13323000  1.0 -0.594057566
O  O87  1  0.95224000  0.10460000  0.36677000  1.0 -0.594057566
O  O88  1  0.04776000  0.89540000  0.36677000  1.0 -0.594057566
O  O89  1  0.54776000  0.60460000  0.86677000  1.0 -0.594057566
O  O90  1  0.45224000  0.39540000  0.86677000  1.0 -0.594057566
O  O91  1  0.04776000  0.89540000  0.63323000  1.0 -0.594057566
O  O92  1  0.95224000  0.10460000  0.63323000  1.0 -0.594057566
