# DDEC6 charges by PACMAN v1.1 (https://github.com/mtap-research/PACMAN-charge/)
data_OYEWEW_ASR_pacman
_symmetry_space_group_name_H-M   'P 1'
_cell_length_a   15.78640000
_cell_length_b   30.32490000
_cell_length_c   40.45550000
_cell_angle_alpha   90.00000000
_cell_angle_beta   90.00000000
_cell_angle_gamma   90.00000000
_symmetry_Int_Tables_number   1
_chemical_formula_structural   Al6H47C84(N2O13)2
_chemical_formula_sum   'Al24 H188 C336 N16 O104'
_cell_volume   19366.89747052
_cell_formula_units_Z   4
loop_
 _symmetry_equiv_pos_site_id
 _symmetry_equiv_pos_as_xyz
  1  'x, y, z'
loop_
 _atom_site_type_symbol
 _atom_site_label
 _atom_site_symmetry_multiplicity
 _atom_site_fract_x
 _atom_site_fract_y
 _atom_site_fract_z
 _atom_site_occupancy
 _atom_site_charge
Al  Al1  1  0.54022000  0.44962000  0.58550000  1.0 1.6300034683
Al  Al2  1  0.45978000  0.55038000  0.08550000  1.0 1.6300034683
Al  Al3  1  0.45978000  0.94962000  0.58550000  1.0 1.6300034683
Al  Al4  1  0.54022000  0.05038000  0.08550000  1.0 1.6300034683
Al  Al5  1  0.46924000  0.47754000  0.65596000  1.0 1.6300034683
Al  Al6  1  0.53076000  0.52246000  0.15596000  1.0 1.6300034683
Al  Al7  1  0.53076000  0.97754000  0.65596000  1.0 1.6300034683
Al  Al8  1  0.46924000  0.02246000  0.15596000  1.0 1.6300034683
Al  Al9  1  0.61432000  0.53361000  0.62151000  1.0 1.6300034683
Al  Al10  1  0.38568000  0.46639000  0.12151000  1.0 1.6300034683
Al  Al11  1  0.38568000  0.03361000  0.62151000  1.0 1.6300034683
Al  Al12  1  0.61432000  0.96639000  0.12151000  1.0 1.6300034683
Al  Al13  1  0.89095000  0.28628000  0.38001000  1.0 1.6300034683
Al  Al14  1  0.10905000  0.71372000  0.88001000  1.0 1.6300034683
Al  Al15  1  0.10905000  0.78628000  0.38001000  1.0 1.6300034683
Al  Al16  1  0.89095000  0.21372000  0.88001000  1.0 1.6300034683
Al  Al17  1  0.03070000  0.22900000  0.34332000  1.0 1.6175656061
Al  Al18  1  0.96930000  0.77100000  0.84332000  1.0 1.6175656061
Al  Al19  1  0.96930000  0.72900000  0.34332000  1.0 1.6175656061
Al  Al20  1  0.03070000  0.27100000  0.84332000  1.0 1.6175656061
Al  Al21  1  0.96789000  0.20218000  0.41528000  1.0 1.6300034683
Al  Al22  1  0.03211000  0.79782000  0.91528000  1.0 1.6300034683
Al  Al23  1  0.03211000  0.70218000  0.41528000  1.0 1.6300034683
Al  Al24  1  0.96789000  0.29782000  0.91528000  1.0 1.6300034683
H  H1  1  0.56650000  0.51580000  0.49050000  1.0 0.1213285232
H  H2  1  0.43350000  0.48420000  0.99050000  1.0 0.1213285232
H  H3  1  0.43350000  0.01580000  0.49050000  1.0 0.1213285232
H  H4  1  0.56650000  0.98420000  0.99050000  1.0 0.1213285232
H  H5  1  0.55500000  0.56080000  0.44440000  1.0 0.129316738
H  H6  1  0.44500000  0.43920000  0.94440000  1.0 0.129316738
H  H7  1  0.44500000  0.06080000  0.44440000  1.0 0.129316738
H  H8  1  0.55500000  0.93920000  0.94440000  1.0 0.129316738
H  H9  1  0.49690000  0.66200000  0.50300000  1.0 0.129316738
H  H10  1  0.50310000  0.33800000  0.00300000  1.0 0.129316738
H  H11  1  0.50310000  0.16200000  0.50300000  1.0 0.129316738
H  H12  1  0.49690000  0.83800000  0.00300000  1.0 0.129316738
H  H13  1  0.52470000  0.61990000  0.54840000  1.0 0.1213285232
H  H14  1  0.47530000  0.38010000  0.04840000  1.0 0.129316738
H  H15  1  0.47530000  0.11990000  0.54840000  1.0 0.1213285232
H  H16  1  0.52470000  0.88010000  0.04840000  1.0 0.1213285232
H  H17  1  0.70730000  0.69440000  0.36290000  1.0 0.1213285232
H  H18  1  0.29270000  0.30560000  0.86290000  1.0 0.1213285232
H  H19  1  0.29270000  0.19440000  0.36290000  1.0 0.1213285232
H  H20  1  0.70730000  0.80560000  0.86290000  1.0 0.1213285232
H  H21  1  0.57810000  0.67100000  0.38080000  1.0 0.1213285232
H  H22  1  0.42190000  0.32900000  0.88080000  1.0 0.1213285232
H  H23  1  0.42190000  0.17100000  0.38080000  1.0 0.1213285232
H  H24  1  0.57810000  0.82900000  0.88080000  1.0 0.1213285232
H  H25  1  0.67140000  0.65570000  0.47200000  1.0 0.1213285232
H  H26  1  0.32860000  0.34430000  0.97200000  1.0 0.1213285232
H  H27  1  0.32860000  0.15570000  0.47200000  1.0 0.1213285232
H  H28  1  0.67140000  0.84430000  0.97200000  1.0 0.1213285232
H  H29  1  0.80270000  0.67470000  0.45290000  1.0 0.1213285232
H  H30  1  0.19730000  0.32530000  0.95290000  1.0 0.1213285232
H  H31  1  0.19730000  0.17470000  0.45290000  1.0 0.1213285232
H  H32  1  0.80270000  0.82530000  0.95290000  1.0 0.1213285232
H  H33  1  0.36610000  0.75290000  0.40240000  1.0 0.1213285232
H  H34  1  0.63390000  0.24710000  0.90240000  1.0 0.1213285232
H  H35  1  0.63390000  0.25290000  0.40240000  1.0 0.1213285232
H  H36  1  0.36610000  0.74710000  0.90240000  1.0 0.1213285232
H  H37  1  0.49440000  0.72600000  0.41580000  1.0 0.1213285232
H  H38  1  0.50560000  0.27400000  0.91580000  1.0 0.1213285232
H  H39  1  0.50560000  0.22600000  0.41580000  1.0 0.1213285232
H  H40  1  0.49440000  0.77400000  0.91580000  1.0 0.1213285232
H  H41  1  0.38080000  0.61210000  0.44540000  1.0 0.1213285232
H  H42  1  0.61920000  0.38790000  0.94540000  1.0 0.1213285232
H  H43  1  0.61920000  0.11210000  0.44540000  1.0 0.1213285232
H  H44  1  0.38080000  0.88790000  0.94540000  1.0 0.1213285232
H  H45  1  0.25310000  0.64740000  0.44030000  1.0 0.1213285232
H  H46  1  0.74690000  0.35260000  0.94030000  1.0 0.1213285232
H  H47  1  0.74690000  0.14740000  0.44030000  1.0 0.1213285232
H  H48  1  0.25310000  0.85260000  0.94030000  1.0 0.1213285232
H  H49  1  0.98810000  0.40500000  0.35700000  1.0 0.1213285232
H  H50  1  0.01190000  0.59500000  0.85700000  1.0 0.1213285232
H  H51  1  0.01190000  0.90500000  0.35700000  1.0 0.1213285232
H  H52  1  0.98810000  0.09500000  0.85700000  1.0 0.1213285232
H  H53  1  0.04580000  0.47150000  0.33830000  1.0 0.1149530898
H  H54  1  0.95420000  0.52850000  0.83830000  1.0 0.1213285232
H  H55  1  0.95420000  0.97150000  0.33830000  1.0 0.1149530898
H  H56  1  0.04580000  0.02850000  0.83830000  1.0 0.1149530898
H  H57  1  0.18830000  0.34060000  0.31910000  1.0 0.1353049319
H  H58  1  0.81170000  0.65940000  0.81910000  1.0 0.129316738
H  H59  1  0.81170000  0.84060000  0.31910000  1.0 0.129316738
H  H60  1  0.18830000  0.15940000  0.81910000  1.0 0.1353049319
H  H61  1  0.06140000  0.61670000  0.29860000  1.0 0.1213285232
H  H62  1  0.93860000  0.38330000  0.79860000  1.0 0.1213285232
H  H63  1  0.93860000  0.11670000  0.29860000  1.0 0.1213285232
H  H64  1  0.06140000  0.88330000  0.79860000  1.0 0.1213285232
H  H65  1  0.11470000  0.55030000  0.27750000  1.0 0.1213285232
H  H66  1  0.88530000  0.44970000  0.77750000  1.0 0.1213285232
H  H67  1  0.88530000  0.05030000  0.27750000  1.0 0.1213285232
H  H68  1  0.11470000  0.94970000  0.77750000  1.0 0.1213285232
H  H69  1  0.18450000  0.51400000  0.36780000  1.0 0.1213285232
H  H70  1  0.81550000  0.48600000  0.86780000  1.0 0.1213285232
H  H71  1  0.81550000  0.01400000  0.36780000  1.0 0.1213285232
H  H72  1  0.18450000  0.98600000  0.86780000  1.0 0.1213285232
H  H73  1  0.13040000  0.58070000  0.38950000  1.0 0.1213285232
H  H74  1  0.86960000  0.41930000  0.88950000  1.0 0.1213285232
H  H75  1  0.86960000  0.08070000  0.38950000  1.0 0.1213285232
H  H76  1  0.13040000  0.91930000  0.88950000  1.0 0.1213285232
H  H77  1  0.40710000  0.52850000  0.24770000  1.0 0.1213285232
H  H78  1  0.59290000  0.47150000  0.74770000  1.0 0.1213285232
H  H79  1  0.59290000  0.02850000  0.24770000  1.0 0.1213285232
H  H80  1  0.40710000  0.97150000  0.74770000  1.0 0.1213285232
H  H81  1  0.31900000  0.53090000  0.29450000  1.0 0.1213285232
H  H82  1  0.68100000  0.46910000  0.79450000  1.0 0.1213285232
H  H83  1  0.68100000  0.03090000  0.29450000  1.0 0.1213285232
H  H84  1  0.31900000  0.96910000  0.79450000  1.0 0.1213285232
H  H85  1  0.15880000  0.44770000  0.25100000  1.0 0.1213285232
H  H86  1  0.84120000  0.55230000  0.75100000  1.0 0.1213285232
H  H87  1  0.84120000  0.94770000  0.25100000  1.0 0.1213285232
H  H88  1  0.15880000  0.05230000  0.75100000  1.0 0.1213285232
H  H89  1  0.23320000  0.45310000  0.20320000  1.0 0.1213285232
H  H90  1  0.76680000  0.54690000  0.70320000  1.0 0.1213285232
H  H91  1  0.76680000  0.95310000  0.20320000  1.0 0.1213285232
H  H92  1  0.23320000  0.04690000  0.70320000  1.0 0.1213285232
H  H93  1  0.31210000  0.42530000  0.54170000  1.0 0.1213285232
H  H94  1  0.68790000  0.57470000  0.04170000  1.0 0.1213285232
H  H95  1  0.68790000  0.92530000  0.54170000  1.0 0.1213285232
H  H96  1  0.31210000  0.07470000  0.04170000  1.0 0.1213285232
H  H97  1  0.18210000  0.39940000  0.52380000  1.0 0.1213285232
H  H98  1  0.81790000  0.60060000  0.02380000  1.0 0.1213285232
H  H99  1  0.81790000  0.89940000  0.52380000  1.0 0.1213285232
H  H100  1  0.18210000  0.10060000  0.02380000  1.0 0.1213285232
H  H101  1  0.08560000  0.42170000  0.61480000  1.0 0.1213285232
H  H102  1  0.91440000  0.57830000  0.11480000  1.0 0.1213285232
H  H103  1  0.91440000  0.92170000  0.61480000  1.0 0.1213285232
H  H104  1  0.08560000  0.07830000  0.11480000  1.0 0.1213285232
H  H105  1  0.21760000  0.44580000  0.63190000  1.0 0.1149530898
H  H106  1  0.78240000  0.55420000  0.13190000  1.0 0.1149530898
H  H107  1  0.78240000  0.94580000  0.63190000  1.0 0.1149530898
H  H108  1  0.21760000  0.05420000  0.13190000  1.0 0.1149530898
H  H109  1  0.93570000  0.36910000  0.45460000  1.0 0.1213285232
H  H110  1  0.06430000  0.63090000  0.95460000  1.0 0.1213285232
H  H111  1  0.06430000  0.86910000  0.45460000  1.0 0.1213285232
H  H112  1  0.93570000  0.13090000  0.95460000  1.0 0.1213285232
H  H113  1  0.96060000  0.41710000  0.50130000  1.0 0.1213285232
H  H114  1  0.03940000  0.58290000  0.00130000  1.0 0.1213285232
H  H115  1  0.03940000  0.91710000  0.50130000  1.0 0.1213285232
H  H116  1  0.96060000  0.08290000  0.00130000  1.0 0.129316738
H  H117  1  0.09680000  0.31840000  0.54260000  1.0 0.129316738
H  H118  1  0.90320000  0.68160000  0.04260000  1.0 0.129316738
H  H119  1  0.90320000  0.81840000  0.54260000  1.0 0.129316738
H  H120  1  0.09680000  0.18160000  0.04260000  1.0 0.129316738
H  H121  1  0.06460000  0.27260000  0.49740000  1.0 0.1213285232
H  H122  1  0.93540000  0.72740000  0.99740000  1.0 0.1213285232
H  H123  1  0.93540000  0.77260000  0.49740000  1.0 0.1213285232
H  H124  1  0.06460000  0.22740000  0.99740000  1.0 0.1213285232
H  H125  1  0.87000000  0.50540000  0.59280000  1.0 0.1213285232
H  H126  1  0.13000000  0.49460000  0.09280000  1.0 0.1213285232
H  H127  1  0.13000000  0.00540000  0.59280000  1.0 0.1213285232
H  H128  1  0.87000000  0.99460000  0.09280000  1.0 0.1213285232
H  H129  1  0.00330000  0.47500000  0.57890000  1.0 0.1213285232
H  H130  1  0.99670000  0.52500000  0.07890000  1.0 0.1213285232
H  H131  1  0.99670000  0.97500000  0.57890000  1.0 0.1213285232
H  H132  1  0.00330000  0.02500000  0.07890000  1.0 0.1213285232
H  H133  1  0.89840000  0.35910000  0.56250000  1.0 0.1213285232
H  H134  1  0.10160000  0.64090000  0.06250000  1.0 0.1213285232
H  H135  1  0.10160000  0.85910000  0.56250000  1.0 0.1213285232
H  H136  1  0.89840000  0.14090000  0.06250000  1.0 0.1213285232
H  H137  1  0.76710000  0.38550000  0.57890000  1.0 0.1213285232
H  H138  1  0.23290000  0.61450000  0.07890000  1.0 0.1213285232
H  H139  1  0.23290000  0.88550000  0.57890000  1.0 0.1213285232
H  H140  1  0.76710000  0.11450000  0.07890000  1.0 0.1213285232
H  H141  1  0.61220000  0.32490000  0.61170000  1.0 0.1213285232
H  H142  1  0.38780000  0.67510000  0.11170000  1.0 0.1213285232
H  H143  1  0.38780000  0.82490000  0.61170000  1.0 0.1213285232
H  H144  1  0.61220000  0.17510000  0.11170000  1.0 0.1213285232
H  H145  1  0.66840000  0.26000000  0.63300000  1.0 0.129316738
H  H146  1  0.33160000  0.74000000  0.13300000  1.0 0.129316738
H  H147  1  0.33160000  0.76000000  0.63300000  1.0 0.129316738
H  H148  1  0.66840000  0.24000000  0.13300000  1.0 0.129316738
H  H149  1  0.61210000  0.29960000  0.72520000  1.0 0.1213285232
H  H150  1  0.38790000  0.70040000  0.22520000  1.0 0.1213285232
H  H151  1  0.38790000  0.79960000  0.72520000  1.0 0.1213285232
H  H152  1  0.61210000  0.20040000  0.22520000  1.0 0.1213285232
H  H153  1  0.55270000  0.36450000  0.70390000  1.0 0.1213285232
H  H154  1  0.44730000  0.63550000  0.20390000  1.0 0.1213285232
H  H155  1  0.44730000  0.86450000  0.70390000  1.0 0.1213285232
H  H156  1  0.55270000  0.13550000  0.20390000  1.0 0.1213285232
H  H157  1  0.47850000  0.15280000  0.64920000  1.0 0.1213285232
H  H158  1  0.52150000  0.84720000  0.14920000  1.0 0.1213285232
H  H159  1  0.52150000  0.65280000  0.64920000  1.0 0.1213285232
H  H160  1  0.47850000  0.34720000  0.14920000  1.0 0.1213285232
H  H161  1  0.52970000  0.21690000  0.66620000  1.0 0.1213285232
H  H162  1  0.47030000  0.78310000  0.16620000  1.0 0.1213285232
H  H163  1  0.47030000  0.71690000  0.66620000  1.0 0.1213285232
H  H164  1  0.52970000  0.28310000  0.16620000  1.0 0.1213285232
H  H165  1  0.74460000  0.15470000  0.69480000  1.0 0.1213285232
H  H166  1  0.25540000  0.84530000  0.19480000  1.0 0.1213285232
H  H167  1  0.25540000  0.65470000  0.69480000  1.0 0.1213285232
H  H168  1  0.74460000  0.34530000  0.19480000  1.0 0.1213285232
H  H169  1  0.68870000  0.08920000  0.67790000  1.0 0.1213285232
H  H170  1  0.31130000  0.91080000  0.17790000  1.0 0.1213285232
H  H171  1  0.31130000  0.58920000  0.67790000  1.0 0.1213285232
H  H172  1  0.68870000  0.41080000  0.17790000  1.0 0.1213285232
H  H173  1  0.73800000  0.19530000  0.79800000  1.0 0.1213285232
H  H174  1  0.26200000  0.80470000  0.29800000  1.0 0.1213285232
H  H175  1  0.26200000  0.69530000  0.79800000  1.0 0.1213285232
H  H176  1  0.73800000  0.30470000  0.29800000  1.0 0.1213285232
H  H177  1  0.65900000  0.19130000  0.74930000  1.0 0.1213285232
H  H178  1  0.34100000  0.80870000  0.24930000  1.0 0.1213285232
H  H179  1  0.34100000  0.69130000  0.74930000  1.0 0.1213285232
H  H180  1  0.65900000  0.30870000  0.24930000  1.0 0.1213285232
H  H181  1  0.81520000  0.27880000  0.70690000  1.0 0.129316738
H  H182  1  0.18480000  0.72120000  0.20690000  1.0 0.129316738
H  H183  1  0.18480000  0.77880000  0.70690000  1.0 0.129316738
H  H184  1  0.81520000  0.22120000  0.20690000  1.0 0.129316738
H  H185  1  0.89250000  0.28340000  0.75480000  1.0 0.1213285232
H  H186  1  0.10750000  0.71660000  0.25480000  1.0 0.1213285232
H  H187  1  0.10750000  0.78340000  0.75480000  1.0 0.1213285232
H  H188  1  0.89250000  0.21660000  0.25480000  1.0 0.1213285232
C  C1  1  0.55981000  0.53487000  0.55363000  1.0 0.6262489374
C  C2  1  0.44019000  0.46513000  0.05363000  1.0 0.6262489374
C  C3  1  0.44019000  0.03487000  0.55363000  1.0 0.6262489374
C  C4  1  0.55981000  0.96513000  0.05363000  1.0 0.6262489374
C  C5  1  0.54660000  0.56371000  0.52364000  1.0 -0.0697046185
C  C6  1  0.45340000  0.43629000  0.02364000  1.0 -0.0593465128
C  C7  1  0.45340000  0.06371000  0.52364000  1.0 -0.0697046185
C  C8  1  0.54660000  0.93629000  0.02364000  1.0 -0.0593465128
C  C9  1  0.55560000  0.54572000  0.49295000  1.0 -0.0883991931
C  C10  1  0.44440000  0.45428000  0.99295000  1.0 -0.0883991931
C  C11  1  0.44440000  0.04572000  0.49295000  1.0 -0.0883991931
C  C12  1  0.55560000  0.95428000  0.99295000  1.0 -0.0883991931
C  C13  1  0.54820000  0.57286000  0.46534000  1.0 -0.179980205
C  C14  1  0.45180000  0.42714000  0.96534000  1.0 -0.179980205
C  C15  1  0.45180000  0.07286000  0.46534000  1.0 -0.179980205
C  C16  1  0.54820000  0.92714000  0.96534000  1.0 -0.179980205
C  C17  1  0.53136000  0.61621000  0.46829000  1.0 0.129316738
C  C18  1  0.46864000  0.38379000  0.96829000  1.0 0.129316738
C  C19  1  0.46864000  0.11621000  0.46829000  1.0 0.129316738
C  C20  1  0.53136000  0.88379000  0.96829000  1.0 0.1353049319
C  C21  1  0.51590000  0.63315000  0.50047000  1.0 -0.1911312961
C  C22  1  0.48410000  0.36685000  0.00047000  1.0 -0.1911312961
C  C23  1  0.48410000  0.13315000  0.50047000  1.0 -0.1911312961
C  C24  1  0.51590000  0.86685000  0.00047000  1.0 -0.1911312961
C  C25  1  0.52840000  0.60766000  0.52738000  1.0 -0.0796335415
C  C26  1  0.47160000  0.39234000  0.02738000  1.0 -0.0883991931
C  C27  1  0.47160000  0.10766000  0.52738000  1.0 -0.0883991931
C  C28  1  0.52840000  0.89234000  0.02738000  1.0 -0.0883991931
C  C29  1  0.85394000  0.69896000  0.39460000  1.0 0.6190373421
C  C30  1  0.14606000  0.30104000  0.89460000  1.0 0.6190373421
C  C31  1  0.14606000  0.19896000  0.39460000  1.0 0.6190373421
C  C32  1  0.85394000  0.80104000  0.89460000  1.0 0.6190373421
C  C33  1  0.77053000  0.68667000  0.40550000  1.0 -0.1106218624
C  C34  1  0.22947000  0.31333000  0.90550000  1.0 -0.1106218624
C  C35  1  0.22947000  0.18667000  0.40550000  1.0 -0.1106218624
C  C36  1  0.77053000  0.81333000  0.90550000  1.0 -0.1106218624
C  C37  1  0.70103000  0.68558000  0.38482000  1.0 -0.0697046185
C  C38  1  0.29897000  0.31442000  0.88482000  1.0 -0.0697046185
C  C39  1  0.29897000  0.18558000  0.38482000  1.0 -0.0697046185
C  C40  1  0.70103000  0.81442000  0.88482000  1.0 -0.0697046185
C  C41  1  0.62313000  0.67192000  0.39557000  1.0 -0.1999628165
C  C42  1  0.37687000  0.32808000  0.89557000  1.0 -0.1999628165
C  C43  1  0.37687000  0.17192000  0.39557000  1.0 -0.1999628165
C  C44  1  0.62313000  0.82808000  0.89557000  1.0 -0.1999628165
C  C45  1  0.61000000  0.65936000  0.42816000  1.0 0.1796680059
C  C46  1  0.39000000  0.34064000  0.92816000  1.0 0.1796680059
C  C47  1  0.39000000  0.15936000  0.42816000  1.0 0.1796680059
C  C48  1  0.61000000  0.84064000  0.92816000  1.0 0.1796680059
C  C49  1  0.67880000  0.66219000  0.44972000  1.0 -0.2094758262
C  C50  1  0.32120000  0.33781000  0.94972000  1.0 -0.2094758262
C  C51  1  0.32120000  0.16219000  0.44972000  1.0 -0.2094758262
C  C52  1  0.67880000  0.83781000  0.94972000  1.0 -0.2094758262
C  C53  1  0.75719000  0.67448000  0.43830000  1.0 -0.0697046185
C  C54  1  0.24281000  0.32552000  0.93830000  1.0 -0.0697046185
C  C55  1  0.24281000  0.17448000  0.43830000  1.0 -0.0697046185
C  C56  1  0.75719000  0.82552000  0.93830000  1.0 -0.0697046185
C  C57  1  0.21081000  0.72009000  0.41180000  1.0 0.6123239915
C  C58  1  0.78919000  0.27991000  0.91180000  1.0 0.6190373421
C  C59  1  0.78919000  0.22009000  0.41180000  1.0 0.6123239915
C  C60  1  0.21081000  0.77991000  0.91180000  1.0 0.6190373421
C  C61  1  0.29426000  0.70194000  0.41862000  1.0 -0.0883991931
C  C62  1  0.70574000  0.29806000  0.91862000  1.0 -0.0883991931
C  C63  1  0.70574000  0.20194000  0.41862000  1.0 -0.0883991931
C  C64  1  0.29426000  0.79806000  0.91862000  1.0 -0.0950206925
C  C65  1  0.36968000  0.72513000  0.41207000  1.0 -0.0796335415
C  C66  1  0.63032000  0.27487000  0.91207000  1.0 -0.0796335415
C  C67  1  0.63032000  0.22513000  0.41207000  1.0 -0.0796335415
C  C68  1  0.36968000  0.77487000  0.91207000  1.0 -0.0796335415
C  C69  1  0.44625000  0.70890000  0.41919000  1.0 -0.1999628165
C  C70  1  0.55375000  0.29110000  0.91919000  1.0 -0.1999628165
C  C71  1  0.55375000  0.20890000  0.41919000  1.0 -0.1999628165
C  C72  1  0.44625000  0.79110000  0.91919000  1.0 -0.1999628165
C  C73  1  0.45390000  0.66452000  0.43218000  1.0 0.162086827
C  C74  1  0.54610000  0.33548000  0.93218000  1.0 0.162086827
C  C75  1  0.54610000  0.16452000  0.43218000  1.0 0.162086827
C  C76  1  0.45390000  0.83548000  0.93218000  1.0 0.162086827
C  C77  1  0.37870000  0.64123000  0.43816000  1.0 -0.2094758262
C  C78  1  0.62130000  0.35877000  0.93816000  1.0 -0.2094758262
C  C79  1  0.62130000  0.14123000  0.43816000  1.0 -0.2094758262
C  C80  1  0.37870000  0.85877000  0.93816000  1.0 -0.2094758262
C  C81  1  0.30200000  0.66167000  0.43328000  1.0 -0.0796335415
C  C82  1  0.69800000  0.33833000  0.93328000  1.0 -0.0796335415
C  C83  1  0.69800000  0.16167000  0.43328000  1.0 -0.0796335415
C  C84  1  0.30200000  0.83833000  0.93328000  1.0 -0.0796335415
C  C85  1  0.04084000  0.32186000  0.34794000  1.0 0.6123239915
C  C86  1  0.95916000  0.67814000  0.84794000  1.0 0.6123239915
C  C87  1  0.95916000  0.82186000  0.34794000  1.0 0.6123239915
C  C88  1  0.04084000  0.17814000  0.84794000  1.0 0.6123239915
C  C89  1  0.08066000  0.36526000  0.33874000  1.0 -0.0291978337
C  C90  1  0.91934000  0.63474000  0.83874000  1.0 -0.0291978337
C  C91  1  0.91934000  0.86526000  0.33874000  1.0 -0.0291978337
C  C92  1  0.08066000  0.13474000  0.83874000  1.0 -0.0291978337
C  C93  1  0.03890000  0.40507000  0.34545000  1.0 -0.0883991931
C  C94  1  0.96110000  0.59493000  0.84545000  1.0 -0.0883991931
C  C95  1  0.96110000  0.90507000  0.34545000  1.0 -0.0950206925
C  C96  1  0.03890000  0.09493000  0.84545000  1.0 -0.0883991931
C  C97  1  0.07430000  0.44512000  0.33456000  1.0 -0.2094758262
C  C98  1  0.92570000  0.55488000  0.83456000  1.0 -0.2094758262
C  C99  1  0.92570000  0.94512000  0.33456000  1.0 -0.2094758262
C  C100  1  0.07430000  0.05488000  0.83456000  1.0 -0.2094758262
C  C101  1  0.14960000  0.44534000  0.31869000  1.0 0.1506939509
C  C102  1  0.85040000  0.55466000  0.81869000  1.0 0.1506939509
C  C103  1  0.85040000  0.94534000  0.31869000  1.0 0.1506939509
C  C104  1  0.14960000  0.05466000  0.81869000  1.0 0.1506939509
C  C105  1  0.19520000  0.40583000  0.31380000  1.0 -0.1296639309
C  C106  1  0.80480000  0.59417000  0.81380000  1.0 -0.1296639309
C  C107  1  0.80480000  0.90583000  0.31380000  1.0 -0.1296639309
C  C108  1  0.19520000  0.09417000  0.81380000  1.0 -0.1296639309
C  C109  1  0.15950000  0.36675000  0.32316000  1.0 -0.1106218624
C  C110  1  0.84050000  0.63325000  0.82316000  1.0 -0.1106218624
C  C111  1  0.84050000  0.86675000  0.32316000  1.0 -0.1106218624
C  C112  1  0.15950000  0.13325000  0.82316000  1.0 -0.1106218624
C  C113  1  0.04399000  0.64435000  0.36002000  1.0 0.6190373421
C  C114  1  0.95601000  0.35565000  0.86002000  1.0 0.6190373421
C  C115  1  0.95601000  0.14435000  0.36002000  1.0 0.6190373421
C  C116  1  0.04399000  0.85565000  0.86002000  1.0 0.6190373421
C  C117  1  0.08136000  0.60217000  0.34600000  1.0 -0.0593465128
C  C118  1  0.91864000  0.39783000  0.84600000  1.0 -0.0593465128
C  C119  1  0.91864000  0.10217000  0.34600000  1.0 -0.0593465128
C  C120  1  0.08136000  0.89783000  0.84600000  1.0 -0.0593465128
C  C121  1  0.08280000  0.59541000  0.31288000  1.0 -0.0796335415
C  C122  1  0.91720000  0.40459000  0.81288000  1.0 -0.0796335415
C  C123  1  0.91720000  0.09541000  0.31288000  1.0 -0.0796335415
C  C124  1  0.08280000  0.90459000  0.81288000  1.0 -0.0796335415
C  C125  1  0.11690000  0.55597000  0.30005000  1.0 -0.1999628165
C  C126  1  0.88310000  0.44403000  0.80005000  1.0 -0.1999628165
C  C127  1  0.88310000  0.05597000  0.30005000  1.0 -0.1999628165
C  C128  1  0.11690000  0.94403000  0.80005000  1.0 -0.1999628165
C  C129  1  0.15270000  0.52660000  0.32067000  1.0 0.1506939509
C  C130  1  0.84730000  0.47340000  0.82067000  1.0 0.1506939509
C  C131  1  0.84730000  0.02660000  0.32067000  1.0 0.1506939509
C  C132  1  0.15270000  0.97340000  0.82067000  1.0 0.1506939509
C  C133  1  0.15850000  0.53438000  0.35400000  1.0 -0.1999628165
C  C134  1  0.84150000  0.46562000  0.85400000  1.0 -0.1999628165
C  C135  1  0.84150000  0.03438000  0.35400000  1.0 -0.1999628165
C  C136  1  0.15850000  0.96562000  0.85400000  1.0 -0.1999628165
C  C137  1  0.12420000  0.57388000  0.36717000  1.0 -0.0883991931
C  C138  1  0.87580000  0.42612000  0.86717000  1.0 -0.0883991931
C  C139  1  0.87580000  0.07388000  0.36717000  1.0 -0.0883991931
C  C140  1  0.12420000  0.92612000  0.86717000  1.0 -0.0883991931
C  C141  1  0.37663000  0.49258000  0.18878000  1.0 0.6190373421
C  C142  1  0.62337000  0.50742000  0.68878000  1.0 0.6190373421
C  C143  1  0.62337000  0.99258000  0.18878000  1.0 0.6190373421
C  C144  1  0.37663000  0.00742000  0.68878000  1.0 0.6190373421
C  C145  1  0.32740000  0.49191000  0.21972000  1.0 -0.0796335415
C  C146  1  0.67260000  0.50809000  0.71972000  1.0 -0.0796335415
C  C147  1  0.67260000  0.99191000  0.21972000  1.0 -0.0883991931
C  C148  1  0.32740000  0.00809000  0.71972000  1.0 -0.0796335415
C  C149  1  0.35550000  0.51373000  0.24773000  1.0 -0.0796335415
C  C150  1  0.64450000  0.48627000  0.74773000  1.0 -0.0796335415
C  C151  1  0.64450000  0.01373000  0.24773000  1.0 -0.0796335415
C  C152  1  0.35550000  0.98627000  0.74773000  1.0 -0.0796335415
C  C153  1  0.30400000  0.51324000  0.27659000  1.0 -0.1999628165
C  C154  1  0.69600000  0.48676000  0.77659000  1.0 -0.1999628165
C  C155  1  0.69600000  0.01324000  0.27659000  1.0 -0.1999628165
C  C156  1  0.30400000  0.98676000  0.77659000  1.0 -0.1999628165
C  C157  1  0.23380000  0.48779000  0.27866000  1.0 0.1796680059
C  C158  1  0.76620000  0.51221000  0.77866000  1.0 0.1796680059
C  C159  1  0.76620000  0.98779000  0.27866000  1.0 0.1796680059
C  C160  1  0.23380000  0.01221000  0.77866000  1.0 0.1796680059
C  C161  1  0.20750000  0.46488000  0.25027000  1.0 -0.1911312961
C  C162  1  0.79250000  0.53512000  0.75027000  1.0 -0.1911312961
C  C163  1  0.79250000  0.96488000  0.25027000  1.0 -0.1911312961
C  C164  1  0.20750000  0.03512000  0.75027000  1.0 -0.1911312961
C  C165  1  0.25280000  0.46778000  0.22188000  1.0 -0.0796335415
C  C166  1  0.74720000  0.53222000  0.72188000  1.0 -0.0796335415
C  C167  1  0.74720000  0.96778000  0.22188000  1.0 -0.0796335415
C  C168  1  0.25280000  0.03222000  0.72188000  1.0 -0.0796335415
C  C169  1  0.36458000  0.44947000  0.60095000  1.0 0.6190373421
C  C170  1  0.63542000  0.55053000  0.10095000  1.0 0.6190373421
C  C171  1  0.63542000  0.94947000  0.60095000  1.0 0.6190373421
C  C172  1  0.36458000  0.05053000  0.10095000  1.0 0.6190373421
C  C173  1  0.28061000  0.43699000  0.58889000  1.0 -0.1106218624
C  C174  1  0.71939000  0.56301000  0.08889000  1.0 -0.1106218624
C  C175  1  0.71939000  0.93699000  0.58889000  1.0 -0.1106218624
C  C176  1  0.28061000  0.06301000  0.08889000  1.0 -0.1106218624
C  C177  1  0.26715000  0.42426000  0.55651000  1.0 -0.0697046185
C  C178  1  0.73285000  0.57574000  0.05651000  1.0 -0.0697046185
C  C179  1  0.73285000  0.92426000  0.55651000  1.0 -0.0697046185
C  C180  1  0.26715000  0.07574000  0.05651000  1.0 -0.0697046185
C  C181  1  0.18793000  0.40985000  0.54531000  1.0 -0.227260241
C  C182  1  0.81207000  0.59015000  0.04531000  1.0 -0.227260241
C  C183  1  0.81207000  0.90985000  0.54531000  1.0 -0.227260241
C  C184  1  0.18793000  0.09015000  0.04531000  1.0 -0.227260241
C  C185  1  0.11647000  0.41112000  0.56658000  1.0 0.1906753968
C  C186  1  0.88353000  0.58888000  0.06658000  1.0 0.1906753968
C  C187  1  0.88353000  0.91112000  0.56658000  1.0 0.1906753968
C  C188  1  0.11647000  0.08888000  0.06658000  1.0 0.1906753968
C  C189  1  0.13010000  0.42294000  0.59977000  1.0 -0.227260241
C  C190  1  0.86990000  0.57706000  0.09977000  1.0 -0.227260241
C  C191  1  0.86990000  0.92294000  0.59977000  1.0 -0.227260241
C  C192  1  0.13010000  0.07706000  0.09977000  1.0 -0.227260241
C  C193  1  0.21049000  0.43665000  0.61017000  1.0 -0.0697046185
C  C194  1  0.78951000  0.56335000  0.11017000  1.0 -0.0697046185
C  C195  1  0.78951000  0.93665000  0.61017000  1.0 -0.0697046185
C  C196  1  0.21049000  0.06335000  0.11017000  1.0 -0.0697046185
C  C197  1  0.96623000  0.28659000  0.44554000  1.0 0.6262489374
C  C198  1  0.03377000  0.71341000  0.94554000  1.0 0.6262489374
C  C199  1  0.03377000  0.78659000  0.44554000  1.0 0.6262489374
C  C200  1  0.96623000  0.21341000  0.94554000  1.0 0.6262489374
C  C201  1  0.99340000  0.31667000  0.47396000  1.0 -0.0593465128
C  C202  1  0.00660000  0.68333000  0.97396000  1.0 -0.0593465128
C  C203  1  0.00660000  0.81667000  0.47396000  1.0 -0.0593465128
C  C204  1  0.99340000  0.18333000  0.97396000  1.0 -0.0593465128
C  C205  1  0.96520000  0.35896000  0.47294000  1.0 -0.0883991931
C  C206  1  0.03480000  0.64104000  0.97294000  1.0 -0.0883991931
C  C207  1  0.03480000  0.85896000  0.47294000  1.0 -0.0883991931
C  C208  1  0.96520000  0.14104000  0.97294000  1.0 -0.0883991931
C  C209  1  0.98140000  0.38847000  0.50075000  1.0 -0.2094758262
C  C210  1  0.01860000  0.61153000  0.00075000  1.0 -0.2094758262
C  C211  1  0.01860000  0.88847000  0.50075000  1.0 -0.2152240534
C  C212  1  0.98140000  0.11153000  0.00075000  1.0 -0.2094758262
C  C213  1  0.02946000  0.37136000  0.52625000  1.0 0.162086827
C  C214  1  0.97054000  0.62864000  0.02625000  1.0 0.162086827
C  C215  1  0.97054000  0.87136000  0.52625000  1.0 0.162086827
C  C216  1  0.02946000  0.12864000  0.02625000  1.0 0.162086827
C  C217  1  0.06260000  0.32853000  0.52554000  1.0 -0.2094758262
C  C218  1  0.93740000  0.67147000  0.02554000  1.0 -0.2094758262
C  C219  1  0.93740000  0.82853000  0.52554000  1.0 -0.2094758262
C  C220  1  0.06260000  0.17147000  0.02554000  1.0 -0.2094758262
C  C221  1  0.04330000  0.30111000  0.49845000  1.0 -0.0796335415
C  C222  1  0.95670000  0.69889000  0.99845000  1.0 -0.0796335415
C  C223  1  0.95670000  0.80111000  0.49845000  1.0 -0.0796335415
C  C224  1  0.04330000  0.19889000  0.99845000  1.0 -0.0883991931
C  C225  1  0.71691000  0.46709000  0.59135000  1.0 0.6190373421
C  C226  1  0.28309000  0.53291000  0.09135000  1.0 0.6190373421
C  C227  1  0.28309000  0.96709000  0.59135000  1.0 0.6190373421
C  C228  1  0.71691000  0.03291000  0.09135000  1.0 0.6190373421
C  C229  1  0.80524000  0.44880000  0.58495000  1.0 -0.0520056591
C  C230  1  0.19476000  0.55120000  0.08495000  1.0 -0.0520056591
C  C231  1  0.19476000  0.94880000  0.58495000  1.0 -0.0520056591
C  C232  1  0.80524000  0.05120000  0.08495000  1.0 -0.0520056591
C  C233  1  0.87490000  0.47606000  0.58634000  1.0 -0.0883991931
C  C234  1  0.12510000  0.52394000  0.08634000  1.0 -0.0883991931
C  C235  1  0.12510000  0.97606000  0.58634000  1.0 -0.0883991931
C  C236  1  0.87490000  0.02394000  0.08634000  1.0 -0.0883991931
C  C237  1  0.95484000  0.45770000  0.57751000  1.0 -0.1999628165
C  C238  1  0.04516000  0.54230000  0.07751000  1.0 -0.1999628165
C  C239  1  0.04516000  0.95770000  0.57751000  1.0 -0.1999628165
C  C240  1  0.95484000  0.04230000  0.07751000  1.0 -0.1999628165
C  C241  1  0.96130000  0.41565000  0.56711000  1.0 0.1506939509
C  C242  1  0.03870000  0.58435000  0.06711000  1.0 0.1506939509
C  C243  1  0.03870000  0.91565000  0.56711000  1.0 0.1506939509
C  C244  1  0.96130000  0.08435000  0.06711000  1.0 0.1506939509
C  C245  1  0.89236000  0.38862000  0.56817000  1.0 -0.1999628165
C  C246  1  0.10764000  0.61138000  0.06817000  1.0 -0.1999628165
C  C247  1  0.10764000  0.88862000  0.56817000  1.0 -0.1999628165
C  C248  1  0.89236000  0.11138000  0.06817000  1.0 -0.1999628165
C  C249  1  0.81340000  0.40433000  0.57758000  1.0 -0.0883991931
C  C250  1  0.18660000  0.59567000  0.07758000  1.0 -0.0883991931
C  C251  1  0.18660000  0.90433000  0.57758000  1.0 -0.0883991931
C  C252  1  0.81340000  0.09567000  0.07758000  1.0 -0.0883991931
C  C253  1  0.53728000  0.39152000  0.64175000  1.0 0.6190373421
C  C254  1  0.46272000  0.60848000  0.14175000  1.0 0.6190373421
C  C255  1  0.46272000  0.89152000  0.64175000  1.0 0.6190373421
C  C256  1  0.53728000  0.10848000  0.14175000  1.0 0.6190373421
C  C257  1  0.57760000  0.35101000  0.65592000  1.0 -0.0593465128
C  C258  1  0.42240000  0.64899000  0.15592000  1.0 -0.0520056591
C  C259  1  0.42240000  0.85101000  0.65592000  1.0 -0.0593465128
C  C260  1  0.57760000  0.14899000  0.15592000  1.0 -0.0593465128
C  C261  1  0.61220000  0.31987000  0.63436000  1.0 -0.0883991931
C  C262  1  0.38780000  0.68013000  0.13436000  1.0 -0.0883991931
C  C263  1  0.38780000  0.81987000  0.63436000  1.0 -0.0883991931
C  C264  1  0.61220000  0.18013000  0.13436000  1.0 -0.0883991931
C  C265  1  0.64660000  0.28126000  0.64724000  1.0 -0.1999628165
C  C266  1  0.35340000  0.71874000  0.14724000  1.0 -0.1999628165
C  C267  1  0.35340000  0.78126000  0.64724000  1.0 -0.1999628165
C  C268  1  0.64660000  0.21874000  0.14724000  1.0 -0.1999628165
C  C269  1  0.64850000  0.27439000  0.68082000  1.0 0.162086827
C  C270  1  0.35150000  0.72561000  0.18082000  1.0 0.162086827
C  C271  1  0.35150000  0.77439000  0.68082000  1.0 0.162086827
C  C272  1  0.64850000  0.22561000  0.18082000  1.0 0.162086827
C  C273  1  0.61240000  0.30493000  0.70258000  1.0 -0.2094758262
C  C274  1  0.38760000  0.69507000  0.20258000  1.0 -0.2094758262
C  C275  1  0.38760000  0.80493000  0.70258000  1.0 -0.2094758262
C  C276  1  0.61240000  0.19507000  0.20258000  1.0 -0.2094758262
C  C277  1  0.57670000  0.34377000  0.68982000  1.0 -0.0883991931
C  C278  1  0.42330000  0.65623000  0.18982000  1.0 -0.0883991931
C  C279  1  0.42330000  0.84377000  0.68982000  1.0 -0.0883991931
C  C280  1  0.57670000  0.15623000  0.18982000  1.0 -0.0883991931
C  C281  1  0.53686000  0.07193000  0.65202000  1.0 0.6190373421
C  C282  1  0.46314000  0.92807000  0.15202000  1.0 0.6190373421
C  C283  1  0.46314000  0.57193000  0.65202000  1.0 0.6190373421
C  C284  1  0.53686000  0.42807000  0.15202000  1.0 0.6190373421
C  C285  1  0.57699000  0.11346000  0.66178000  1.0 -0.0883991931
C  C286  1  0.42301000  0.88654000  0.16178000  1.0 -0.0883991931
C  C287  1  0.42301000  0.61346000  0.66178000  1.0 -0.0883991931
C  C288  1  0.57699000  0.38654000  0.16178000  1.0 -0.0883991931
C  C289  1  0.53220000  0.15350000  0.65857000  1.0 -0.0697046185
C  C290  1  0.46780000  0.84650000  0.15857000  1.0 -0.0697046185
C  C291  1  0.46780000  0.65350000  0.65857000  1.0 -0.0697046185
C  C292  1  0.53220000  0.34650000  0.15857000  1.0 -0.0697046185
C  C293  1  0.56250000  0.19153000  0.66814000  1.0 -0.1911312961
C  C294  1  0.43750000  0.80847000  0.16814000  1.0 -0.1999628165
C  C295  1  0.43750000  0.69153000  0.66814000  1.0 -0.1999628165
C  C296  1  0.56250000  0.30847000  0.16814000  1.0 -0.1911312961
C  C297  1  0.64720000  0.19411000  0.68182000  1.0 0.1796680059
C  C298  1  0.35280000  0.80589000  0.18182000  1.0 0.1796680059
C  C299  1  0.35280000  0.69411000  0.68182000  1.0 0.1796680059
C  C300  1  0.64720000  0.30589000  0.18182000  1.0 0.1796680059
C  C301  1  0.69090000  0.15435000  0.68539000  1.0 -0.1999628165
C  C302  1  0.30910000  0.84565000  0.18539000  1.0 -0.2094758262
C  C303  1  0.30910000  0.65435000  0.68539000  1.0 -0.2094758262
C  C304  1  0.69090000  0.34565000  0.18539000  1.0 -0.1999628165
C  C305  1  0.65750000  0.11501000  0.67546000  1.0 -0.0796335415
C  C306  1  0.34250000  0.88499000  0.17546000  1.0 -0.0796335415
C  C307  1  0.34250000  0.61501000  0.67546000  1.0 -0.0796335415
C  C308  1  0.65750000  0.38499000  0.17546000  1.0 -0.0796335415
C  C309  1  0.87758000  0.24090000  0.81194000  1.0 0.6123239915
C  C310  1  0.12242000  0.75910000  0.31194000  1.0 0.6123239915
C  C311  1  0.12242000  0.74090000  0.81194000  1.0 0.6123239915
C  C312  1  0.87758000  0.25910000  0.31194000  1.0 0.6123239915
C  C313  1  0.82357000  0.23913000  0.78088000  1.0 -0.0520056591
C  C314  1  0.17643000  0.76087000  0.28088000  1.0 -0.0520056591
C  C315  1  0.17643000  0.73913000  0.78088000  1.0 -0.0520056591
C  C316  1  0.82357000  0.26087000  0.28088000  1.0 -0.0520056591
C  C317  1  0.75350000  0.21191000  0.77970000  1.0 -0.0883991931
C  C318  1  0.24650000  0.78809000  0.27970000  1.0 -0.0883991931
C  C319  1  0.24650000  0.71191000  0.77970000  1.0 -0.0883991931
C  C320  1  0.75350000  0.28809000  0.27970000  1.0 -0.0883991931
C  C321  1  0.70610000  0.20971000  0.75045000  1.0 -0.1999628165
C  C322  1  0.29390000  0.79029000  0.25045000  1.0 -0.1999628165
C  C323  1  0.29390000  0.70971000  0.75045000  1.0 -0.1999628165
C  C324  1  0.70610000  0.29029000  0.25045000  1.0 -0.1999628165
C  C325  1  0.72930000  0.23505000  0.72295000  1.0 0.162086827
C  C326  1  0.27070000  0.76495000  0.22295000  1.0 0.162086827
C  C327  1  0.27070000  0.73505000  0.72295000  1.0 0.162086827
C  C328  1  0.72930000  0.26495000  0.22295000  1.0 0.162086827
C  C329  1  0.79930000  0.26204000  0.72510000  1.0 -0.1911312961
C  C330  1  0.20070000  0.73796000  0.22510000  1.0 -0.1911312961
C  C331  1  0.20070000  0.76204000  0.72510000  1.0 -0.1911312961
C  C332  1  0.79930000  0.23796000  0.22510000  1.0 -0.1911312961
C  C333  1  0.84600000  0.26463000  0.75369000  1.0 -0.0883991931
C  C334  1  0.15400000  0.73537000  0.25369000  1.0 -0.0883991931
C  C335  1  0.15400000  0.76463000  0.75369000  1.0 -0.0883991931
C  C336  1  0.84600000  0.23537000  0.25369000  1.0 -0.0883991931
N  N1  1  0.53269000  0.64375000  0.43903000  1.0 -0.1611145433
N  N2  1  0.46731000  0.35625000  0.93903000  1.0 -0.1611145433
N  N3  1  0.46731000  0.14375000  0.43903000  1.0 -0.1611145433
N  N4  1  0.53269000  0.85625000  0.93903000  1.0 -0.1611145433
N  N5  1  0.18720000  0.48575000  0.30809000  1.0 -0.179980205
N  N6  1  0.81280000  0.51425000  0.80809000  1.0 -0.179980205
N  N7  1  0.81280000  0.98575000  0.30809000  1.0 -0.179980205
N  N8  1  0.18720000  0.01425000  0.80809000  1.0 -0.179980205
N  N9  1  0.03790000  0.39852000  0.55423000  1.0 -0.1611145433
N  N10  1  0.96210000  0.60148000  0.05423000  1.0 -0.1611145433
N  N11  1  0.96210000  0.89852000  0.55423000  1.0 -0.1611145433
N  N12  1  0.03790000  0.10148000  0.05423000  1.0 -0.1611145433
N  N13  1  0.68010000  0.23337000  0.69361000  1.0 -0.1698586007
N  N14  1  0.31990000  0.76663000  0.19361000  1.0 -0.1698586007
N  N15  1  0.31990000  0.73337000  0.69361000  1.0 -0.1698586007
N  N16  1  0.68010000  0.26663000  0.19361000  1.0 -0.1698586007
O  O1  1  0.54938000  0.49465000  0.55216000  1.0 -0.5687492395
O  O2  1  0.45062000  0.50535000  0.05216000  1.0 -0.5687492395
O  O3  1  0.45062000  0.99465000  0.55216000  1.0 -0.5687492395
O  O4  1  0.54938000  0.00535000  0.05216000  1.0 -0.5687492395
O  O5  1  0.57976000  0.55590000  0.57945000  1.0 -0.5999577926
O  O6  1  0.42024000  0.44410000  0.07945000  1.0 -0.5931712468
O  O7  1  0.42024000  0.05590000  0.57945000  1.0 -0.5999577926
O  O8  1  0.57976000  0.94410000  0.07945000  1.0 -0.5999577926
O  O9  1  0.86894000  0.71401000  0.36633000  1.0 -0.5793920954
O  O10  1  0.13106000  0.28599000  0.86633000  1.0 -0.5793920954
O  O11  1  0.13106000  0.21401000  0.36633000  1.0 -0.5793920954
O  O12  1  0.86894000  0.78599000  0.86633000  1.0 -0.5793920954
O  O13  1  0.91568000  0.69272000  0.41489000  1.0 -0.6176584074
O  O14  1  0.08432000  0.30728000  0.91489000  1.0 -0.6176584074
O  O15  1  0.08432000  0.19272000  0.41489000  1.0 -0.6176584074
O  O16  1  0.91568000  0.80728000  0.91489000  1.0 -0.6176584074
O  O17  1  0.20448000  0.75575000  0.39467000  1.0 -0.6176584074
O  O18  1  0.79552000  0.24425000  0.89467000  1.0 -0.6176584074
O  O19  1  0.79552000  0.25575000  0.39467000  1.0 -0.6176584074
O  O20  1  0.20448000  0.74425000  0.89467000  1.0 -0.6176584074
O  O21  1  0.14994000  0.70293000  0.42538000  1.0 -0.5588444034
O  O22  1  0.85006000  0.29707000  0.92538000  1.0 -0.5588444034
O  O23  1  0.85006000  0.20293000  0.42538000  1.0 -0.5588444034
O  O24  1  0.14994000  0.79707000  0.92538000  1.0 -0.5588444034
O  O25  1  0.07132000  0.28809000  0.33969000  1.0 -0.5206215192
O  O26  1  0.92868000  0.71191000  0.83969000  1.0 -0.5206215192
O  O27  1  0.92868000  0.78809000  0.33969000  1.0 -0.5206215192
O  O28  1  0.07132000  0.21191000  0.83969000  1.0 -0.5206215192
O  O29  1  0.97210000  0.32697000  0.36410000  1.0 -0.6176584074
O  O30  1  0.02790000  0.67303000  0.86410000  1.0 -0.6176584074
O  O31  1  0.02790000  0.82697000  0.36410000  1.0 -0.6176584074
O  O32  1  0.97210000  0.17303000  0.86410000  1.0 -0.6176584074
O  O33  1  0.05153000  0.65074000  0.39012000  1.0 -0.5793920954
O  O34  1  0.94847000  0.34926000  0.89012000  1.0 -0.5793920954
O  O35  1  0.94847000  0.15074000  0.39012000  1.0 -0.5793920954
O  O36  1  0.05153000  0.84926000  0.89012000  1.0 -0.5793920954
O  O37  1  0.00211000  0.66758000  0.34060000  1.0 -0.5793920954
O  O38  1  0.99789000  0.33242000  0.84060000  1.0 -0.5793920954
O  O39  1  0.99789000  0.16758000  0.34060000  1.0 -0.5793920954
O  O40  1  0.00211000  0.83242000  0.84060000  1.0 -0.5793920954
O  O41  1  0.33755000  0.47890000  0.16306000  1.0 -0.6099351008
O  O42  1  0.66245000  0.52110000  0.66306000  1.0 -0.6099351008
O  O43  1  0.66245000  0.97890000  0.16306000  1.0 -0.6099351008
O  O44  1  0.33755000  0.02110000  0.66306000  1.0 -0.6099351008
O  O45  1  0.45126000  0.50588000  0.18958000  1.0 -0.5793920954
O  O46  1  0.54874000  0.49412000  0.68958000  1.0 -0.5793920954
O  O47  1  0.54874000  0.00588000  0.18958000  1.0 -0.5793920954
O  O48  1  0.45126000  0.99412000  0.68958000  1.0 -0.5793920954
O  O49  1  0.42457000  0.44974000  0.57964000  1.0 -0.6099351008
O  O50  1  0.57543000  0.55026000  0.07964000  1.0 -0.6099351008
O  O51  1  0.57543000  0.94974000  0.57964000  1.0 -0.6099351008
O  O52  1  0.42457000  0.05026000  0.07964000  1.0 -0.6099351008
O  O53  1  0.37220000  0.45895000  0.63052000  1.0 -0.5687492395
O  O54  1  0.62780000  0.54105000  0.13052000  1.0 -0.5687492395
O  O55  1  0.62780000  0.95895000  0.63052000  1.0 -0.5687492395
O  O56  1  0.37220000  0.04105000  0.13052000  1.0 -0.5687492395
O  O57  1  0.91995000  0.30395000  0.42348000  1.0 -0.5999577926
O  O58  1  0.08005000  0.69605000  0.92348000  1.0 -0.5999577926
O  O59  1  0.08005000  0.80395000  0.42348000  1.0 -0.5999577926
O  O60  1  0.91995000  0.19605000  0.92348000  1.0 -0.5999577926
O  O61  1  0.99173000  0.24784000  0.44614000  1.0 -0.5793920954
O  O62  1  0.00827000  0.75216000  0.94614000  1.0 -0.5687492395
O  O63  1  0.00827000  0.74784000  0.44614000  1.0 -0.5687492395
O  O64  1  0.99173000  0.25216000  0.94614000  1.0 -0.5687492395
O  O65  1  0.65839000  0.44020000  0.58525000  1.0 -0.5999577926
O  O66  1  0.34161000  0.55980000  0.08525000  1.0 -0.5999577926
O  O67  1  0.34161000  0.94020000  0.58525000  1.0 -0.5999577926
O  O68  1  0.65839000  0.05980000  0.08525000  1.0 -0.5999577926
O  O69  1  0.71001000  0.50465000  0.60280000  1.0 -0.5793920954
O  O70  1  0.28999000  0.49535000  0.10280000  1.0 -0.5793920954
O  O71  1  0.28999000  0.00465000  0.60280000  1.0 -0.5793920954
O  O72  1  0.71001000  0.99535000  0.10280000  1.0 -0.5793920954
O  O73  1  0.53613000  0.39707000  0.61205000  1.0 -0.5588444034
O  O74  1  0.46387000  0.60293000  0.11205000  1.0 -0.554354604
O  O75  1  0.46387000  0.89707000  0.61205000  1.0 -0.5588444034
O  O76  1  0.53613000  0.10293000  0.11205000  1.0 -0.554354604
O  O77  1  0.50587000  0.41971000  0.66290000  1.0 -0.6295586113
O  O78  1  0.49413000  0.58029000  0.16290000  1.0 -0.6295586113
O  O79  1  0.49413000  0.91971000  0.66290000  1.0 -0.6295586113
O  O80  1  0.50587000  0.08029000  0.16290000  1.0 -0.6295586113
O  O81  1  0.94400000  0.26031000  0.81097000  1.0 -0.5423745622
O  O82  1  0.05600000  0.73969000  0.31097000  1.0 -0.5423745622
O  O83  1  0.05600000  0.76031000  0.81097000  1.0 -0.5423745622
O  O84  1  0.94400000  0.23969000  0.31097000  1.0 -0.5423745622
O  O85  1  0.84762000  0.22190000  0.83659000  1.0 -0.5793920954
O  O86  1  0.15238000  0.77810000  0.33659000  1.0 -0.5793920954
O  O87  1  0.15238000  0.72190000  0.83659000  1.0 -0.5793920954
O  O88  1  0.84762000  0.27810000  0.33659000  1.0 -0.5793920954
O  O89  1  0.46045000  0.07387000  0.64103000  1.0 -0.6295586113
O  O90  1  0.53955000  0.92613000  0.14103000  1.0 -0.6295586113
O  O91  1  0.53955000  0.57387000  0.64103000  1.0 -0.6295586113
O  O92  1  0.46045000  0.42613000  0.14103000  1.0 -0.6295586113
O  O93  1  0.57640000  0.03605000  0.65644000  1.0 -0.5931712468
O  O94  1  0.42360000  0.96395000  0.15644000  1.0 -0.5931712468
O  O95  1  0.42360000  0.53605000  0.65644000  1.0 -0.5931712468
O  O96  1  0.57640000  0.46395000  0.15644000  1.0 -0.5931712468
O  O97  1  0.54109000  0.48750000  0.62130000  1.0 -1.2499224056
O  O98  1  0.45891000  0.51250000  0.12130000  1.0 -1.2499224056
O  O99  1  0.45891000  0.98750000  0.62130000  1.0 -1.2499224056
O  O100  1  0.54109000  0.01250000  0.12130000  1.0 -1.2499224056
O  O101  1  0.96251000  0.23888000  0.37954000  1.0 -1.2499224056
O  O102  1  0.03749000  0.76112000  0.87954000  1.0 -1.2499224056
O  O103  1  0.03749000  0.73888000  0.37954000  1.0 -1.2499224056
O  O104  1  0.96251000  0.26112000  0.87954000  1.0 -1.2499224056
