# DDEC6 charges by PACMAN v1.1 (https://github.com/mtap-research/PACMAN-charge/)
data_OYIVEY_ASR_pacman
_symmetry_space_group_name_H-M   'P 1'
_cell_length_a   13.46400000
_cell_length_b   19.71700000
_cell_length_c   29.98500000
_cell_angle_alpha   90.00000000
_cell_angle_beta   90.00000000
_cell_angle_gamma   90.00000000
_symmetry_Int_Tables_number   1
_chemical_formula_structural   Cu9H40C80(N2O)20
_chemical_formula_sum   'Cu18 H80 C160 N80 O40'
_cell_volume   7960.10859468
_cell_formula_units_Z   2
loop_
 _symmetry_equiv_pos_site_id
 _symmetry_equiv_pos_as_xyz
  1  'x, y, z'
loop_
 _atom_site_type_symbol
 _atom_site_label
 _atom_site_symmetry_multiplicity
 _atom_site_fract_x
 _atom_site_fract_y
 _atom_site_fract_z
 _atom_site_occupancy
 _atom_site_charge
Cu  Cu1  1  0.50000000  0.52798000  0.50000000  1.0 0.5092210849
Cu  Cu2  1  0.00000000  0.02798000  0.00000000  1.0 0.520634385
Cu  Cu3  1  0.88443000  0.53057000  0.35805000  1.0 0.6512556394
Cu  Cu4  1  0.11557000  0.53057000  0.64195000  1.0 0.6512556394
Cu  Cu5  1  0.61557000  0.03057000  0.85805000  1.0 0.6512556394
Cu  Cu6  1  0.38443000  0.03057000  0.14195000  1.0 0.6512556394
Cu  Cu7  1  0.43115000  0.53164000  0.38082000  1.0 0.7076554765
Cu  Cu8  1  0.56885000  0.53164000  0.61918000  1.0 0.7076554765
Cu  Cu9  1  0.06885000  0.03164000  0.88082000  1.0 0.7076554765
Cu  Cu10  1  0.93115000  0.03164000  0.11918000  1.0 0.7076554765
Cu  Cu11  1  0.65019000  0.53105000  0.30069000  1.0 0.6811187585
Cu  Cu12  1  0.34981000  0.53105000  0.69931000  1.0 0.6811187585
Cu  Cu13  1  0.84981000  0.03105000  0.80069000  1.0 0.6811187585
Cu  Cu14  1  0.15019000  0.03105000  0.19931000  1.0 0.6811187585
Cu  Cu15  1  0.97333000  0.03010000  0.45784000  1.0 0.8713885715
Cu  Cu16  1  0.02667000  0.03010000  0.54216000  1.0 0.8713885715
Cu  Cu17  1  0.52667000  0.53010000  0.95784000  1.0 0.8713885715
Cu  Cu18  1  0.47333000  0.53010000  0.04216000  1.0 0.8713885715
H  H1  1  0.23530000  0.86270000  0.53690000  1.0 0.1289294259
H  H2  1  0.76470000  0.86270000  0.46310000  1.0 0.1289294259
H  H3  1  0.26470000  0.36270000  0.03690000  1.0 0.1289294259
H  H4  1  0.73530000  0.36270000  0.96310000  1.0 0.1289294259
H  H5  1  0.32340000  0.76330000  0.52480000  1.0 0.1289294259
H  H6  1  0.67660000  0.76330000  0.47520000  1.0 0.1289294259
H  H7  1  0.17660000  0.26330000  0.02480000  1.0 0.1289294259
H  H8  1  0.82340000  0.26330000  0.97520000  1.0 0.1289294259
H  H9  1  0.21920000  0.75570000  0.39930000  1.0 0.1225668353
H  H10  1  0.78080000  0.75570000  0.60070000  1.0 0.1225668353
H  H11  1  0.28080000  0.25570000  0.89930000  1.0 0.1225668353
H  H12  1  0.71920000  0.25570000  0.10070000  1.0 0.1225668353
H  H13  1  0.13110000  0.85510000  0.41150000  1.0 0.1289294259
H  H14  1  0.86890000  0.85510000  0.58850000  1.0 0.1289294259
H  H15  1  0.36890000  0.35510000  0.91150000  1.0 0.1289294259
H  H16  1  0.63110000  0.35510000  0.08850000  1.0 0.1289294259
H  H17  1  0.81500000  0.86020000  0.17840000  1.0 0.1225668353
H  H18  1  0.18500000  0.86020000  0.82160000  1.0 0.1225668353
H  H19  1  0.68500000  0.36020000  0.67840000  1.0 0.1225668353
H  H20  1  0.31500000  0.36020000  0.32160000  1.0 0.1225668353
H  H21  1  0.76020000  0.76110000  0.21220000  1.0 0.1123986056
H  H22  1  0.23980000  0.76110000  0.78780000  1.0 0.1225668353
H  H23  1  0.73980000  0.26110000  0.71220000  1.0 0.1225668353
H  H24  1  0.26020000  0.26110000  0.28780000  1.0 0.1225668353
H  H25  1  0.99340000  0.76670000  0.29570000  1.0 0.1225668353
H  H26  1  0.00660000  0.76670000  0.70430000  1.0 0.1225668353
H  H27  1  0.50660000  0.26670000  0.79570000  1.0 0.1225668353
H  H28  1  0.49340000  0.26670000  0.20430000  1.0 0.1225668353
H  H29  1  0.04820000  0.86580000  0.26200000  1.0 0.1225668353
H  H30  1  0.95180000  0.86580000  0.73800000  1.0 0.1225668353
H  H31  1  0.45180000  0.36580000  0.76200000  1.0 0.1225668353
H  H32  1  0.54820000  0.36580000  0.23800000  1.0 0.1225668353
H  H33  1  0.78690000  0.63390000  0.49030000  1.0 0.1123986056
H  H34  1  0.21310000  0.63390000  0.50970000  1.0 0.1123986056
H  H35  1  0.71310000  0.13390000  0.99030000  1.0 0.1123986056
H  H36  1  0.28690000  0.13390000  0.00970000  1.0 0.1123986056
H  H37  1  0.89530000  0.63090000  0.55040000  1.0 0.1225668353
H  H38  1  0.10470000  0.63090000  0.44960000  1.0 0.1225668353
H  H39  1  0.60470000  0.13090000  0.05040000  1.0 0.1225668353
H  H40  1  0.39530000  0.13090000  0.94960000  1.0 0.1225668353
H  H41  1  0.92290000  0.42920000  0.53610000  1.0 0.1225668353
H  H42  1  0.07710000  0.42920000  0.46390000  1.0 0.1225668353
H  H43  1  0.57710000  0.92920000  0.03610000  1.0 0.1225668353
H  H44  1  0.42290000  0.92920000  0.96390000  1.0 0.1225668353
H  H45  1  0.81450000  0.43210000  0.47600000  1.0 0.1289294259
H  H46  1  0.18550000  0.43210000  0.52400000  1.0 0.1289294259
H  H47  1  0.68550000  0.93210000  0.97600000  1.0 0.1289294259
H  H48  1  0.31450000  0.93210000  0.02400000  1.0 0.1289294259
H  H49  1  0.75710000  0.29360000  0.21450000  1.0 0.1289294259
H  H50  1  0.24290000  0.29360000  0.78550000  1.0 0.1289294259
H  H51  1  0.74290000  0.79360000  0.71450000  1.0 0.1289294259
H  H52  1  0.25710000  0.79360000  0.28550000  1.0 0.1289294259
H  H53  1  0.81040000  0.19060000  0.18670000  1.0 0.1289294259
H  H54  1  0.18960000  0.19060000  0.81330000  1.0 0.1289294259
H  H55  1  0.68960000  0.69060000  0.68670000  1.0 0.1289294259
H  H56  1  0.31040000  0.69060000  0.31330000  1.0 0.1289294259
H  H57  1  0.06740000  0.21160000  0.24540000  1.0 0.1355980953
H  H58  1  0.93260000  0.21160000  0.75460000  1.0 0.1355980953
H  H59  1  0.43260000  0.71160000  0.74540000  1.0 0.1355980953
H  H60  1  0.56740000  0.71160000  0.25460000  1.0 0.1355980953
H  H61  1  0.01560000  0.31380000  0.27810000  1.0 0.1225668353
H  H62  1  0.98440000  0.31380000  0.72190000  1.0 0.1225668353
H  H63  1  0.48440000  0.81380000  0.77810000  1.0 0.1225668353
H  H64  1  0.51560000  0.81380000  0.22190000  1.0 0.1225668353
H  H65  1  0.24550000  0.18850000  0.54020000  1.0 0.1289294259
H  H66  1  0.75450000  0.18850000  0.45980000  1.0 0.1289294259
H  H67  1  0.25450000  0.68850000  0.04020000  1.0 0.1289294259
H  H68  1  0.74550000  0.68850000  0.95980000  1.0 0.1225668353
H  H69  1  0.33640000  0.28700000  0.52910000  1.0 0.1289294259
H  H70  1  0.66360000  0.28700000  0.47090000  1.0 0.1289294259
H  H71  1  0.16360000  0.78700000  0.02910000  1.0 0.1289294259
H  H72  1  0.83640000  0.78700000  0.97090000  1.0 0.1289294259
H  H73  1  0.26780000  0.28270000  0.39870000  1.0 0.1225668353
H  H74  1  0.73220000  0.28270000  0.60130000  1.0 0.1225668353
H  H75  1  0.23220000  0.78270000  0.89870000  1.0 0.1225668353
H  H76  1  0.76780000  0.78270000  0.10130000  1.0 0.1225668353
H  H77  1  0.17690000  0.18420000  0.40980000  1.0 0.1289294259
H  H78  1  0.82310000  0.18420000  0.59020000  1.0 0.1289294259
H  H79  1  0.32310000  0.68420000  0.90980000  1.0 0.1289294259
H  H80  1  0.67690000  0.68420000  0.09020000  1.0 0.1289294259
C  C1  1  0.33180000  0.68750000  0.45350000  1.0 0.2580451315
C  C2  1  0.66820000  0.68750000  0.54650000  1.0 0.2580451315
C  C3  1  0.16820000  0.18750000  0.95350000  1.0 0.2580451315
C  C4  1  0.83180000  0.18750000  0.04650000  1.0 0.2580451315
C  C5  1  0.23210000  0.84120000  0.50940000  1.0 -0.0997979647
C  C6  1  0.76790000  0.84120000  0.49060000  1.0 -0.0997979647
C  C7  1  0.26790000  0.34120000  0.00940000  1.0 -0.0997979647
C  C8  1  0.73210000  0.34120000  0.99060000  1.0 -0.0997979647
C  C9  1  0.28480000  0.78170000  0.50210000  1.0 -0.1088465047
C  C10  1  0.71520000  0.78170000  0.49790000  1.0 -0.1088465047
C  C11  1  0.21520000  0.28170000  0.00210000  1.0 -0.1088465047
C  C12  1  0.78480000  0.28170000  0.99790000  1.0 -0.1088465047
C  C13  1  0.28000000  0.74960000  0.46080000  1.0 0.0197326012
C  C14  1  0.72000000  0.74960000  0.53920000  1.0 0.0197326012
C  C15  1  0.22000000  0.24960000  0.96080000  1.0 0.0197326012
C  C16  1  0.78000000  0.24960000  0.03920000  1.0 0.0197326012
C  C17  1  0.22240000  0.77720000  0.42690000  1.0 -0.1180447841
C  C18  1  0.77760000  0.77720000  0.57310000  1.0 -0.1180447841
C  C19  1  0.27760000  0.27720000  0.92690000  1.0 -0.1180447841
C  C20  1  0.72240000  0.27720000  0.07310000  1.0 -0.1180447841
C  C21  1  0.16970000  0.83670000  0.43420000  1.0 -0.0997979647
C  C22  1  0.83030000  0.83670000  0.56580000  1.0 -0.0997979647
C  C23  1  0.33030000  0.33670000  0.93420000  1.0 -0.0997979647
C  C24  1  0.66970000  0.33670000  0.06580000  1.0 -0.0997979647
C  C25  1  0.17450000  0.86880000  0.47540000  1.0 -0.0075809026
C  C26  1  0.82550000  0.86880000  0.52460000  1.0 -0.0075809026
C  C27  1  0.32550000  0.36880000  0.97540000  1.0 -0.0075809026
C  C28  1  0.67450000  0.36880000  0.02460000  1.0 -0.0075809026
C  C29  1  0.11880000  0.93600000  0.48320000  1.0 0.5580972006
C  C30  1  0.88120000  0.93600000  0.51680000  1.0 0.5580972006
C  C31  1  0.38120000  0.43600000  0.98320000  1.0 0.5580972006
C  C32  1  0.61880000  0.43600000  0.01680000  1.0 0.5580972006
C  C33  1  0.13120000  0.12020000  0.48600000  1.0 0.5859999677
C  C34  1  0.86880000  0.12020000  0.51400000  1.0 0.5859999677
C  C35  1  0.36880000  0.62020000  0.98600000  1.0 0.5859999677
C  C36  1  0.63120000  0.62020000  0.01400000  1.0 0.5859999677
C  C37  1  0.98080000  0.93740000  0.19620000  1.0 0.5859999677
C  C38  1  0.01920000  0.93740000  0.80380000  1.0 0.5859999677
C  C39  1  0.51920000  0.43740000  0.69620000  1.0 0.5859999677
C  C40  1  0.48080000  0.43740000  0.30380000  1.0 0.5859999677
C  C41  1  0.93700000  0.87280000  0.21690000  1.0 -0.0075809026
C  C42  1  0.06300000  0.87280000  0.78310000  1.0 -0.0075809026
C  C43  1  0.56300000  0.37280000  0.71690000  1.0 -0.0075809026
C  C44  1  0.43700000  0.37280000  0.28310000  1.0 -0.0075809026
C  C45  1  0.85070000  0.84140000  0.20200000  1.0 -0.0997979647
C  C46  1  0.14930000  0.84140000  0.79800000  1.0 -0.0997979647
C  C47  1  0.64930000  0.34140000  0.70200000  1.0 -0.0997979647
C  C48  1  0.35070000  0.34140000  0.29800000  1.0 -0.0997979647
C  C49  1  0.81790000  0.78210000  0.22220000  1.0 -0.1297825232
C  C50  1  0.18210000  0.78210000  0.77780000  1.0 -0.1297825232
C  C51  1  0.68210000  0.28210000  0.72220000  1.0 -0.1297825232
C  C52  1  0.31790000  0.28210000  0.27780000  1.0 -0.1297825232
C  C53  1  0.87140000  0.75410000  0.25730000  1.0 0.041021241
C  C54  1  0.12860000  0.75410000  0.74270000  1.0 0.041021241
C  C55  1  0.62860000  0.25410000  0.75730000  1.0 0.041021241
C  C56  1  0.37140000  0.25410000  0.24270000  1.0 0.041021241
C  C57  1  0.95770000  0.78550000  0.27220000  1.0 -0.1180447841
C  C58  1  0.04230000  0.78550000  0.72780000  1.0 -0.1180447841
C  C59  1  0.54230000  0.28550000  0.77220000  1.0 -0.1180447841
C  C60  1  0.45770000  0.28550000  0.22780000  1.0 -0.1180447841
C  C61  1  0.99050000  0.84480000  0.25200000  1.0 -0.0997979647
C  C62  1  0.00950000  0.84480000  0.74800000  1.0 -0.0997979647
C  C63  1  0.50950000  0.34480000  0.75200000  1.0 -0.0997979647
C  C64  1  0.49050000  0.34480000  0.24800000  1.0 -0.0997979647
C  C65  1  0.82890000  0.36740000  0.27990000  1.0 0.2660440301
C  C66  1  0.17110000  0.36740000  0.72010000  1.0 0.2660440301
C  C67  1  0.67110000  0.86740000  0.77990000  1.0 0.2660440301
C  C68  1  0.32890000  0.86740000  0.22010000  1.0 0.2660440301
C  C69  1  0.84640000  0.68530000  0.27300000  1.0 0.2322833558
C  C70  1  0.15360000  0.68530000  0.72700000  1.0 0.2322833558
C  C71  1  0.65360000  0.18530000  0.77300000  1.0 0.2322833558
C  C72  1  0.34640000  0.18530000  0.22700000  1.0 0.2322833558
C  C73  1  0.71820000  0.53300000  0.44010000  1.0 0.2916724777
C  C74  1  0.28180000  0.53300000  0.55990000  1.0 0.2916724777
C  C75  1  0.78180000  0.03300000  0.94010000  1.0 0.2916724777
C  C76  1  0.21820000  0.03300000  0.05990000  1.0 0.2916724777
C  C77  1  0.78990000  0.53330000  0.47722000  1.0 0.041021241
C  C78  1  0.21010000  0.53330000  0.52278000  1.0 0.041021241
C  C79  1  0.71010000  0.03330000  0.97722000  1.0 0.041021241
C  C80  1  0.28990000  0.03330000  0.02278000  1.0 0.041021241
C  C81  1  0.81410000  0.59290000  0.49950000  1.0 -0.1180447841
C  C82  1  0.18590000  0.59290000  0.50050000  1.0 -0.1088465047
C  C83  1  0.68590000  0.09290000  0.99950000  1.0 -0.1180447841
C  C84  1  0.31410000  0.09290000  0.00050000  1.0 -0.1088465047
C  C85  1  0.87910000  0.59110000  0.53550000  1.0 -0.1088465047
C  C86  1  0.12090000  0.59110000  0.46450000  1.0 -0.1088465047
C  C87  1  0.62090000  0.09110000  0.03550000  1.0 -0.0997979647
C  C88  1  0.37910000  0.09110000  0.96450000  1.0 -0.1088465047
C  C89  1  0.91990000  0.52980000  0.54923000  1.0 -0.0159876175
C  C90  1  0.08010000  0.52980000  0.45077000  1.0 -0.0159876175
C  C91  1  0.58010000  0.02980000  0.04923000  1.0 -0.0159876175
C  C92  1  0.41990000  0.02980000  0.95077000  1.0 -0.0159876175
C  C93  1  0.89570000  0.47020000  0.52690000  1.0 -0.08998123
C  C94  1  0.10430000  0.47020000  0.47310000  1.0 -0.08998123
C  C95  1  0.60430000  0.97020000  0.02690000  1.0 -0.08998123
C  C96  1  0.39570000  0.97020000  0.97310000  1.0 -0.08998123
C  C97  1  0.83070000  0.47200000  0.49090000  1.0 -0.1088465047
C  C98  1  0.16930000  0.47200000  0.50910000  1.0 -0.1088465047
C  C99  1  0.66930000  0.97200000  0.99090000  1.0 -0.1088465047
C  C100  1  0.33070000  0.97200000  0.00910000  1.0 -0.1088465047
C  C101  1  0.99290000  0.53690000  0.58580000  1.0 0.5092210849
C  C102  1  0.00710000  0.53690000  0.41420000  1.0 0.5092210849
C  C103  1  0.50710000  0.03690000  0.08580000  1.0 0.5092210849
C  C104  1  0.49290000  0.03690000  0.91420000  1.0 0.5092210849
C  C105  1  0.87640000  0.30890000  0.25240000  1.0 0.0474444303
C  C106  1  0.12360000  0.30890000  0.74760000  1.0 0.0474444303
C  C107  1  0.62360000  0.80890000  0.75240000  1.0 0.0474444303
C  C108  1  0.37640000  0.80890000  0.24760000  1.0 0.0474444303
C  C109  1  0.81840000  0.27600000  0.22280000  1.0 -0.0997979647
C  C110  1  0.18160000  0.27600000  0.77720000  1.0 -0.1088465047
C  C111  1  0.68160000  0.77600000  0.72280000  1.0 -0.1088465047
C  C112  1  0.31840000  0.77600000  0.27720000  1.0 -0.0997979647
C  C113  1  0.85200000  0.21570000  0.20520000  1.0 -0.1412981952
C  C114  1  0.14800000  0.21570000  0.79480000  1.0 -0.1412981952
C  C115  1  0.64800000  0.71570000  0.70520000  1.0 -0.1412981952
C  C116  1  0.35200000  0.71570000  0.29480000  1.0 -0.1412981952
C  C117  1  0.94610000  0.19160000  0.21440000  1.0 0.0059690395
C  C118  1  0.05390000  0.19160000  0.78560000  1.0 0.0059690395
C  C119  1  0.55390000  0.69160000  0.71440000  1.0 0.0059690395
C  C120  1  0.44610000  0.69160000  0.28560000  1.0 0.0059690395
C  C121  1  0.00330000  0.22720000  0.24010000  1.0 -0.08998123
C  C122  1  0.99670000  0.22720000  0.75990000  1.0 -0.08998123
C  C123  1  0.49670000  0.72720000  0.74010000  1.0 -0.08998123
C  C124  1  0.50330000  0.72720000  0.25990000  1.0 -0.08998123
C  C125  1  0.97280000  0.28850000  0.26030000  1.0 -0.1088465047
C  C126  1  0.02720000  0.28850000  0.73970000  1.0 -0.1088465047
C  C127  1  0.52720000  0.78850000  0.76030000  1.0 -0.1088465047
C  C128  1  0.47280000  0.78850000  0.23970000  1.0 -0.1088465047
C  C129  1  0.96830000  0.12480000  0.18730000  1.0 0.5580972006
C  C130  1  0.03170000  0.12480000  0.81270000  1.0 0.5580972006
C  C131  1  0.53170000  0.62480000  0.68730000  1.0 0.5580972006
C  C132  1  0.46830000  0.62480000  0.31270000  1.0 0.5580972006
C  C133  1  0.20220000  0.17660000  0.47600000  1.0 -0.0281735568
C  C134  1  0.79780000  0.17660000  0.52400000  1.0 -0.0281735568
C  C135  1  0.29780000  0.67660000  0.97600000  1.0 -0.0281735568
C  C136  1  0.70220000  0.67660000  0.02400000  1.0 -0.0281735568
C  C137  1  0.25000000  0.20740000  0.51180000  1.0 -0.08998123
C  C138  1  0.75000000  0.20740000  0.48820000  1.0 -0.08998123
C  C139  1  0.25000000  0.70740000  0.01180000  1.0 -0.08998123
C  C140  1  0.75000000  0.70740000  0.98820000  1.0 -0.08998123
C  C141  1  0.30440000  0.26640000  0.50520000  1.0 -0.1297825232
C  C142  1  0.69560000  0.26640000  0.49480000  1.0 -0.1297825232
C  C143  1  0.19560000  0.76640000  0.00520000  1.0 -0.1297825232
C  C144  1  0.80440000  0.76640000  0.99480000  1.0 -0.1297825232
C  C145  1  0.31110000  0.29470000  0.46280000  1.0 0.0317437148
C  C146  1  0.68890000  0.29470000  0.53720000  1.0 0.0317437148
C  C147  1  0.18890000  0.79470000  0.96280000  1.0 0.0317437148
C  C148  1  0.81110000  0.79470000  0.03720000  1.0 0.0317437148
C  C149  1  0.26340000  0.26390000  0.42710000  1.0 -0.1297825232
C  C150  1  0.73660000  0.26390000  0.57290000  1.0 -0.1297825232
C  C151  1  0.23660000  0.76390000  0.92710000  1.0 -0.1297825232
C  C152  1  0.76340000  0.76390000  0.07290000  1.0 -0.1297825232
C  C153  1  0.20890000  0.20480000  0.43370000  1.0 -0.08998123
C  C154  1  0.79110000  0.20480000  0.56630000  1.0 -0.08998123
C  C155  1  0.29110000  0.70480000  0.93370000  1.0 -0.08998123
C  C156  1  0.70890000  0.70480000  0.06630000  1.0 -0.08998123
C  C157  1  0.35090000  0.36180000  0.45640000  1.0 0.2580451315
C  C158  1  0.64910000  0.36180000  0.54360000  1.0 0.2580451315
C  C159  1  0.14910000  0.86180000  0.95640000  1.0 0.2580451315
C  C160  1  0.85090000  0.86180000  0.04360000  1.0 0.2580451315
N  N1  1  0.34030000  0.65820000  0.41650000  1.0 -0.2574250148
N  N2  1  0.65970000  0.65820000  0.58350000  1.0 -0.2574250148
N  N3  1  0.15970000  0.15820000  0.91650000  1.0 -0.2574250148
N  N4  1  0.84030000  0.15820000  0.08350000  1.0 -0.2574250148
N  N5  1  0.37680000  0.65670000  0.48720000  1.0 -0.2231211717
N  N6  1  0.62320000  0.65670000  0.51280000  1.0 -0.2231211717
N  N7  1  0.12320000  0.15670000  0.98720000  1.0 -0.2231211717
N  N8  1  0.87680000  0.15670000  0.01280000  1.0 -0.2231211717
N  N9  1  0.41810000  0.60740000  0.46590000  1.0 0.003029028
N  N10  1  0.58190000  0.60740000  0.53410000  1.0 0.003029028
N  N11  1  0.08190000  0.10740000  0.96590000  1.0 0.003029028
N  N12  1  0.91810000  0.10740000  0.03410000  1.0 0.003029028
N  N13  1  0.39780000  0.60400000  0.42670000  1.0 -0.0517485485
N  N14  1  0.60220000  0.60400000  0.57330000  1.0 -0.0517485485
N  N15  1  0.10220000  0.10400000  0.92670000  1.0 -0.0517485485
N  N16  1  0.89780000  0.10400000  0.07330000  1.0 -0.0517485485
N  N17  1  0.58830000  0.52390000  0.40070000  1.0 -0.082145288
N  N18  1  0.41170000  0.52390000  0.59930000  1.0 -0.082145288
N  N19  1  0.91170000  0.02390000  0.90070000  1.0 -0.082145288
N  N20  1  0.08830000  0.02390000  0.09930000  1.0 -0.082145288
N  N21  1  0.62220000  0.52510000  0.44276000  1.0 -0.270766666
N  N22  1  0.37780000  0.52510000  0.55724000  1.0 -0.270766666
N  N23  1  0.87780000  0.02510000  0.94276000  1.0 -0.270766666
N  N24  1  0.12220000  0.02510000  0.05724000  1.0 -0.270766666
N  N25  1  0.74750000  0.52200000  0.39700000  1.0 -0.3031885504
N  N26  1  0.25250000  0.52200000  0.60300000  1.0 -0.3073479885
N  N27  1  0.75250000  0.02200000  0.89700000  1.0 -0.3031885504
N  N28  1  0.24750000  0.02200000  0.10300000  1.0 -0.3031885504
N  N29  1  0.66170000  0.53250000  0.37300000  1.0 -0.1088465047
N  N30  1  0.33830000  0.53250000  0.62700000  1.0 -0.0997979647
N  N31  1  0.83830000  0.03250000  0.87300000  1.0 -0.0997979647
N  N32  1  0.16170000  0.03250000  0.12700000  1.0 -0.0997979647
N  N33  1  0.40310000  0.40050000  0.48870000  1.0 -0.2400949056
N  N34  1  0.59690000  0.40050000  0.51130000  1.0 -0.2400949056
N  N35  1  0.09690000  0.90050000  0.98870000  1.0 -0.2400949056
N  N36  1  0.90310000  0.90050000  0.01130000  1.0 -0.2400949056
N  N37  1  0.42920000  0.46360000  0.46890000  1.0 -0.0405430177
N  N38  1  0.57080000  0.46360000  0.53110000  1.0 -0.0405430177
N  N39  1  0.07080000  0.96360000  0.96890000  1.0 -0.0405430177
N  N40  1  0.92920000  0.96360000  0.03110000  1.0 -0.0405430177
N  N41  1  0.39300000  0.46380000  0.42450000  1.0 -0.0997979647
N  N42  1  0.60700000  0.46380000  0.57550000  1.0 -0.0997979647
N  N43  1  0.10700000  0.96380000  0.92450000  1.0 -0.0997979647
N  N44  1  0.89300000  0.96380000  0.07550000  1.0 -0.0997979647
N  N45  1  0.34460000  0.40090000  0.41670000  1.0 -0.2538436432
N  N46  1  0.65540000  0.40090000  0.58330000  1.0 -0.2538436432
N  N47  1  0.15540000  0.90090000  0.91670000  1.0 -0.2574250148
N  N48  1  0.84460000  0.90090000  0.08330000  1.0 -0.2538436432
N  N49  1  0.84570000  0.45770000  0.31590000  1.0 -0.0281735568
N  N50  1  0.15430000  0.45770000  0.68410000  1.0 -0.0281735568
N  N51  1  0.65430000  0.95770000  0.81590000  1.0 -0.0281735568
N  N52  1  0.34570000  0.95770000  0.18410000  1.0 -0.0281735568
N  N53  1  0.75600000  0.45550000  0.29610000  1.0 -0.08998123
N  N54  1  0.24400000  0.45550000  0.70390000  1.0 -0.082145288
N  N55  1  0.74400000  0.95550000  0.79610000  1.0 -0.08998123
N  N56  1  0.25600000  0.95550000  0.20390000  1.0 -0.08998123
N  N57  1  0.75210000  0.39750000  0.27150000  1.0 -0.2574250148
N  N58  1  0.24790000  0.39750000  0.72850000  1.0 -0.2574250148
N  N59  1  0.74790000  0.89750000  0.77150000  1.0 -0.2574250148
N  N60  1  0.25210000  0.89750000  0.22850000  1.0 -0.2574250148
N  N61  1  0.90130000  0.40310000  0.30740000  1.0 -0.2271953578
N  N62  1  0.09870000  0.40310000  0.69260000  1.0 -0.2271953578
N  N63  1  0.59870000  0.90310000  0.80740000  1.0 -0.2271953578
N  N64  1  0.40130000  0.90310000  0.19260000  1.0 -0.2271953578
N  N65  1  0.83350000  0.60190000  0.31870000  1.0 -0.1088465047
N  N66  1  0.16650000  0.60190000  0.68130000  1.0 -0.1088465047
N  N67  1  0.66650000  0.10190000  0.81870000  1.0 -0.1088465047
N  N68  1  0.33350000  0.10190000  0.18130000  1.0 -0.1088465047
N  N69  1  0.76070000  0.60230000  0.28960000  1.0 -0.0075809026
N  N70  1  0.23930000  0.60230000  0.71040000  1.0 -0.0075809026
N  N71  1  0.73930000  0.10230000  0.78960000  1.0 -0.0075809026
N  N72  1  0.26070000  0.10230000  0.21040000  1.0 -0.0075809026
N  N73  1  0.75820000  0.65200000  0.26300000  1.0 -0.1907481591
N  N74  1  0.24180000  0.65200000  0.73700000  1.0 -0.1907481591
N  N75  1  0.74180000  0.15200000  0.76300000  1.0 -0.1907481591
N  N76  1  0.25820000  0.15200000  0.23700000  1.0 -0.1907481591
N  N77  1  0.88650000  0.65460000  0.30420000  1.0 -0.1846364716
N  N78  1  0.11350000  0.65460000  0.69580000  1.0 -0.1846364716
N  N79  1  0.61350000  0.15460000  0.80420000  1.0 -0.1907481591
N  N80  1  0.38650000  0.15460000  0.19580000  1.0 -0.1846364716
O  O1  1  0.05730000  0.96210000  0.21310000  1.0 -0.4826286713
O  O2  1  0.94270000  0.96210000  0.78690000  1.0 -0.4826286713
O  O3  1  0.44270000  0.46210000  0.71310000  1.0 -0.4826286713
O  O4  1  0.55730000  0.46210000  0.28690000  1.0 -0.4826286713
O  O5  1  0.90750000  0.96980000  0.16720000  1.0 -0.596070218
O  O6  1  0.09250000  0.96980000  0.83280000  1.0 -0.590902845
O  O7  1  0.59250000  0.46980000  0.66720000  1.0 -0.596070218
O  O8  1  0.40750000  0.46980000  0.33280000  1.0 -0.596070218
O  O9  1  0.05330000  0.10630000  0.20310000  1.0 -0.4412932748
O  O10  1  0.94670000  0.10630000  0.79690000  1.0 -0.4412932748
O  O11  1  0.44670000  0.60630000  0.70310000  1.0 -0.4412932748
O  O12  1  0.55330000  0.60630000  0.29690000  1.0 -0.4412932748
O  O13  1  0.93490000  0.10420000  0.16140000  1.0 -0.3073479885
O  O14  1  0.06510000  0.10420000  0.83860000  1.0 -0.3151371757
O  O15  1  0.56510000  0.60420000  0.66140000  1.0 -0.3073479885
O  O16  1  0.43490000  0.60420000  0.33860000  1.0 -0.3073479885
O  O17  1  0.08470000  0.96110000  0.45030000  1.0 -0.4412932748
O  O18  1  0.91530000  0.96110000  0.54970000  1.0 -0.4412932748
O  O19  1  0.41530000  0.46110000  0.95030000  1.0 -0.4412932748
O  O20  1  0.58470000  0.46110000  0.04970000  1.0 -0.4412932748
O  O21  1  0.13050000  0.96460000  0.52470000  1.0 -0.590902845
O  O22  1  0.86950000  0.96460000  0.47530000  1.0 -0.590902845
O  O23  1  0.36950000  0.46460000  0.02470000  1.0 -0.590902845
O  O24  1  0.63050000  0.46460000  0.97530000  1.0 -0.590902845
O  O25  1  0.02590000  0.58230000  0.60320000  1.0 -0.3581911007
O  O26  1  0.97410000  0.58230000  0.39680000  1.0 -0.3581911007
O  O27  1  0.47410000  0.08230000  0.10320000  1.0 -0.3581911007
O  O28  1  0.52590000  0.08230000  0.89680000  1.0 -0.3510769883
O  O29  1  0.02620000  0.47480000  0.60160000  1.0 -0.4998217429
O  O30  1  0.97380000  0.47480000  0.39840000  1.0 -0.4998217429
O  O31  1  0.47380000  0.97480000  0.10160000  1.0 -0.4998217429
O  O32  1  0.52620000  0.97480000  0.89840000  1.0 -0.4998217429
O  O33  1  0.11060000  0.10390000  0.52330000  1.0 -0.423872752
O  O34  1  0.88940000  0.10390000  0.47670000  1.0 -0.423872752
O  O35  1  0.38940000  0.60390000  0.02330000  1.0 -0.423872752
O  O36  1  0.61060000  0.60390000  0.97670000  1.0 -0.423872752
O  O37  1  0.06490000  0.10270000  0.45370000  1.0 -0.5724876503
O  O38  1  0.93510000  0.10270000  0.54630000  1.0 -0.5724876503
O  O39  1  0.43510000  0.60270000  0.95370000  1.0 -0.5724876503
O  O40  1  0.56490000  0.60270000  0.04630000  1.0 -0.5724876503
