# DDEC6 charges by PACMAN v1.1 (https://github.com/mtap-research/PACMAN-charge/)
data_OZEGOS_ASR_pacman
_symmetry_space_group_name_H-M   'P 1'
_cell_length_a   23.42080000
_cell_length_b   23.42080000
_cell_length_c   23.42080000
_cell_angle_alpha   120.50100000
_cell_angle_beta   120.50100000
_cell_angle_gamma   89.13370000
_symmetry_Int_Tables_number   1
_chemical_formula_structural   GdH20C25I2N5
_chemical_formula_sum   'Gd8 H160 C200 I16 N40'
_cell_volume   9014.42106020
_cell_formula_units_Z   8
loop_
 _symmetry_equiv_pos_site_id
 _symmetry_equiv_pos_as_xyz
  1  'x, y, z'
loop_
 _atom_site_type_symbol
 _atom_site_label
 _atom_site_symmetry_multiplicity
 _atom_site_fract_x
 _atom_site_fract_y
 _atom_site_fract_z
 _atom_site_occupancy
 _atom_site_charge
Gd  Gd1  1  0.06597000  0.56597000  0.13194000  1.0 1.3817378798
Gd  Gd2  1  0.43403000  0.93403000  0.86806000  1.0 1.3817378798
Gd  Gd3  1  0.93252000  0.43252000  0.50000000  1.0 1.3966181198
Gd  Gd4  1  0.56748000  0.06748000  0.50000000  1.0 1.3945450702
Gd  Gd5  1  0.68403000  0.31597000  0.00000000  1.0 1.3817378798
Gd  Gd6  1  0.31597000  0.68403000  0.00000000  1.0 1.3817378798
Gd  Gd7  1  0.18252000  0.18252000  0.00000000  1.0 1.3945450702
Gd  Gd8  1  0.81748000  0.81748000  0.00000000  1.0 1.3966181198
H  H1  1  0.13269000  0.54230000  0.02705000  1.0 0.089648755
H  H2  1  0.12158000  0.73913000  0.21263000  1.0 0.089648755
H  H3  1  0.23105000  0.61712000  0.18257000  1.0 0.089648755
H  H4  1  0.21293000  0.83527000  0.28146000  1.0 0.1319225176
H  H5  1  0.94743000  0.56267000  0.96634000  1.0 0.0994078004
H  H6  1  0.39198000  0.99036000  0.35106000  1.0 0.0994078004
H  H7  1  0.32810000  0.71105000  0.25597000  1.0 0.1319225176
H  H8  1  0.41808000  0.81267000  0.38453000  1.0 0.1319225176
H  H9  1  0.11248000  0.52554000  0.91474000  1.0 0.1204126024
H  H10  1  0.29366000  0.90003000  0.28129000  1.0 0.1319225176
H  H11  1  0.14864000  0.76729000  0.43769000  1.0 0.1319225176
H  H12  1  0.92294000  0.54576000  0.85094000  1.0 0.1204126024
H  H13  1  0.51324000  0.90719000  0.45267000  1.0 0.0994078004
H  H14  1  0.08191000  0.69545000  0.29930000  1.0 0.0994078004
H  H15  1  0.08758000  0.49943000  0.80219000  1.0 0.1204126024
H  H16  1  0.06306000  0.47806000  0.68518000  1.0 0.0994078004
H  H17  1  0.90216000  0.52993000  0.74477000  1.0 0.1204126024
H  H18  1  0.88621000  0.51515000  0.63282000  1.0 0.0994078004
H  H19  1  0.92797000  0.32818000  0.56057000  1.0 0.0994078004
H  H20  1  0.85172000  0.23144000  0.52156000  1.0 0.1319225176
H  H21  1  0.51525000  0.10564000  0.97295000  1.0 0.089648755
H  H22  1  0.52650000  0.90895000  0.78737000  1.0 0.089648755
H  H23  1  0.43455000  0.04848000  0.81743000  1.0 0.089648755
H  H24  1  0.55381000  0.93147000  0.71854000  1.0 0.1319225176
H  H25  1  0.59633000  0.98109000  0.03366000  1.0 0.0994078004
H  H26  1  0.63930000  0.04092000  0.64894000  1.0 0.0994078004
H  H27  1  0.45508000  0.07213000  0.74403000  1.0 0.1319225176
H  H28  1  0.42814000  0.03355000  0.61547000  1.0 0.1319225176
H  H29  1  0.61080000  0.19774000  0.08526000  1.0 0.1204126024
H  H30  1  0.61874000  0.01237000  0.71871000  1.0 0.1319225176
H  H31  1  0.32960000  0.71095000  0.56231000  1.0 0.1319225176
H  H32  1  0.69482000  0.07200000  0.14906000  1.0 0.1204126024
H  H33  1  0.45452000  0.06057000  0.54733000  1.0 0.0994078004
H  H34  1  0.39615000  0.78261000  0.70070000  1.0 0.0994078004
H  H35  1  0.69724000  0.28539000  0.19781000  1.0 0.1204126024
H  H36  1  0.79288000  0.37788000  0.31482000  1.0 0.0994078004
H  H37  1  0.78516000  0.15739000  0.25523000  1.0 0.1204126024
H  H38  1  0.88233000  0.25339000  0.36718000  1.0 0.0994078004
H  H39  1  0.76761000  0.36740000  0.43943000  1.0 0.0994078004
H  H40  1  0.70988000  0.33016000  0.47844000  1.0 0.1319225176
H  H41  1  0.45770000  0.86731000  0.97295000  1.0 0.089648755
H  H42  1  0.26087000  0.87842000  0.78737000  1.0 0.089648755
H  H43  1  0.38288000  0.76895000  0.81743000  1.0 0.089648755
H  H44  1  0.16473000  0.78707000  0.71854000  1.0 0.1319225176
H  H45  1  0.43733000  0.05257000  0.03366000  1.0 0.0994078004
H  H46  1  0.00964000  0.60802000  0.64894000  1.0 0.0994078004
H  H47  1  0.28895000  0.67190000  0.74403000  1.0 0.1319225176
H  H48  1  0.18733000  0.58192000  0.61547000  1.0 0.1319225176
H  H49  1  0.47446000  0.88752000  0.08526000  1.0 0.1204126024
H  H50  1  0.09997000  0.70634000  0.71871000  1.0 0.1319225176
H  H51  1  0.23271000  0.85136000  0.56231000  1.0 0.1319225176
H  H52  1  0.45424000  0.07706000  0.14906000  1.0 0.1204126024
H  H53  1  0.09281000  0.48676000  0.54733000  1.0 0.0994078004
H  H54  1  0.30455000  0.91809000  0.70070000  1.0 0.0994078004
H  H55  1  0.50057000  0.91242000  0.19781000  1.0 0.1204126024
H  H56  1  0.52194000  0.93694000  0.31482000  1.0 0.0994078004
H  H57  1  0.47007000  0.09784000  0.25523000  1.0 0.1204126024
H  H58  1  0.48485000  0.11379000  0.36718000  1.0 0.0994078004
H  H59  1  0.67182000  0.07203000  0.43943000  1.0 0.0994078004
H  H60  1  0.76856000  0.14828000  0.47844000  1.0 0.1319225176
H  H61  1  0.89436000  0.48475000  0.02705000  1.0 0.089648755
H  H62  1  0.09105000  0.47350000  0.21263000  1.0 0.089648755
H  H63  1  0.95152000  0.56545000  0.18257000  1.0 0.089648755
H  H64  1  0.06853000  0.44619000  0.28146000  1.0 0.1319225176
H  H65  1  0.01891000  0.40367000  0.96634000  1.0 0.0994078004
H  H66  1  0.95908000  0.36070000  0.35106000  1.0 0.0994078004
H  H67  1  0.92787000  0.54492000  0.25597000  1.0 0.1319225176
H  H68  1  0.96645000  0.57186000  0.38453000  1.0 0.1319225176
H  H69  1  0.80226000  0.38920000  0.91474000  1.0 0.1204126024
H  H70  1  0.98763000  0.38126000  0.28129000  1.0 0.1319225176
H  H71  1  0.28905000  0.67040000  0.43769000  1.0 0.1319225176
H  H72  1  0.92800000  0.30518000  0.85094000  1.0 0.1204126024
H  H73  1  0.93943000  0.54548000  0.45267000  1.0 0.0994078004
H  H74  1  0.21739000  0.60385000  0.29930000  1.0 0.0994078004
H  H75  1  0.71461000  0.30276000  0.80219000  1.0 0.1204126024
H  H76  1  0.62212000  0.20712000  0.68518000  1.0 0.0994078004
H  H77  1  0.84261000  0.21484000  0.74477000  1.0 0.1204126024
H  H78  1  0.74661000  0.11767000  0.63282000  1.0 0.0994078004
H  H79  1  0.63260000  0.23239000  0.56057000  1.0 0.0994078004
H  H80  1  0.66984000  0.29012000  0.52156000  1.0 0.1319225176
H  H81  1  0.85564000  0.38269000  0.09039000  1.0 0.089648755
H  H82  1  0.65895000  0.37158000  0.88245000  1.0 0.089648755
H  H83  1  0.79848000  0.48105000  0.11393000  1.0 0.089648755
H  H84  1  0.68147000  0.46293000  0.87766000  1.0 0.1319225176
H  H85  1  0.73109000  0.19743000  0.88476000  1.0 0.0994078004
H  H86  1  0.79092000  0.64198000  0.90162000  1.0 0.0994078004
H  H87  1  0.82213000  0.57810000  0.11705000  1.0 0.1319225176
H  H88  1  0.78355000  0.66808000  0.10541000  1.0 0.1319225176
H  H89  1  0.94774000  0.36248000  0.08694000  1.0 0.1204126024
H  H90  1  0.76237000  0.54366000  0.89363000  1.0 0.1319225176
H  H91  1  0.46095000  0.39864000  0.88135000  1.0 0.1319225176
H  H92  1  0.82200000  0.17294000  0.87718000  1.0 0.1204126024
H  H93  1  0.81057000  0.76324000  0.10605000  1.0 0.0994078004
H  H94  1  0.53261000  0.33191000  0.88646000  1.0 0.0994078004
H  H95  1  0.03539000  0.33758000  0.08815000  1.0 0.1204126024
H  H96  1  0.12788000  0.31306000  0.08500000  1.0 0.0994078004
H  H97  1  0.90739000  0.15216000  0.87223000  1.0 0.1204126024
H  H98  1  0.00339000  0.13621000  0.87106000  1.0 0.0994078004
H  H99  1  0.11740000  0.17797000  0.09979000  1.0 0.0994078004
H  H100  1  0.08016000  0.10172000  0.12028000  1.0 0.1319225176
H  H101  1  0.29230000  0.76525000  0.90961000  1.0 0.089648755
H  H102  1  0.48913000  0.77650000  0.11755000  1.0 0.089648755
H  H103  1  0.36712000  0.68455000  0.88607000  1.0 0.089648755
H  H104  1  0.58527000  0.80381000  0.12234000  1.0 0.1319225176
H  H105  1  0.31267000  0.84633000  0.11524000  1.0 0.0994078004
H  H106  1  0.74036000  0.88930000  0.09838000  1.0 0.0994078004
H  H107  1  0.46105000  0.70508000  0.88295000  1.0 0.1319225176
H  H108  1  0.56267000  0.67814000  0.89459000  1.0 0.1319225176
H  H109  1  0.27554000  0.86080000  0.91306000  1.0 0.1204126024
H  H110  1  0.65003000  0.86874000  0.10637000  1.0 0.1319225176
H  H111  1  0.51729000  0.57960000  0.11865000  1.0 0.1319225176
H  H112  1  0.29576000  0.94482000  0.12282000  1.0 0.1204126024
H  H113  1  0.65719000  0.70452000  0.89395000  1.0 0.0994078004
H  H114  1  0.44545000  0.64615000  0.11354000  1.0 0.0994078004
H  H115  1  0.24943000  0.94724000  0.91185000  1.0 0.1204126024
H  H116  1  0.22806000  0.04288000  0.91500000  1.0 0.0994078004
H  H117  1  0.27993000  0.03516000  0.12777000  1.0 0.1204126024
H  H118  1  0.26515000  0.13233000  0.12894000  1.0 0.0994078004
H  H119  1  0.07818000  0.01761000  0.90021000  1.0 0.0994078004
H  H120  1  0.98144000  0.95988000  0.87972000  1.0 0.1319225176
H  H121  1  0.23475000  0.70770000  0.09039000  1.0 0.089648755
H  H122  1  0.22350000  0.51087000  0.88245000  1.0 0.089648755
H  H123  1  0.31545000  0.63288000  0.11393000  1.0 0.089648755
H  H124  1  0.19619000  0.41473000  0.87766000  1.0 0.1319225176
H  H125  1  0.15367000  0.68733000  0.88476000  1.0 0.0994078004
H  H126  1  0.11070000  0.25964000  0.90162000  1.0 0.0994078004
H  H127  1  0.29492000  0.53895000  0.11705000  1.0 0.1319225176
H  H128  1  0.32186000  0.43733000  0.10541000  1.0 0.1319225176
H  H129  1  0.13920000  0.72446000  0.08694000  1.0 0.1204126024
H  H130  1  0.13126000  0.34997000  0.89363000  1.0 0.1319225176
H  H131  1  0.42040000  0.48271000  0.88135000  1.0 0.1319225176
H  H132  1  0.05518000  0.70424000  0.87718000  1.0 0.1204126024
H  H133  1  0.29548000  0.34281000  0.10605000  1.0 0.0994078004
H  H134  1  0.35385000  0.55455000  0.88646000  1.0 0.0994078004
H  H135  1  0.05276000  0.75057000  0.08815000  1.0 0.1204126024
H  H136  1  0.95712000  0.77194000  0.08500000  1.0 0.0994078004
H  H137  1  0.96484000  0.72007000  0.87223000  1.0 0.1204126024
H  H138  1  0.86767000  0.73485000  0.87106000  1.0 0.0994078004
H  H139  1  0.98239000  0.92182000  0.09979000  1.0 0.0994078004
H  H140  1  0.04012000  0.01856000  0.12028000  1.0 0.1319225176
H  H141  1  0.61731000  0.14436000  0.90961000  1.0 0.089648755
H  H142  1  0.62842000  0.34105000  0.11755000  1.0 0.089648755
H  H143  1  0.51895000  0.20152000  0.88607000  1.0 0.089648755
H  H144  1  0.53707000  0.31853000  0.12234000  1.0 0.1319225176
H  H145  1  0.80257000  0.26891000  0.11524000  1.0 0.0994078004
H  H146  1  0.35802000  0.20908000  0.09838000  1.0 0.0994078004
H  H147  1  0.42190000  0.17787000  0.88295000  1.0 0.1319225176
H  H148  1  0.33192000  0.21645000  0.89459000  1.0 0.1319225176
H  H149  1  0.63752000  0.05226000  0.91306000  1.0 0.1204126024
H  H150  1  0.45634000  0.23763000  0.10637000  1.0 0.1319225176
H  H151  1  0.60136000  0.53905000  0.11865000  1.0 0.1319225176
H  H152  1  0.82706000  0.17800000  0.12282000  1.0 0.1204126024
H  H153  1  0.23676000  0.18943000  0.89395000  1.0 0.0994078004
H  H154  1  0.66809000  0.46739000  0.11354000  1.0 0.0994078004
H  H155  1  0.66242000  0.96461000  0.91185000  1.0 0.1204126024
H  H156  1  0.68694000  0.87212000  0.91500000  1.0 0.0994078004
H  H157  1  0.84784000  0.09261000  0.12777000  1.0 0.1204126024
H  H158  1  0.86379000  0.99661000  0.12894000  1.0 0.0994078004
H  H159  1  0.82203000  0.88260000  0.90021000  1.0 0.0994078004
H  H160  1  0.89828000  0.91984000  0.87972000  1.0 0.1319225176
C  C1  1  0.09000000  0.54320000  0.99160000  1.0 0.089648755
C  C2  1  0.01470000  0.53240000  0.86510000  1.0 0.0994078004
C  C3  1  0.16360000  0.73260000  0.22060000  1.0 0.0797262714
C  C4  1  0.34510000  0.84530000  0.32440000  1.0 0.1118780468
C  C5  1  0.22750000  0.66200000  0.20390000  1.0 0.0540501097
C  C6  1  0.21900000  0.79150000  0.26330000  1.0 -0.2001689217
C  C7  1  0.28110000  0.78540000  0.27810000  1.0 0.0994078004
C  C8  1  0.98080000  0.55500000  0.95520000  1.0 0.0551725446
C  C9  1  0.39700000  0.95460000  0.35840000  1.0 0.089648755
C  C10  1  0.28610000  0.71820000  0.24750000  1.0 -0.2001689217
C  C11  1  0.41150000  0.84820000  0.37690000  1.0 -0.185563278
C  C12  1  0.07770000  0.53280000  0.92350000  1.0 -0.2071158156
C  C13  1  0.99950000  0.51990000  0.79080000  1.0 0.0994078004
C  C14  1  0.33770000  0.90020000  0.31550000  1.0 -0.2071158156
C  C15  1  0.16450000  0.73400000  0.41130000  1.0 -0.2071158156
C  C16  1  0.96600000  0.54470000  0.88570000  1.0 -0.2001689217
C  C17  1  0.46850000  0.90560000  0.41810000  1.0 0.0994078004
C  C18  1  0.12480000  0.69050000  0.32790000  1.0 0.0797262714
C  C19  1  0.04550000  0.50200000  0.76790000  1.0 -0.2001689217
C  C20  1  0.03030000  0.48850000  0.69700000  1.0 0.0719737004
C  C21  1  0.93640000  0.52120000  0.73520000  1.0 -0.2178967452
C  C22  1  0.92600000  0.50920000  0.66600000  1.0 0.089648755
C  C23  1  0.87980000  0.31910000  0.52970000  1.0 0.0797262714
C  C24  1  0.83710000  0.26720000  0.51770000  1.0 -0.2071158156
C  C25  1  0.55160000  0.09840000  0.00840000  1.0 0.089648755
C  C26  1  0.66730000  0.14960000  0.13490000  1.0 0.0994078004
C  C27  1  0.51200000  0.94300000  0.77940000  1.0 0.0797262714
C  C28  1  0.52090000  0.02070000  0.67560000  1.0 0.1118780468
C  C29  1  0.45810000  0.02360000  0.79610000  1.0 0.0551725446
C  C30  1  0.52820000  0.95570000  0.73670000  1.0 -0.2001689217
C  C31  1  0.50730000  0.00300000  0.72190000  1.0 0.0994078004
C  C32  1  0.59980000  0.02560000  0.04480000  1.0 0.0551725446
C  C33  1  0.59620000  0.03860000  0.64160000  1.0 0.089648755
C  C34  1  0.47070000  0.03860000  0.75250000  1.0 -0.2001689217
C  C35  1  0.47130000  0.03460000  0.62310000  1.0 -0.185563278
C  C36  1  0.60930000  0.15420000  0.07650000  1.0 -0.2071158156
C  C37  1  0.72910000  0.20870000  0.20920000  1.0 0.0994078004
C  C38  1  0.58470000  0.02220000  0.68450000  1.0 -0.2071158156
C  C39  1  0.32270000  0.75320000  0.58870000  1.0 -0.2071158156
C  C40  1  0.65900000  0.08030000  0.11430000  1.0 -0.2001689217
C  C41  1  0.48750000  0.05040000  0.58190000  1.0 0.0994078004
C  C42  1  0.36260000  0.79690000  0.67210000  1.0 0.0797262714
C  C43  1  0.73410000  0.27760000  0.23210000  1.0 -0.2001689217
C  C44  1  0.79150000  0.33333333  0.30300000  1.0 0.0719737004
C  C45  1  0.78600000  0.20120000  0.26480000  1.0 -0.2178967452
C  C46  1  0.84320000  0.26000000  0.33400000  1.0 0.089648755
C  C47  1  0.78940000  0.35010000  0.47030000  1.0 0.0797262714
C  C48  1  0.74950000  0.31940000  0.48230000  1.0 -0.2071158156
C  C49  1  0.45680000  0.91000000  0.00840000  1.0 0.089648755
C  C50  1  0.46760000  0.98530000  0.13490000  1.0 0.0994078004
C  C51  1  0.26740000  0.83640000  0.77940000  1.0 0.0797262714
C  C52  1  0.15470000  0.65490000  0.67560000  1.0 0.1118780468
C  C53  1  0.33800000  0.77250000  0.79610000  1.0 0.0540501097
C  C54  1  0.20850000  0.78100000  0.73670000  1.0 -0.2001689217
C  C55  1  0.21460000  0.71890000  0.72190000  1.0 0.0994078004
C  C56  1  0.44500000  0.01920000  0.04480000  1.0 0.0551725446
C  C57  1  0.04540000  0.60300000  0.64160000  1.0 0.089648755
C  C58  1  0.28180000  0.71390000  0.75250000  1.0 -0.2001689217
C  C59  1  0.15180000  0.58850000  0.62310000  1.0 -0.185563278
C  C60  1  0.46720000  0.92230000  0.07650000  1.0 -0.2071158156
C  C61  1  0.48010000  0.00050000  0.20920000  1.0 0.0994078004
C  C62  1  0.09980000  0.66230000  0.68450000  1.0 -0.2071158156
C  C63  1  0.26600000  0.83550000  0.58870000  1.0 -0.2071158156
C  C64  1  0.45530000  0.03400000  0.11430000  1.0 -0.2001689217
C  C65  1  0.09440000  0.53150000  0.58190000  1.0 0.0994078004
C  C66  1  0.30950000  0.87520000  0.67210000  1.0 0.0797262714
C  C67  1  0.49800000  0.95450000  0.23210000  1.0 -0.2001689217
C  C68  1  0.51150000  0.96970000  0.30300000  1.0 0.0719737004
C  C69  1  0.47880000  0.06360000  0.26480000  1.0 -0.2178967452
C  C70  1  0.49080000  0.07400000  0.33400000  1.0 0.089648755
C  C71  1  0.68090000  0.12020000  0.47030000  1.0 0.0797262714
C  C72  1  0.73280000  0.16290000  0.48230000  1.0 -0.2071158156
C  C73  1  0.90160000  0.44840000  0.99160000  1.0 0.089648755
C  C74  1  0.85040000  0.33270000  0.86510000  1.0 0.0994078004
C  C75  1  0.05700000  0.48800000  0.22060000  1.0 0.0797262714
C  C76  1  0.97930000  0.47910000  0.32440000  1.0 0.1118780468
C  C77  1  0.97640000  0.54190000  0.20390000  1.0 0.0551725446
C  C78  1  0.04430000  0.47180000  0.26330000  1.0 -0.2001689217
C  C79  1  0.99700000  0.49270000  0.27810000  1.0 0.0994078004
C  C80  1  0.97440000  0.40020000  0.95520000  1.0 0.0551725446
C  C81  1  0.96140000  0.40380000  0.35840000  1.0 0.089648755
C  C82  1  0.96140000  0.52930000  0.24750000  1.0 -0.2001689217
C  C83  1  0.96540000  0.52870000  0.37690000  1.0 -0.185563278
C  C84  1  0.84580000  0.39070000  0.92350000  1.0 -0.2071158156
C  C85  1  0.79130000  0.27090000  0.79080000  1.0 0.0994078004
C  C86  1  0.97780000  0.41530000  0.31550000  1.0 -0.2071158156
C  C87  1  0.24680000  0.67730000  0.41130000  1.0 -0.2071158156
C  C88  1  0.91970000  0.34100000  0.88570000  1.0 -0.2001689217
C  C89  1  0.94960000  0.51250000  0.41810000  1.0 0.0994078004
C  C90  1  0.20310000  0.63740000  0.32790000  1.0 0.0797262714
C  C91  1  0.72240000  0.26590000  0.76790000  1.0 -0.2001689217
C  C92  1  0.66666667  0.20850000  0.69700000  1.0 0.0719737004
C  C93  1  0.79880000  0.21400000  0.73520000  1.0 -0.2178967452
C  C94  1  0.74000000  0.15680000  0.66600000  1.0 0.089648755
C  C95  1  0.64990000  0.21060000  0.52970000  1.0 0.0797262714
C  C96  1  0.68060000  0.25050000  0.51770000  1.0 -0.2071158156
C  C97  1  0.22750000  0.72750000  0.45500000  1.0 0.1118780468
C  C98  1  0.27250000  0.77250000  0.54500000  1.0 0.1118780468
C  C99  1  0.77250000  0.27250000  0.50000000  1.0 0.0994078004
C  C100  1  0.72750000  0.22750000  0.50000000  1.0 0.0994078004
C  C101  1  0.84840000  0.34000000  0.04680000  1.0 0.089648755
C  C102  1  0.89960000  0.26470000  0.98230000  1.0 0.0994078004
C  C103  1  0.69300000  0.41360000  0.93100000  1.0 0.0797262714
C  C104  1  0.77070000  0.59510000  0.99980000  1.0 0.1118780468
C  C105  1  0.77360000  0.47750000  0.06550000  1.0 0.0551725446
C  C106  1  0.70570000  0.46900000  0.92750000  1.0 -0.2001689217
C  C107  1  0.75300000  0.53110000  0.99570000  1.0 0.0994078004
C  C108  1  0.77560000  0.23080000  0.92580000  1.0 0.0551725446
C  C109  1  0.78860000  0.64700000  0.94240000  1.0 0.089648755
C  C110  1  0.78860000  0.53610000  0.06790000  1.0 -0.2001689217
C  C111  1  0.78460000  0.66150000  0.06330000  1.0 -0.185563278
C  C112  1  0.90420000  0.32770000  0.04490000  1.0 -0.2071158156
C  C113  1  0.95870000  0.24950000  0.97960000  1.0 0.0994078004
C  C114  1  0.77220000  0.58770000  0.93750000  1.0 -0.2071158156
C  C115  1  0.50320000  0.41450000  0.93050000  1.0 -0.2071158156
C  C116  1  0.83030000  0.21600000  0.92130000  1.0 -0.2001689217
C  C117  1  0.80040000  0.71850000  0.06290000  1.0 0.0994078004
C  C118  1  0.54690000  0.37480000  0.93430000  1.0 0.0797262714
C  C119  1  0.02760000  0.29550000  0.04350000  1.0 -0.2001689217
C  C120  1  0.08330000  0.28030000  0.04180000  1.0 0.0719737004
C  C121  1  0.95120000  0.18640000  0.91520000  1.0 -0.2178967452
C  C122  1  0.01000000  0.17600000  0.91680000  1.0 0.089648755
C  C123  1  0.10010000  0.12980000  0.06070000  1.0 0.0797262714
C  C124  1  0.06940000  0.08710000  0.06990000  1.0 -0.2071158156
C  C125  1  0.29320000  0.80160000  0.95320000  1.0 0.089648755
C  C126  1  0.28240000  0.91730000  0.01770000  1.0 0.0994078004
C  C127  1  0.48260000  0.76200000  0.06900000  1.0 0.0797262714
C  C128  1  0.59530000  0.77090000  0.00020000  1.0 0.1118780468
C  C129  1  0.41200000  0.70810000  0.93450000  1.0 0.0540501097
C  C130  1  0.54150000  0.77820000  0.07250000  1.0 -0.2001689217
C  C131  1  0.53540000  0.75730000  0.00430000  1.0 0.0994078004
C  C132  1  0.30500000  0.84980000  0.07420000  1.0 0.0551725446
C  C133  1  0.70460000  0.84620000  0.05760000  1.0 0.089648755
C  C134  1  0.46820000  0.72070000  0.93210000  1.0 -0.2001689217
C  C135  1  0.59820000  0.72130000  0.93670000  1.0 -0.185563278
C  C136  1  0.28280000  0.85930000  0.95510000  1.0 -0.2071158156
C  C137  1  0.26990000  0.97910000  0.02040000  1.0 0.0994078004
C  C138  1  0.65020000  0.83470000  0.06250000  1.0 -0.2071158156
C  C139  1  0.48400000  0.57270000  0.06950000  1.0 -0.2071158156
C  C140  1  0.29470000  0.90900000  0.07870000  1.0 -0.2001689217
C  C141  1  0.65560000  0.73750000  0.93710000  1.0 0.0994078004
C  C142  1  0.44050000  0.61260000  0.06570000  1.0 0.0797262714
C  C143  1  0.25200000  0.98410000  0.95650000  1.0 -0.2001689217
C  C144  1  0.23850000  0.04150000  0.95820000  1.0 0.0719737004
C  C145  1  0.27120000  0.03600000  0.08480000  1.0 -0.2178967452
C  C146  1  0.25920000  0.09320000  0.08320000  1.0 0.089648755
C  C147  1  0.06910000  0.03940000  0.93930000  1.0 0.0797262714
C  C148  1  0.01720000  0.99950000  0.93010000  1.0 -0.2071158156
C  C149  1  0.19840000  0.70680000  0.04680000  1.0 0.089648755
C  C150  1  0.08270000  0.71760000  0.98230000  1.0 0.0994078004
C  C151  1  0.23800000  0.51740000  0.93100000  1.0 0.0797262714
C  C152  1  0.22910000  0.40470000  0.99980000  1.0 0.1118780468
C  C153  1  0.29190000  0.58800000  0.06550000  1.0 0.0551725446
C  C154  1  0.22180000  0.45850000  0.92750000  1.0 -0.2001689217
C  C155  1  0.24270000  0.46460000  0.99570000  1.0 0.0994078004
C  C156  1  0.15020000  0.69500000  0.92580000  1.0 0.0551725446
C  C157  1  0.15380000  0.29540000  0.94240000  1.0 0.089648755
C  C158  1  0.27930000  0.53180000  0.06790000  1.0 -0.2001689217
C  C159  1  0.27870000  0.40180000  0.06330000  1.0 -0.185563278
C  C160  1  0.14070000  0.71720000  0.04490000  1.0 -0.2071158156
C  C161  1  0.02090000  0.73010000  0.97960000  1.0 0.0994078004
C  C162  1  0.16530000  0.34980000  0.93750000  1.0 -0.2071158156
C  C163  1  0.42730000  0.51600000  0.93050000  1.0 -0.2071158156
C  C164  1  0.09100000  0.70530000  0.92130000  1.0 -0.2001689217
C  C165  1  0.26250000  0.34440000  0.06290000  1.0 0.0994078004
C  C166  1  0.38740000  0.55950000  0.93430000  1.0 0.0797262714
C  C167  1  0.01590000  0.74800000  0.04350000  1.0 -0.2001689217
C  C168  1  0.95850000  0.76150000  0.04180000  1.0 0.0719737004
C  C169  1  0.96400000  0.72880000  0.91520000  1.0 -0.2178967452
C  C170  1  0.90680000  0.74080000  0.91680000  1.0 0.089648755
C  C171  1  0.96060000  0.93090000  0.06070000  1.0 0.0797262714
C  C172  1  0.00050000  0.98280000  0.06990000  1.0 -0.2071158156
C  C173  1  0.66000000  0.15160000  0.95320000  1.0 0.089648755
C  C174  1  0.73530000  0.10040000  0.01770000  1.0 0.0994078004
C  C175  1  0.58640000  0.30700000  0.06900000  1.0 0.0797262714
C  C176  1  0.40490000  0.22930000  0.00020000  1.0 0.1118780468
C  C177  1  0.52250000  0.22640000  0.93450000  1.0 0.0540501097
C  C178  1  0.53100000  0.29430000  0.07250000  1.0 -0.2001689217
C  C179  1  0.46890000  0.24700000  0.00430000  1.0 0.0994078004
C  C180  1  0.76920000  0.22440000  0.07420000  1.0 0.0551725446
C  C181  1  0.35300000  0.21140000  0.05760000  1.0 0.089648755
C  C182  1  0.46390000  0.21140000  0.93210000  1.0 -0.2001689217
C  C183  1  0.33850000  0.21540000  0.93670000  1.0 -0.185563278
C  C184  1  0.67230000  0.09580000  0.95510000  1.0 -0.2071158156
C  C185  1  0.75050000  0.04130000  0.02040000  1.0 0.0994078004
C  C186  1  0.41230000  0.22780000  0.06250000  1.0 -0.2071158156
C  C187  1  0.58550000  0.49680000  0.06950000  1.0 -0.2071158156
C  C188  1  0.78400000  0.16970000  0.07870000  1.0 -0.2001689217
C  C189  1  0.28150000  0.19960000  0.93710000  1.0 0.0994078004
C  C190  1  0.62520000  0.45310000  0.06570000  1.0 0.0797262714
C  C191  1  0.70450000  0.97240000  0.95650000  1.0 -0.2001689217
C  C192  1  0.71970000  0.91670000  0.95820000  1.0 0.0719737004
C  C193  1  0.81360000  0.04880000  0.08480000  1.0 -0.2178967452
C  C194  1  0.82400000  0.99000000  0.08320000  1.0 0.089648755
C  C195  1  0.87020000  0.89990000  0.93930000  1.0 0.0797262714
C  C196  1  0.91290000  0.93060000  0.93010000  1.0 -0.2071158156
C  C197  1  0.52250000  0.47750000  0.00000000  1.0 0.1118780468
C  C198  1  0.47750000  0.52250000  0.00000000  1.0 0.1118780468
C  C199  1  0.02250000  0.02250000  0.00000000  1.0 0.0994078004
C  C200  1  0.97750000  0.97750000  0.00000000  1.0 0.0994078004
I  I1  1  0.16092000  0.47589000  0.13069000  1.0 -0.5988946712
I  I2  1  0.83538000  0.52084000  0.48778000  1.0 -0.6247500708
I  I3  1  0.34520000  0.03023000  0.86931000  1.0 -0.5988946712
I  I4  1  0.03306000  0.34760000  0.51222000  1.0 -0.6247500708
I  I5  1  0.52411000  0.83908000  0.86931000  1.0 -0.5988946712
I  I6  1  0.47916000  0.16462000  0.51222000  1.0 -0.6247500708
I  I7  1  0.96977000  0.65480000  0.13069000  1.0 -0.5988946712
I  I8  1  0.65240000  0.96694000  0.48778000  1.0 -0.6247500708
I  I9  1  0.78023000  0.41092000  0.18503000  1.0 -0.5988946712
I  I10  1  0.09760000  0.08538000  0.81454000  1.0 -0.6247500708
I  I11  1  0.22589000  0.59520000  0.81497000  1.0 -0.5988946712
I  I12  1  0.27084000  0.28306000  0.18546000  1.0 -0.6247500708
I  I13  1  0.40480000  0.77411000  0.18503000  1.0 -0.5988946712
I  I14  1  0.71694000  0.72916000  0.81454000  1.0 -0.6247500708
I  I15  1  0.58908000  0.21977000  0.81497000  1.0 -0.5988946712
I  I16  1  0.91462000  0.90240000  0.18546000  1.0 -0.6247500708
N  N1  1  0.04480000  0.55440000  0.01060000  1.0 -0.361526853
N  N2  1  0.16600000  0.66920000  0.19120000  1.0 -0.3109859458
N  N3  1  0.46130000  0.95840000  0.40990000  1.0 -0.3334492078
N  N4  1  0.96910000  0.48960000  0.64270000  1.0 -0.361526853
N  N5  1  0.54380000  0.03420000  0.98940000  1.0 -0.361526853
N  N6  1  0.47800000  0.97480000  0.80880000  1.0 -0.3109859458
N  N7  1  0.54850000  0.05140000  0.59010000  1.0 -0.3334492078
N  N8  1  0.84690000  0.32640000  0.35730000  1.0 -0.361526853
N  N9  1  0.44560000  0.95520000  0.98940000  1.0 -0.361526853
N  N10  1  0.33080000  0.83400000  0.80880000  1.0 -0.3109859458
N  N11  1  0.04160000  0.53870000  0.59010000  1.0 -0.3334492078
N  N12  1  0.51040000  0.03090000  0.35730000  1.0 -0.361526853
N  N13  1  0.96580000  0.45620000  0.01060000  1.0 -0.361526853
N  N14  1  0.02520000  0.52200000  0.19120000  1.0 -0.3109859458
N  N15  1  0.94860000  0.45150000  0.40990000  1.0 -0.3334492078
N  N16  1  0.67360000  0.15310000  0.64270000  1.0 -0.361526853
N  N17  1  0.14320000  0.64320000  0.28640000  1.0 -0.2975518933
N  N18  1  0.35680000  0.85680000  0.71360000  1.0 -0.2975518933
N  N19  1  0.85610000  0.35610000  0.50000000  1.0 -0.3183448469
N  N20  1  0.64390000  0.14390000  0.50000000  1.0 -0.3183448469
N  N21  1  0.78420000  0.29480000  0.99040000  1.0 -0.361526853
N  N22  1  0.72480000  0.41600000  0.99680000  1.0 -0.3109859458
N  N23  1  0.80140000  0.71130000  0.00290000  1.0 -0.3334492078
N  N24  1  0.07640000  0.21910000  0.97950000  1.0 -0.361526853
N  N25  1  0.30440000  0.79380000  0.00960000  1.0 -0.361526853
N  N26  1  0.41920000  0.72800000  0.00320000  1.0 -0.3109859458
N  N27  1  0.70840000  0.79850000  0.99710000  1.0 -0.3334492078
N  N28  1  0.23960000  0.09690000  0.02050000  1.0 -0.361526853
N  N29  1  0.20620000  0.69560000  0.99040000  1.0 -0.361526853
N  N30  1  0.27200000  0.58080000  0.99680000  1.0 -0.3109859458
N  N31  1  0.20150000  0.29160000  0.00290000  1.0 -0.3334492078
N  N32  1  0.90310000  0.76040000  0.97950000  1.0 -0.361526853
N  N33  1  0.70520000  0.21580000  0.00960000  1.0 -0.361526853
N  N34  1  0.58400000  0.27520000  0.00320000  1.0 -0.3109859458
N  N35  1  0.28870000  0.19860000  0.99710000  1.0 -0.3334492078
N  N36  1  0.78090000  0.92360000  0.02050000  1.0 -0.361526853
N  N37  1  0.60680000  0.39320000  0.00000000  1.0 -0.2975518933
N  N38  1  0.39320000  0.60680000  0.00000000  1.0 -0.2975518933
N  N39  1  0.10610000  0.10610000  0.00000000  1.0 -0.3183448469
N  N40  1  0.89390000  0.89390000  0.00000000  1.0 -0.3183448469
