# DDEC6 charges by PACMAN v1.1 (https://github.com/mtap-research/PACMAN-charge/)
data_OZEGUY_ASR_pacman
_symmetry_space_group_name_H-M   'P 1'
_cell_length_a   23.32770000
_cell_length_b   23.32770000
_cell_length_c   23.32770000
_cell_angle_alpha   120.51100000
_cell_angle_beta   120.51100000
_cell_angle_gamma   89.11780000
_symmetry_Int_Tables_number   1
_chemical_formula_structural   DyH20C25I2N5
_chemical_formula_sum   'Dy8 H160 C200 I16 N40'
_cell_volume   8905.84514304
_cell_formula_units_Z   8
loop_
 _symmetry_equiv_pos_site_id
 _symmetry_equiv_pos_as_xyz
  1  'x, y, z'
loop_
 _atom_site_type_symbol
 _atom_site_label
 _atom_site_symmetry_multiplicity
 _atom_site_fract_x
 _atom_site_fract_y
 _atom_site_fract_z
 _atom_site_occupancy
 _atom_site_charge
Dy  Dy1  1  0.06622000  0.56622000  0.13244000  1.0 1.4584624107
Dy  Dy2  1  0.43378000  0.93378000  0.86756000  1.0 1.4584624107
Dy  Dy3  1  0.93175000  0.43175000  0.50000000  1.0 1.4584624107
Dy  Dy4  1  0.56825000  0.06825000  0.50000000  1.0 1.4584624107
Dy  Dy5  1  0.68378000  0.31622000  0.00000000  1.0 1.4537623758
Dy  Dy6  1  0.31622000  0.68378000  0.00000000  1.0 1.4537623758
Dy  Dy7  1  0.18175000  0.18175000  0.00000000  1.0 1.4537623758
Dy  Dy8  1  0.81825000  0.81825000  0.00000000  1.0 1.4537623758
H  H1  1  0.13495000  0.54392000  0.02967000  1.0 0.0903918302
H  H2  1  0.12032000  0.73873000  0.20987000  1.0 0.0903918302
H  H3  1  0.23157000  0.61892000  0.18235000  1.0 0.0903918302
H  H4  1  0.21219000  0.83641000  0.28274000  1.0 0.1373630996
H  H5  1  0.94737000  0.56516000  0.96729000  1.0 0.1012992064
H  H6  1  0.39272000  0.99174000  0.35098000  1.0 0.1012992064
H  H7  1  0.32853000  0.71257000  0.25734000  1.0 0.1314505208
H  H8  1  0.41769000  0.81380000  0.38391000  1.0 0.1314505208
H  H9  1  0.87790000  0.50850000  0.62752000  1.0 0.1012992064
H  H10  1  0.90449000  0.53323000  0.74966000  1.0 0.119583359
H  H11  1  0.08982000  0.50095000  0.80485000  1.0 0.119583359
H  H12  1  0.06323000  0.47623000  0.68272000  1.0 0.1012992064
H  H13  1  0.11076000  0.52420000  0.91308000  1.0 0.119583359
H  H14  1  0.29371000  0.90382000  0.28441000  1.0 0.1314505208
H  H15  1  0.14983000  0.77147000  0.43816000  1.0 0.1314505208
H  H16  1  0.92141000  0.54297000  0.84992000  1.0 0.119583359
H  H17  1  0.51424000  0.90883000  0.45251000  1.0 0.1012992064
H  H18  1  0.08057000  0.69650000  0.29907000  1.0 0.1012992064
H  H19  1  0.92955000  0.32232000  0.55425000  1.0 0.1012992064
H  H20  1  0.85640000  0.23664000  0.53228000  1.0 0.1314505208
H  H21  1  0.51425000  0.10528000  0.97033000  1.0 0.0903918302
H  H22  1  0.52886000  0.91045000  0.79013000  1.0 0.0903918302
H  H23  1  0.43657000  0.04922000  0.81765000  1.0 0.0903918302
H  H24  1  0.55367000  0.92945000  0.71726000  1.0 0.1373630996
H  H25  1  0.59787000  0.98008000  0.03271000  1.0 0.1012992064
H  H26  1  0.64076000  0.04174000  0.64902000  1.0 0.1012992064
H  H27  1  0.45523000  0.07119000  0.74266000  1.0 0.1314505208
H  H28  1  0.42989000  0.03378000  0.61609000  1.0 0.1314505208
H  H29  1  0.88098000  0.25038000  0.37248000  1.0 0.1012992064
H  H30  1  0.78357000  0.15483000  0.25034000  1.0 0.119583359
H  H31  1  0.69610000  0.28497000  0.19515000  1.0 0.119583359
H  H32  1  0.79351000  0.38051000  0.31728000  1.0 0.1012992064
H  H33  1  0.61112000  0.19768000  0.08692000  1.0 0.119583359
H  H34  1  0.61941000  0.00930000  0.71559000  1.0 0.1314505208
H  H35  1  0.33333333  0.71167000  0.56184000  1.0 0.1314505208
H  H36  1  0.69305000  0.07149000  0.15008000  1.0 0.119583359
H  H37  1  0.45632000  0.06173000  0.54749000  1.0 0.1012992064
H  H38  1  0.39743000  0.78150000  0.70093000  1.0 0.1012992064
H  H39  1  0.76807000  0.37530000  0.44575000  1.0 0.1012992064
H  H40  1  0.70436000  0.32412000  0.46772000  1.0 0.1314505208
H  H41  1  0.45608000  0.86505000  0.97033000  1.0 0.0903918302
H  H42  1  0.26127000  0.87968000  0.79013000  1.0 0.0903918302
H  H43  1  0.38108000  0.76843000  0.81765000  1.0 0.0903918302
H  H44  1  0.16359000  0.78781000  0.71726000  1.0 0.1373630996
H  H45  1  0.43484000  0.05263000  0.03271000  1.0 0.1012992064
H  H46  1  0.00826000  0.60728000  0.64902000  1.0 0.1012992064
H  H47  1  0.28743000  0.67147000  0.74266000  1.0 0.1314505208
H  H48  1  0.18620000  0.58231000  0.61609000  1.0 0.1314505208
H  H49  1  0.49150000  0.12210000  0.37248000  1.0 0.1012992064
H  H50  1  0.46677000  0.09551000  0.25034000  1.0 0.119583359
H  H51  1  0.49905000  0.91018000  0.19515000  1.0 0.119583359
H  H52  1  0.52377000  0.93677000  0.31728000  1.0 0.1012992064
H  H53  1  0.47580000  0.88924000  0.08692000  1.0 0.119583359
H  H54  1  0.09618000  0.70629000  0.71559000  1.0 0.1314505208
H  H55  1  0.22853000  0.85017000  0.56184000  1.0 0.1314505208
H  H56  1  0.45703000  0.07859000  0.15008000  1.0 0.119583359
H  H57  1  0.09117000  0.48576000  0.54749000  1.0 0.1012992064
H  H58  1  0.30350000  0.91943000  0.70093000  1.0 0.1012992064
H  H59  1  0.67768000  0.07045000  0.44575000  1.0 0.1012992064
H  H60  1  0.76336000  0.14360000  0.46772000  1.0 0.1314505208
H  H61  1  0.89472000  0.48575000  0.02967000  1.0 0.0903918302
H  H62  1  0.08955000  0.47114000  0.20987000  1.0 0.0903918302
H  H63  1  0.95078000  0.56343000  0.18235000  1.0 0.0903918302
H  H64  1  0.07055000  0.44633000  0.28274000  1.0 0.1373630996
H  H65  1  0.01992000  0.40213000  0.96729000  1.0 0.1012992064
H  H66  1  0.95826000  0.35924000  0.35098000  1.0 0.1012992064
H  H67  1  0.92881000  0.54477000  0.25734000  1.0 0.1314505208
H  H68  1  0.96622000  0.57011000  0.38391000  1.0 0.1314505208
H  H69  1  0.74962000  0.11902000  0.62752000  1.0 0.1012992064
H  H70  1  0.84517000  0.21643000  0.74966000  1.0 0.119583359
H  H71  1  0.71503000  0.30390000  0.80485000  1.0 0.119583359
H  H72  1  0.61949000  0.20649000  0.68272000  1.0 0.1012992064
H  H73  1  0.80232000  0.38888000  0.91308000  1.0 0.119583359
H  H74  1  0.99070000  0.38059000  0.28441000  1.0 0.1314505208
H  H75  1  0.28833000  0.66666667  0.43816000  1.0 0.1314505208
H  H76  1  0.92851000  0.30695000  0.84992000  1.0 0.119583359
H  H77  1  0.93827000  0.54368000  0.45251000  1.0 0.1012992064
H  H78  1  0.21850000  0.60257000  0.29907000  1.0 0.1012992064
H  H79  1  0.62470000  0.23193000  0.55425000  1.0 0.1012992064
H  H80  1  0.67588000  0.29564000  0.53228000  1.0 0.1314505208
H  H81  1  0.85528000  0.38495000  0.09103000  1.0 0.0903918302
H  H82  1  0.66045000  0.37032000  0.88159000  1.0 0.0903918302
H  H83  1  0.79922000  0.48157000  0.11265000  1.0 0.0903918302
H  H84  1  0.67945000  0.46219000  0.87578000  1.0 0.1373630996
H  H85  1  0.73008000  0.19737000  0.88221000  1.0 0.1012992064
H  H86  1  0.79174000  0.64272000  0.90098000  1.0 0.1012992064
H  H87  1  0.82119000  0.57853000  0.11596000  1.0 0.1314505208
H  H88  1  0.78378000  0.66769000  0.10389000  1.0 0.1314505208
H  H89  1  0.00038000  0.12790000  0.86940000  1.0 0.1012992064
H  H90  1  0.90483000  0.15449000  0.87126000  1.0 0.119583359
H  H91  1  0.03497000  0.33982000  0.08887000  1.0 0.119583359
H  H92  1  0.13051000  0.31323000  0.08700000  1.0 0.1012992064
H  H93  1  0.94768000  0.36076000  0.08656000  1.0 0.119583359
H  H94  1  0.75930000  0.54371000  0.88989000  1.0 0.1314505208
H  H95  1  0.46167000  0.39983000  0.87836000  1.0 0.1314505208
H  H96  1  0.82149000  0.17141000  0.87844000  1.0 0.119583359
H  H97  1  0.81173000  0.76424000  0.10541000  1.0 0.1012992064
H  H98  1  0.53150000  0.33057000  0.88407000  1.0 0.1012992064
H  H99  1  0.12530000  0.17955000  0.10723000  1.0 0.1012992064
H  H100  1  0.07412000  0.10640000  0.11976000  1.0 0.1314505208
H  H101  1  0.29392000  0.76425000  0.90897000  1.0 0.0903918302
H  H102  1  0.48873000  0.77886000  0.11841000  1.0 0.0903918302
H  H103  1  0.36892000  0.68657000  0.88735000  1.0 0.0903918302
H  H104  1  0.58641000  0.80367000  0.12422000  1.0 0.1373630996
H  H105  1  0.31516000  0.84787000  0.11779000  1.0 0.1012992064
H  H106  1  0.74174000  0.89076000  0.09902000  1.0 0.1012992064
H  H107  1  0.46257000  0.70523000  0.88404000  1.0 0.1314505208
H  H108  1  0.56380000  0.67989000  0.89611000  1.0 0.1314505208
H  H109  1  0.25850000  0.13098000  0.13060000  1.0 0.1012992064
H  H110  1  0.28323000  0.03357000  0.12874000  1.0 0.119583359
H  H111  1  0.25095000  0.94610000  0.91113000  1.0 0.119583359
H  H112  1  0.22623000  0.04351000  0.91300000  1.0 0.1012992064
H  H113  1  0.27420000  0.86112000  0.91344000  1.0 0.119583359
H  H114  1  0.65382000  0.86941000  0.11011000  1.0 0.1314505208
H  H115  1  0.52147000  0.58331000  0.12164000  1.0 0.1314505208
H  H116  1  0.29297000  0.94305000  0.12156000  1.0 0.119583359
H  H117  1  0.65883000  0.70632000  0.89459000  1.0 0.1012992064
H  H118  1  0.44650000  0.64743000  0.11593000  1.0 0.1012992064
H  H119  1  0.07232000  0.01807000  0.89277000  1.0 0.1012992064
H  H120  1  0.98664000  0.95436000  0.88024000  1.0 0.1314505208
H  H121  1  0.23575000  0.70608000  0.09103000  1.0 0.0903918302
H  H122  1  0.22114000  0.51127000  0.88159000  1.0 0.0903918302
H  H123  1  0.31343000  0.63108000  0.11265000  1.0 0.0903918302
H  H124  1  0.19633000  0.41359000  0.87578000  1.0 0.1373630996
H  H125  1  0.15213000  0.68484000  0.88221000  1.0 0.1012992064
H  H126  1  0.10924000  0.25826000  0.90098000  1.0 0.1012992064
H  H127  1  0.29477000  0.53743000  0.11596000  1.0 0.1314505208
H  H128  1  0.32011000  0.43620000  0.10389000  1.0 0.1314505208
H  H129  1  0.86902000  0.74150000  0.86940000  1.0 0.1012992064
H  H130  1  0.96643000  0.71677000  0.87126000  1.0 0.119583359
H  H131  1  0.05390000  0.74905000  0.08887000  1.0 0.119583359
H  H132  1  0.95649000  0.77377000  0.08700000  1.0 0.1012992064
H  H133  1  0.13888000  0.72580000  0.08656000  1.0 0.119583359
H  H134  1  0.13059000  0.34618000  0.88989000  1.0 0.1314505208
H  H135  1  0.41669000  0.47853000  0.87836000  1.0 0.1314505208
H  H136  1  0.05695000  0.70703000  0.87844000  1.0 0.119583359
H  H137  1  0.29368000  0.34117000  0.10541000  1.0 0.1012992064
H  H138  1  0.35257000  0.55350000  0.88407000  1.0 0.1012992064
H  H139  1  0.98193000  0.92768000  0.10723000  1.0 0.1012992064
H  H140  1  0.04564000  0.01336000  0.11976000  1.0 0.1314505208
H  H141  1  0.61505000  0.14472000  0.90897000  1.0 0.0903918302
H  H142  1  0.62968000  0.33955000  0.11841000  1.0 0.0903918302
H  H143  1  0.51843000  0.20078000  0.88735000  1.0 0.0903918302
H  H144  1  0.53781000  0.32055000  0.12422000  1.0 0.1373630996
H  H145  1  0.80263000  0.26992000  0.11779000  1.0 0.1012992064
H  H146  1  0.35728000  0.20826000  0.09902000  1.0 0.1012992064
H  H147  1  0.42147000  0.17881000  0.88404000  1.0 0.1314505208
H  H148  1  0.33231000  0.21622000  0.89611000  1.0 0.1314505208
H  H149  1  0.87210000  0.99962000  0.13060000  1.0 0.1012992064
H  H150  1  0.84551000  0.09517000  0.12874000  1.0 0.119583359
H  H151  1  0.66018000  0.96503000  0.91113000  1.0 0.119583359
H  H152  1  0.68677000  0.86949000  0.91300000  1.0 0.1012992064
H  H153  1  0.63924000  0.05232000  0.91344000  1.0 0.119583359
H  H154  1  0.45629000  0.24070000  0.11011000  1.0 0.1314505208
H  H155  1  0.60017000  0.53833000  0.12164000  1.0 0.1314505208
H  H156  1  0.82859000  0.17851000  0.12156000  1.0 0.119583359
H  H157  1  0.23576000  0.18827000  0.89459000  1.0 0.1012992064
H  H158  1  0.66943000  0.46850000  0.11593000  1.0 0.1012992064
H  H159  1  0.82045000  0.87470000  0.89277000  1.0 0.1012992064
H  H160  1  0.89360000  0.92588000  0.88024000  1.0 0.1314505208
C  C1  1  0.09170000  0.54420000  0.99390000  1.0 0.0815669892
C  C2  1  0.01470000  0.53390000  0.86800000  1.0 0.1012992064
C  C3  1  0.16320000  0.73280000  0.22000000  1.0 0.0903918302
C  C4  1  0.34450000  0.84740000  0.32470000  1.0 0.119583359
C  C5  1  0.22790000  0.66380000  0.20470000  1.0 0.0537350672
C  C6  1  0.21830000  0.79250000  0.26360000  1.0 -0.2109127621
C  C7  1  0.28120000  0.78610000  0.27790000  1.0 0.1012992064
C  C8  1  0.98070000  0.55620000  0.95590000  1.0 0.0643962409
C  C9  1  0.39780000  0.95640000  0.35920000  1.0 0.1012992064
C  C10  1  0.28620000  0.71980000  0.24820000  1.0 -0.2005853452
C  C11  1  0.41120000  0.84960000  0.37660000  1.0 -0.1840709587
C  C12  1  0.92040000  0.50700000  0.66300000  1.0 0.0903918302
C  C13  1  0.93630000  0.52180000  0.73630000  1.0 -0.2109127621
C  C14  1  0.99980000  0.51960000  0.78940000  1.0 0.1012992064
C  C15  1  0.04740000  0.50250000  0.76930000  1.0 -0.2005853452
C  C16  1  0.03140000  0.48770000  0.69610000  1.0 0.0815669892
C  C17  1  0.07710000  0.53300000  0.92390000  1.0 -0.2005853452
C  C18  1  0.33780000  0.90280000  0.31720000  1.0 -0.2109127621
C  C19  1  0.16460000  0.73640000  0.41160000  1.0 -0.2005853452
C  C20  1  0.96530000  0.54430000  0.88640000  1.0 -0.1910223224
C  C21  1  0.46920000  0.90750000  0.41830000  1.0 0.1012992064
C  C22  1  0.12380000  0.69150000  0.32730000  1.0 0.0815669892
C  C23  1  0.88190000  0.31720000  0.52870000  1.0 0.0903918302
C  C24  1  0.83990000  0.26930000  0.52220000  1.0 -0.2109127621
C  C25  1  0.55030000  0.09780000  0.00610000  1.0 0.0815669892
C  C26  1  0.66590000  0.14670000  0.13200000  1.0 0.1012992064
C  C27  1  0.51280000  0.94320000  0.78000000  1.0 0.0903918302
C  C28  1  0.52270000  0.01980000  0.67530000  1.0 0.119583359
C  C29  1  0.45910000  0.02320000  0.79530000  1.0 0.0537350672
C  C30  1  0.52890000  0.95470000  0.73640000  1.0 -0.2109127621
C  C31  1  0.50820000  0.00330000  0.72210000  1.0 0.1012992064
C  C32  1  0.60030000  0.02480000  0.04410000  1.0 0.0643962409
C  C33  1  0.59720000  0.03860000  0.64080000  1.0 0.1012992064
C  C34  1  0.47160000  0.03800000  0.75180000  1.0 -0.2005853452
C  C35  1  0.47300000  0.03460000  0.62340000  1.0 -0.1840709587
C  C36  1  0.84400000  0.25740000  0.33700000  1.0 0.0903918302
C  C37  1  0.78550000  0.20000000  0.26370000  1.0 -0.2109127621
C  C38  1  0.73020000  0.21040000  0.21060000  1.0 0.1012992064
C  C39  1  0.73320000  0.27810000  0.23070000  1.0 -0.2005853452
C  C40  1  0.79160000  0.33530000  0.30390000  1.0 0.0815669892
C  C41  1  0.60910000  0.15320000  0.07610000  1.0 -0.2005853452
C  C42  1  0.58560000  0.02060000  0.68280000  1.0 -0.2109127621
C  C43  1  0.32480000  0.75300000  0.58840000  1.0 -0.2005853452
C  C44  1  0.65790000  0.07890000  0.11360000  1.0 -0.1910223224
C  C45  1  0.48920000  0.05090000  0.58170000  1.0 0.1012992064
C  C46  1  0.36420000  0.79650000  0.67270000  1.0 0.0815669892
C  C47  1  0.78850000  0.35320000  0.47130000  1.0 0.0903918302
C  C48  1  0.74710000  0.31770000  0.47780000  1.0 -0.2109127621
C  C49  1  0.45580000  0.90830000  0.00610000  1.0 0.0815669892
C  C50  1  0.46610000  0.98530000  0.13200000  1.0 0.1012992064
C  C51  1  0.26720000  0.83680000  0.78000000  1.0 0.0903918302
C  C52  1  0.15260000  0.65550000  0.67530000  1.0 0.119583359
C  C53  1  0.33620000  0.77210000  0.79530000  1.0 0.0537350672
C  C54  1  0.20750000  0.78170000  0.73640000  1.0 -0.2109127621
C  C55  1  0.21390000  0.71880000  0.72210000  1.0 0.1012992064
C  C56  1  0.44380000  0.01930000  0.04410000  1.0 0.0643962409
C  C57  1  0.04360000  0.60220000  0.64080000  1.0 0.1012992064
C  C58  1  0.28020000  0.71380000  0.75180000  1.0 -0.2005853452
C  C59  1  0.15040000  0.58880000  0.62340000  1.0 -0.1840709587
C  C60  1  0.49300000  0.07960000  0.33700000  1.0 0.0903918302
C  C61  1  0.47820000  0.06370000  0.26370000  1.0 -0.2109127621
C  C62  1  0.48040000  0.00020000  0.21060000  1.0 0.1012992064
C  C63  1  0.49750000  0.95260000  0.23070000  1.0 -0.2005853452
C  C64  1  0.51230000  0.96860000  0.30390000  1.0 0.0815669892
C  C65  1  0.46700000  0.92290000  0.07610000  1.0 -0.2005853452
C  C66  1  0.09720000  0.66220000  0.68280000  1.0 -0.2109127621
C  C67  1  0.26360000  0.83540000  0.58840000  1.0 -0.2005853452
C  C68  1  0.45570000  0.03470000  0.11360000  1.0 -0.1910223224
C  C69  1  0.09250000  0.53080000  0.58170000  1.0 0.1012992064
C  C70  1  0.30850000  0.87620000  0.67270000  1.0 0.0815669892
C  C71  1  0.68280000  0.11810000  0.47130000  1.0 0.0903918302
C  C72  1  0.73070000  0.16010000  0.47780000  1.0 -0.2109127621
C  C73  1  0.90220000  0.44970000  0.99390000  1.0 0.0815669892
C  C74  1  0.85330000  0.33410000  0.86800000  1.0 0.1012992064
C  C75  1  0.05680000  0.48720000  0.22000000  1.0 0.0903918302
C  C76  1  0.98020000  0.47730000  0.32470000  1.0 0.119583359
C  C77  1  0.97680000  0.54090000  0.20470000  1.0 0.0537350672
C  C78  1  0.04530000  0.47110000  0.26360000  1.0 -0.2109127621
C  C79  1  0.99670000  0.49180000  0.27790000  1.0 0.1012992064
C  C80  1  0.97520000  0.39970000  0.95590000  1.0 0.0643962409
C  C81  1  0.96140000  0.40280000  0.35920000  1.0 0.1012992064
C  C82  1  0.96200000  0.52840000  0.24820000  1.0 -0.2005853452
C  C83  1  0.96540000  0.52700000  0.37660000  1.0 -0.1840709587
C  C84  1  0.74260000  0.15600000  0.66300000  1.0 0.0903918302
C  C85  1  0.80000000  0.21450000  0.73630000  1.0 -0.2109127621
C  C86  1  0.78960000  0.26980000  0.78940000  1.0 0.1012992064
C  C87  1  0.72190000  0.26680000  0.76930000  1.0 -0.2005853452
C  C88  1  0.66470000  0.20840000  0.69610000  1.0 0.0815669892
C  C89  1  0.84680000  0.39090000  0.92390000  1.0 -0.2005853452
C  C90  1  0.97940000  0.41440000  0.31720000  1.0 -0.2109127621
C  C91  1  0.24700000  0.67520000  0.41160000  1.0 -0.2005853452
C  C92  1  0.92110000  0.34210000  0.88640000  1.0 -0.1910223224
C  C93  1  0.94910000  0.51080000  0.41830000  1.0 0.1012992064
C  C94  1  0.20350000  0.63580000  0.32730000  1.0 0.0815669892
C  C95  1  0.64680000  0.21150000  0.52870000  1.0 0.0903918302
C  C96  1  0.68230000  0.25290000  0.52220000  1.0 -0.2109127621
C  C97  1  0.22800000  0.72800000  0.45600000  1.0 0.1012992064
C  C98  1  0.27200000  0.77200000  0.54400000  1.0 0.1012992064
C  C99  1  0.77180000  0.27180000  0.50000000  1.0 0.0903918302
C  C100  1  0.72820000  0.22820000  0.50000000  1.0 0.0903918302
C  C101  1  0.84780000  0.34170000  0.04750000  1.0 0.0815669892
C  C102  1  0.89670000  0.26470000  0.98080000  1.0 0.1012992064
C  C103  1  0.69320000  0.41320000  0.93040000  1.0 0.0903918302
C  C104  1  0.76980000  0.59450000  0.99710000  1.0 0.1148218001
C  C105  1  0.77320000  0.47790000  0.06410000  1.0 0.0537350672
C  C106  1  0.70470000  0.46830000  0.92580000  1.0 -0.2109127621
C  C107  1  0.75330000  0.53120000  0.99510000  1.0 0.1012992064
C  C108  1  0.77480000  0.23070000  0.92450000  1.0 0.0643962409
C  C109  1  0.78860000  0.64780000  0.94140000  1.0 0.1012992064
C  C110  1  0.78800000  0.53620000  0.06640000  1.0 -0.2005853452
C  C111  1  0.78460000  0.66120000  0.06160000  1.0 -0.1840709587
C  C112  1  0.00740000  0.17040000  0.91340000  1.0 0.0903918302
C  C113  1  0.95000000  0.18630000  0.91450000  1.0 -0.2109127621
C  C114  1  0.96040000  0.24980000  0.98020000  1.0 0.1012992064
C  C115  1  0.02810000  0.29740000  0.04490000  1.0 -0.2005853452
C  C116  1  0.08530000  0.28140000  0.04370000  1.0 0.0815669892
C  C117  1  0.90320000  0.32710000  0.04410000  1.0 -0.2005853452
C  C118  1  0.77060000  0.58780000  0.93500000  1.0 -0.2109127621
C  C119  1  0.50300000  0.41460000  0.92820000  1.0 -0.2005853452
C  C120  1  0.82890000  0.21530000  0.92100000  1.0 -0.1910223224
C  C121  1  0.80090000  0.71920000  0.06170000  1.0 0.1012992064
C  C122  1  0.54650000  0.37380000  0.93230000  1.0 0.0815669892
C  C123  1  0.10320000  0.13190000  0.06470000  1.0 0.0903918302
C  C124  1  0.06770000  0.08990000  0.07060000  1.0 -0.2109127621
C  C125  1  0.29420000  0.80030000  0.95250000  1.0 0.0815669892
C  C126  1  0.28390000  0.91590000  0.01920000  1.0 0.1012992064
C  C127  1  0.48280000  0.76280000  0.06960000  1.0 0.0903918302
C  C128  1  0.59740000  0.77270000  0.00290000  1.0 0.119583359
C  C129  1  0.41380000  0.70910000  0.93590000  1.0 0.0537350672
C  C130  1  0.54250000  0.77890000  0.07420000  1.0 -0.2109127621
C  C131  1  0.53610000  0.75820000  0.00490000  1.0 0.1012992064
C  C132  1  0.30620000  0.85030000  0.07550000  1.0 0.0643962409
C  C133  1  0.70640000  0.84720000  0.05860000  1.0 0.1012992064
C  C134  1  0.46980000  0.72160000  0.93360000  1.0 -0.2005853452
C  C135  1  0.59960000  0.72300000  0.93840000  1.0 -0.1840709587
C  C136  1  0.25700000  0.09400000  0.08660000  1.0 0.0903918302
C  C137  1  0.27180000  0.03550000  0.08550000  1.0 -0.2109127621
C  C138  1  0.26960000  0.98020000  0.01980000  1.0 0.1012992064
C  C139  1  0.25250000  0.98320000  0.95510000  1.0 -0.2005853452
C  C140  1  0.23770000  0.04160000  0.95630000  1.0 0.0815669892
C  C141  1  0.28300000  0.85910000  0.95590000  1.0 -0.2005853452
C  C142  1  0.65280000  0.83560000  0.06500000  1.0 -0.2109127621
C  C143  1  0.48640000  0.57480000  0.07180000  1.0 -0.2005853452
C  C144  1  0.29430000  0.90790000  0.07900000  1.0 -0.1910223224
C  C145  1  0.65750000  0.73920000  0.93830000  1.0 0.1012992064
C  C146  1  0.44150000  0.61420000  0.06770000  1.0 0.0815669892
C  C147  1  0.06720000  0.03850000  0.93530000  1.0 0.0903918302
C  C148  1  0.01930000  0.99710000  0.92940000  1.0 -0.2109127621
C  C149  1  0.19970000  0.70580000  0.04750000  1.0 0.0815669892
C  C150  1  0.08410000  0.71610000  0.98080000  1.0 0.1012992064
C  C151  1  0.23720000  0.51720000  0.93040000  1.0 0.0903918302
C  C152  1  0.22730000  0.40260000  0.99710000  1.0 0.119583359
C  C153  1  0.29090000  0.58620000  0.06410000  1.0 0.0537350672
C  C154  1  0.22110000  0.45750000  0.92580000  1.0 -0.2109127621
C  C155  1  0.24180000  0.46390000  0.99510000  1.0 0.1012992064
C  C156  1  0.14970000  0.69380000  0.92450000  1.0 0.0643962409
C  C157  1  0.15280000  0.29360000  0.94140000  1.0 0.1012992064
C  C158  1  0.27840000  0.53020000  0.06640000  1.0 -0.2005853452
C  C159  1  0.27700000  0.40040000  0.06160000  1.0 -0.1840709587
C  C160  1  0.90600000  0.74300000  0.91340000  1.0 0.0903918302
C  C161  1  0.96450000  0.72820000  0.91450000  1.0 -0.2109127621
C  C162  1  0.01980000  0.73040000  0.98020000  1.0 0.1012992064
C  C163  1  0.01680000  0.74750000  0.04490000  1.0 -0.2005853452
C  C164  1  0.95840000  0.76230000  0.04370000  1.0 0.0815669892
C  C165  1  0.14090000  0.71700000  0.04410000  1.0 -0.2005853452
C  C166  1  0.16440000  0.34720000  0.93500000  1.0 -0.2109127621
C  C167  1  0.42520000  0.51360000  0.92820000  1.0 -0.2005853452
C  C168  1  0.09210000  0.70570000  0.92100000  1.0 -0.1910223224
C  C169  1  0.26080000  0.34250000  0.06170000  1.0 0.1012992064
C  C170  1  0.38580000  0.55850000  0.93230000  1.0 0.0815669892
C  C171  1  0.96150000  0.93280000  0.06470000  1.0 0.0903918302
C  C172  1  0.00290000  0.98070000  0.07060000  1.0 -0.2109127621
C  C173  1  0.65830000  0.15220000  0.95250000  1.0 0.0815669892
C  C174  1  0.73530000  0.10330000  0.01920000  1.0 0.1012992064
C  C175  1  0.58680000  0.30680000  0.06960000  1.0 0.0903918302
C  C176  1  0.40550000  0.23020000  0.00290000  1.0 0.119583359
C  C177  1  0.52210000  0.22680000  0.93590000  1.0 0.0537350672
C  C178  1  0.53170000  0.29530000  0.07420000  1.0 -0.2109127621
C  C179  1  0.46880000  0.24670000  0.00490000  1.0 0.1012992064
C  C180  1  0.76930000  0.22520000  0.07550000  1.0 0.0650090735
C  C181  1  0.35220000  0.21140000  0.05860000  1.0 0.1012992064
C  C182  1  0.46380000  0.21200000  0.93360000  1.0 -0.2005853452
C  C183  1  0.33880000  0.21540000  0.93840000  1.0 -0.1840709587
C  C184  1  0.82960000  0.99260000  0.08660000  1.0 0.0903918302
C  C185  1  0.81370000  0.05000000  0.08550000  1.0 -0.2109127621
C  C186  1  0.75020000  0.03960000  0.01980000  1.0 0.1012992064
C  C187  1  0.70260000  0.97190000  0.95510000  1.0 -0.2005853452
C  C188  1  0.71860000  0.91470000  0.95630000  1.0 0.0815669892
C  C189  1  0.67290000  0.09680000  0.95590000  1.0 -0.2005853452
C  C190  1  0.41220000  0.22940000  0.06500000  1.0 -0.2109127621
C  C191  1  0.58540000  0.49700000  0.07180000  1.0 -0.2005853452
C  C192  1  0.78470000  0.17110000  0.07900000  1.0 -0.1910223224
C  C193  1  0.28080000  0.19910000  0.93830000  1.0 0.1012992064
C  C194  1  0.62620000  0.45350000  0.06770000  1.0 0.0815669892
C  C195  1  0.86810000  0.89680000  0.93530000  1.0 0.0903918302
C  C196  1  0.91010000  0.93230000  0.92940000  1.0 -0.2109127621
C  C197  1  0.52200000  0.47800000  0.00000000  1.0 0.1012992064
C  C198  1  0.47800000  0.52200000  0.00000000  1.0 0.1012992064
C  C199  1  0.02180000  0.02180000  0.00000000  1.0 0.0903918302
C  C200  1  0.97820000  0.97820000  0.00000000  1.0 0.0903918302
I  I1  1  0.16161000  0.47680000  0.13165000  1.0 -0.6108012263
I  I2  1  0.83492000  0.52100000  0.48754000  1.0 -0.6298339357
I  I3  1  0.34515000  0.02996000  0.86835000  1.0 -0.6108012263
I  I4  1  0.03346000  0.34738000  0.51246000  1.0 -0.6298339357
I  I5  1  0.52320000  0.83839000  0.86835000  1.0 -0.6108012263
I  I6  1  0.47900000  0.16508000  0.51246000  1.0 -0.6298339357
I  I7  1  0.97004000  0.65485000  0.13165000  1.0 -0.6108012263
I  I8  1  0.65262000  0.96654000  0.48754000  1.0 -0.6298339357
I  I9  1  0.77996000  0.41161000  0.18481000  1.0 -0.6108012263
I  I10  1  0.09738000  0.08492000  0.81392000  1.0 -0.6298339357
I  I11  1  0.22680000  0.59515000  0.81519000  1.0 -0.6108012263
I  I12  1  0.27100000  0.28346000  0.18608000  1.0 -0.6298339357
I  I13  1  0.40485000  0.77320000  0.18481000  1.0 -0.6108012263
I  I14  1  0.71654000  0.72900000  0.81392000  1.0 -0.6298339357
I  I15  1  0.58839000  0.22004000  0.81519000  1.0 -0.6108012263
I  I16  1  0.91508000  0.90262000  0.18608000  1.0 -0.6298339357
N  N1  1  0.04450000  0.55570000  0.01240000  1.0 -0.4000061755
N  N2  1  0.16620000  0.67000000  0.19240000  1.0 -0.305427051
N  N3  1  0.46190000  0.96090000  0.41040000  1.0 -0.3340218855
N  N4  1  0.96790000  0.48990000  0.64300000  1.0 -0.4000061755
N  N5  1  0.54330000  0.03210000  0.98760000  1.0 -0.3932314537
N  N6  1  0.47760000  0.97380000  0.80760000  1.0 -0.305427051
N  N7  1  0.55050000  0.05150000  0.58960000  1.0 -0.3340218855
N  N8  1  0.84690000  0.32490000  0.35700000  1.0 -0.4000061755
N  N9  1  0.44430000  0.95550000  0.98760000  1.0 -0.4000061755
N  N10  1  0.33000000  0.83380000  0.80760000  1.0 -0.305427051
N  N11  1  0.03910000  0.53810000  0.58960000  1.0 -0.335259444
N  N12  1  0.51010000  0.03210000  0.35700000  1.0 -0.4000061755
N  N13  1  0.96790000  0.45670000  0.01240000  1.0 -0.3932314537
N  N14  1  0.02620000  0.52240000  0.19240000  1.0 -0.305427051
N  N15  1  0.94850000  0.44950000  0.41040000  1.0 -0.3340218855
N  N16  1  0.67510000  0.15310000  0.64300000  1.0 -0.4000061755
N  N17  1  0.14140000  0.64140000  0.28280000  1.0 -0.3525012945
N  N18  1  0.35860000  0.85860000  0.71720000  1.0 -0.3525012945
N  N19  1  0.85750000  0.35750000  0.50000000  1.0 -0.383308576
N  N20  1  0.64250000  0.14250000  0.50000000  1.0 -0.3932314537
N  N21  1  0.78210000  0.29450000  0.98880000  1.0 -0.3932314537
N  N22  1  0.72380000  0.41620000  0.99620000  1.0 -0.3041159426
N  N23  1  0.80150000  0.71190000  0.00100000  1.0 -0.3340218855
N  N24  1  0.07490000  0.21790000  0.97800000  1.0 -0.4000061755
N  N25  1  0.30570000  0.79330000  0.01120000  1.0 -0.3932314537
N  N26  1  0.42000000  0.72760000  0.00380000  1.0 -0.3041159426
N  N27  1  0.71090000  0.80050000  0.99900000  1.0 -0.3340218855
N  N28  1  0.23990000  0.09690000  0.02200000  1.0 -0.4000061755
N  N29  1  0.20670000  0.69430000  0.98880000  1.0 -0.3932314537
N  N30  1  0.27240000  0.58000000  0.99620000  1.0 -0.3041159426
N  N31  1  0.19950000  0.28910000  0.00100000  1.0 -0.3340218855
N  N32  1  0.90310000  0.76010000  0.97800000  1.0 -0.4000061755
N  N33  1  0.70550000  0.21790000  0.01120000  1.0 -0.3932314537
N  N34  1  0.58380000  0.27620000  0.00380000  1.0 -0.3041159426
N  N35  1  0.28810000  0.19850000  0.99900000  1.0 -0.3340218855
N  N36  1  0.78210000  0.92510000  0.02200000  1.0 -0.4000061755
N  N37  1  0.60860000  0.39140000  0.00000000  1.0 -0.3525012945
N  N38  1  0.39140000  0.60860000  0.00000000  1.0 -0.3525012945
N  N39  1  0.10750000  0.10750000  0.00000000  1.0 -0.383308576
N  N40  1  0.89250000  0.89250000  0.00000000  1.0 -0.383308576
