# DDEC6 charges by PACMAN v1.1 (https://github.com/mtap-research/PACMAN-charge/)
data_PAFPOF_ASR_pacman
_symmetry_space_group_name_H-M   'P 1'
_cell_length_a   14.53560000
_cell_length_b   15.89890000
_cell_length_c   17.25540000
_cell_angle_alpha   112.54700000
_cell_angle_beta   111.54500000
_cell_angle_gamma   95.78700000
_symmetry_Int_Tables_number   1
_chemical_formula_structural   Cd2H25C40(NO6)2
_chemical_formula_sum   'Cd4 H50 C80 N4 O24'
_cell_volume   3287.27441503
_cell_formula_units_Z   2
loop_
 _symmetry_equiv_pos_site_id
 _symmetry_equiv_pos_as_xyz
  1  'x, y, z'
loop_
 _atom_site_type_symbol
 _atom_site_label
 _atom_site_symmetry_multiplicity
 _atom_site_fract_x
 _atom_site_fract_y
 _atom_site_fract_z
 _atom_site_occupancy
 _atom_site_charge
Cd  Cd1  1  0.23769000  0.57791000  0.88884000  1.0 0.964015579
Cd  Cd2  1  0.17057000  0.33848000  0.81356000  1.0 0.9411159215
Cd  Cd3  1  0.76231000  0.42209000  0.11116000  1.0 0.964015579
Cd  Cd4  1  0.82943000  0.66152000  0.18644000  1.0 0.9411159215
H  H1  1  0.49050000  0.18560000  0.22970000  1.0 0.1200089397
H  H2  1  0.31440000  0.01980000  0.23630000  1.0 0.1277793214
H  H3  1  0.24700000  0.86250000  0.12510000  1.0 0.1277793214
H  H4  1  0.43700000  0.90150000  0.01560000  1.0 0.1200089397
H  H5  1  0.50320000  0.06070000  0.12510000  1.0 0.1200089397
H  H6  1  0.57770000  0.42300000  0.51310000  1.0 0.1111683858
H  H7  1  0.73590000  0.27180000  0.48790000  1.0 0.1200089397
H  H8  1  0.90230000  0.30450000  0.59810000  1.0 0.1200089397
H  H9  1  0.89360000  0.56760000  0.74560000  1.0 0.1200089397
H  H10  1  0.72780000  0.53360000  0.63730000  1.0 0.1111683858
H  H11  1  0.31260000  0.31640000  0.24860000  1.0 0.1111683858
H  H12  1  0.20440000  0.34530000  0.13960000  1.0 0.1200089397
H  H13  1  0.18030000  0.41300000  0.03900000  1.0 0.1200089397
H  H14  1  0.48140000  0.50870000  0.12690000  1.0 0.1277793214
H  H15  1  0.51470000  0.44720000  0.23710000  1.0 0.1008955893
H  H16  1  0.42320000  0.23590000  0.44950000  1.0 0.1277793214
H  H17  1  0.38500000  0.46050000  0.53390000  1.0 0.1111683858
H  H18  1  0.32570000  0.52680000  0.64460000  1.0 0.1277793214
H  H19  1  0.30170000  0.29070000  0.67420000  1.0 0.1277793214
H  H20  1  0.35890000  0.22190000  0.56290000  1.0 0.1200089397
H  H21  1  0.13100000  0.17690000  0.88040000  1.0 0.1200089397
H  H22  1  0.15140000  0.08600000  0.96130000  1.0 0.1200089397
H  H23  1  0.31530000  0.08950000  0.05420000  1.0 0.1008955893
H  H24  1  0.45790000  0.18130000  0.06680000  1.0 0.1277793214
H  H25  1  0.42310000  0.36800000  0.89980000  1.0 0.1111683858
H  H26  1  0.50950000  0.81440000  0.77030000  1.0 0.1200089397
H  H27  1  0.68560000  0.98020000  0.76370000  1.0 0.1277793214
H  H28  1  0.75300000  0.13750000  0.87490000  1.0 0.1277793214
H  H29  1  0.56300000  0.09850000  0.98440000  1.0 0.1200089397
H  H30  1  0.49680000  0.93930000  0.87490000  1.0 0.1200089397
H  H31  1  0.42230000  0.57700000  0.48690000  1.0 0.1111683858
H  H32  1  0.26410000  0.72820000  0.51210000  1.0 0.1200089397
H  H33  1  0.09770000  0.69550000  0.40190000  1.0 0.1200089397
H  H34  1  0.10640000  0.43240000  0.25440000  1.0 0.1200089397
H  H35  1  0.27220000  0.46640000  0.36270000  1.0 0.1111683858
H  H36  1  0.68740000  0.68360000  0.75140000  1.0 0.1111683858
H  H37  1  0.79560000  0.65470000  0.86040000  1.0 0.1200089397
H  H38  1  0.81970000  0.58700000  0.96100000  1.0 0.1200089397
H  H39  1  0.51860000  0.49130000  0.87310000  1.0 0.1277793214
H  H40  1  0.48530000  0.55280000  0.76290000  1.0 0.1008955893
H  H41  1  0.57680000  0.76410000  0.55050000  1.0 0.1277793214
H  H42  1  0.61500000  0.53950000  0.46610000  1.0 0.1111683858
H  H43  1  0.67430000  0.47320000  0.35540000  1.0 0.1277793214
H  H44  1  0.69830000  0.70930000  0.32580000  1.0 0.1277793214
H  H45  1  0.64110000  0.77810000  0.43710000  1.0 0.1200089397
H  H46  1  0.86900000  0.82310000  0.11960000  1.0 0.1200089397
H  H47  1  0.84860000  0.91400000  0.03870000  1.0 0.1200089397
H  H48  1  0.68470000  0.91050000  0.94580000  1.0 0.1008955893
H  H49  1  0.54210000  0.81870000  0.93320000  1.0 0.1277793214
H  H50  1  0.57690000  0.63200000  0.10020000  1.0 0.1111683858
C  C1  1  0.46520000  0.29110000  0.36130000  1.0 0.5521554408
C  C2  1  0.45320000  0.14770000  0.24400000  1.0 -0.0145905203
C  C3  1  0.41640000  0.05530000  0.19240000  1.0 0.0540587438
C  C4  1  0.33910000  0.99620000  0.19190000  1.0 -0.1209389268
C  C5  1  0.29880000  0.90220000  0.12540000  1.0 -0.0923221849
C  C6  1  0.33520000  0.86740000  0.05960000  1.0 0.008939081
C  C7  1  0.41200000  0.92570000  0.05970000  1.0 -0.0923221849
C  C8  1  0.45240000  0.02070000  0.12570000  1.0 -0.1816923461
C  C9  1  0.29860000  0.75960000  0.99250000  1.0 0.5423590598
C  C10  1  0.61880000  0.38790000  0.49240000  1.0 -0.0923221849
C  C11  1  0.71400000  0.39910000  0.55120000  1.0 0.0766600427
C  C12  1  0.76740000  0.33100000  0.53990000  1.0 -0.1388996186
C  C13  1  0.86750000  0.35090000  0.60600000  1.0 -0.0819587706
C  C14  1  0.91630000  0.43920000  0.68350000  1.0 -0.059836326
C  C15  1  0.86210000  0.50790000  0.69420000  1.0 -0.0709437969
C  C16  1  0.76290000  0.48750000  0.62920000  1.0 -0.1816923461
C  C17  1  0.02140000  0.44720000  0.73980000  1.0 0.5625916479
C  C18  1  0.37100000  0.34450000  0.24730000  1.0 -0.0502286689
C  C19  1  0.36540000  0.38420000  0.19670000  1.0 0.0766600427
C  C20  1  0.26040000  0.37690000  0.13770000  1.0 -0.1816923461
C  C21  1  0.24700000  0.41850000  0.07890000  1.0 -0.0819587706
C  C22  1  0.32810000  0.46750000  0.07730000  1.0 -0.0502286689
C  C23  1  0.42750000  0.47720000  0.13140000  1.0 -0.0709437969
C  C24  1  0.44730000  0.43750000  0.19580000  1.0 -0.1209389268
C  C25  1  0.30750000  0.50790000  0.01380000  1.0 0.5313975868
C  C26  1  0.40810000  0.29390000  0.46410000  1.0 -0.0502286689
C  C27  1  0.37580000  0.33520000  0.53660000  1.0 0.0911092145
C  C28  1  0.36750000  0.42580000  0.56180000  1.0 -0.1308737787
C  C29  1  0.33310000  0.46580000  0.62890000  1.0 -0.1120302285
C  C30  1  0.30980000  0.41590000  0.67260000  1.0 -0.0145905203
C  C31  1  0.31880000  0.32520000  0.64600000  1.0 -0.1032838913
C  C32  1  0.35230000  0.28310000  0.57910000  1.0 -0.1484512108
C  C33  1  0.28270000  0.45990000  0.75350000  1.0 0.569817668
C  C34  1  0.28280000  0.23300000  0.92530000  1.0 0.0911092145
C  C35  1  0.19660000  0.17780000  0.91760000  1.0 -0.1738049852
C  C36  1  0.20890000  0.12330000  0.96630000  1.0 -0.1120302285
C  C37  1  0.30700000  0.12540000  0.02170000  1.0 -0.1209389268
C  C38  1  0.39240000  0.18040000  0.02910000  1.0 -0.1738049852
C  C39  1  0.38190000  0.23440000  0.98110000  1.0 0.1716315953
C  C40  1  0.39310000  0.32520000  0.91420000  1.0 0.1954320428
C  C41  1  0.53480000  0.70890000  0.63870000  1.0 0.5521554408
C  C42  1  0.54680000  0.85230000  0.75600000  1.0 -0.0155827644
C  C43  1  0.58360000  0.94470000  0.80760000  1.0 0.0540587438
C  C44  1  0.66090000  0.00380000  0.80810000  1.0 -0.1209389268
C  C45  1  0.70120000  0.09780000  0.87460000  1.0 -0.0923221849
C  C46  1  0.66480000  0.13260000  0.94040000  1.0 0.008939081
C  C47  1  0.58800000  0.07430000  0.94030000  1.0 -0.0923221849
C  C48  1  0.54760000  0.97930000  0.87430000  1.0 -0.1816923461
C  C49  1  0.70140000  0.24040000  0.00750000  1.0 0.5423590598
C  C50  1  0.38120000  0.61210000  0.50760000  1.0 -0.0923221849
C  C51  1  0.28600000  0.60090000  0.44880000  1.0 0.0766600427
C  C52  1  0.23260000  0.66900000  0.46010000  1.0 -0.1388996186
C  C53  1  0.13250000  0.64910000  0.39400000  1.0 -0.0819587706
C  C54  1  0.08370000  0.56080000  0.31650000  1.0 -0.059836326
C  C55  1  0.13790000  0.49210000  0.30580000  1.0 -0.0709437969
C  C56  1  0.23710000  0.51250000  0.37080000  1.0 -0.1816923461
C  C57  1  0.97860000  0.55280000  0.26020000  1.0 0.5625916479
C  C58  1  0.62900000  0.65550000  0.75270000  1.0 -0.0502286689
C  C59  1  0.63460000  0.61580000  0.80330000  1.0 0.0766600427
C  C60  1  0.73960000  0.62310000  0.86230000  1.0 -0.1816923461
C  C61  1  0.75300000  0.58150000  0.92110000  1.0 -0.0819587706
C  C62  1  0.67190000  0.53250000  0.92270000  1.0 -0.0502286689
C  C63  1  0.57250000  0.52280000  0.86860000  1.0 -0.0709437969
C  C64  1  0.55270000  0.56250000  0.80420000  1.0 -0.1209389268
C  C65  1  0.69250000  0.49210000  0.98620000  1.0 0.5313975868
C  C66  1  0.59190000  0.70610000  0.53590000  1.0 -0.0502286689
C  C67  1  0.62420000  0.66480000  0.46340000  1.0 0.0911092145
C  C68  1  0.63250000  0.57420000  0.43820000  1.0 -0.1308737787
C  C69  1  0.66690000  0.53420000  0.37110000  1.0 -0.1120302285
C  C70  1  0.69020000  0.58410000  0.32740000  1.0 -0.0145905203
C  C71  1  0.68120000  0.67480000  0.35400000  1.0 -0.1032838913
C  C72  1  0.64770000  0.71690000  0.42090000  1.0 -0.1484512108
C  C73  1  0.71730000  0.54010000  0.24650000  1.0 0.569817668
C  C74  1  0.71720000  0.76700000  0.07470000  1.0 0.0911092145
C  C75  1  0.80340000  0.82220000  0.08240000  1.0 -0.1738049852
C  C76  1  0.79110000  0.87670000  0.03370000  1.0 -0.1120302285
C  C77  1  0.69300000  0.87460000  0.97830000  1.0 -0.1209389268
C  C78  1  0.60760000  0.81960000  0.97090000  1.0 -0.1738049852
C  C79  1  0.61810000  0.76560000  0.01890000  1.0 0.1716315953
C  C80  1  0.60690000  0.67480000  0.08580000  1.0 0.1954320428
N  N1  1  0.29240000  0.29310000  0.88400000  1.0 -0.4112440886
N  N2  1  0.44690000  0.28710000  0.96910000  1.0 -0.2961249294
N  N3  1  0.70760000  0.70690000  0.11600000  1.0 -0.4112440886
N  N4  1  0.55310000  0.71290000  0.03090000  1.0 -0.2961249294
O  O1  1  0.43340000  0.18490000  0.32030000  1.0 -0.20279547
O  O2  1  0.21790000  0.70820000  0.98400000  1.0 -0.5388759317
O  O3  1  0.35060000  0.72490000  0.95300000  1.0 -0.5084384026
O  O4  1  0.57960000  0.31850000  0.39350000  1.0 -0.1209389268
O  O5  1  0.07000000  0.53890000  0.80670000  1.0 -0.5716300252
O  O6  1  0.06460000  0.39000000  0.73160000  1.0 -0.4921484681
O  O7  1  0.47420000  0.34410000  0.30490000  1.0 -0.1634618583
O  O8  1  0.37430000  0.56610000  0.02140000  1.0 -0.4328018668
O  O9  1  0.21970000  0.48340000  0.95150000  1.0 -0.5048094931
O  O10  1  0.41510000  0.34830000  0.41710000  1.0 -0.2683332357
O  O11  1  0.26090000  0.53720000  0.76860000  1.0 -0.4921484681
O  O12  1  0.29260000  0.41140000  0.79840000  1.0 -0.5716300252
O  O13  1  0.56660000  0.81510000  0.67970000  1.0 -0.20279547
O  O14  1  0.78210000  0.29180000  0.01600000  1.0 -0.5388759317
O  O15  1  0.64940000  0.27510000  0.04700000  1.0 -0.5084384026
O  O16  1  0.42040000  0.68150000  0.60650000  1.0 -0.1209389268
O  O17  1  0.93000000  0.46110000  0.19330000  1.0 -0.5716300252
O  O18  1  0.93540000  0.61000000  0.26840000  1.0 -0.4921484681
O  O19  1  0.52580000  0.65590000  0.69510000  1.0 -0.1634618583
O  O20  1  0.62570000  0.43390000  0.97860000  1.0 -0.4328018668
O  O21  1  0.78030000  0.51660000  0.04850000  1.0 -0.5084384026
O  O22  1  0.58490000  0.65170000  0.58290000  1.0 -0.2683332357
O  O23  1  0.73910000  0.46280000  0.23140000  1.0 -0.4921484681
O  O24  1  0.70740000  0.58860000  0.20160000  1.0 -0.5716300252
