# DDEC6 charges by PACMAN v1.1 (https://github.com/mtap-research/PACMAN-charge/)
data_PAFWAY_ASR_pacman
_symmetry_space_group_name_H-M   'P 1'
_cell_length_a   12.99670000
_cell_length_b   19.34930000
_cell_length_c   21.34350000
_cell_angle_alpha   93.40900000
_cell_angle_beta   94.78400000
_cell_angle_gamma   103.41600000
_symmetry_Int_Tables_number   1
_chemical_formula_structural   H88Pb4C111N14O17
_chemical_formula_sum   'H176 Pb8 C222 N28 O34'
_cell_volume   5185.51521040
_cell_formula_units_Z   2
loop_
 _symmetry_equiv_pos_site_id
 _symmetry_equiv_pos_as_xyz
  1  'x, y, z'
loop_
 _atom_site_type_symbol
 _atom_site_label
 _atom_site_symmetry_multiplicity
 _atom_site_fract_x
 _atom_site_fract_y
 _atom_site_fract_z
 _atom_site_occupancy
 _atom_site_charge
H  H1  1  0.93580000  0.26440000  0.05160000  1.0 0.109933253
H  H2  1  0.89040000  0.36240000  0.21480000  1.0 0.1288865923
H  H3  1  0.86940000  0.25540000  0.26160000  1.0 0.1196146279
H  H4  1  0.91480000  0.15750000  0.09840000  1.0 0.1196146279
H  H5  1  0.95720000  0.12010000  0.22310000  1.0 0.1288865923
H  H6  1  0.86490000  0.13590000  0.26040000  1.0 0.1196146279
H  H7  1  0.98370000  0.04480000  0.12070000  1.0 0.1288865923
H  H8  1  0.97660000  0.94750000  0.05480000  1.0 0.109933253
H  H9  1  0.82190000  0.86330000  0.03460000  1.0 0.109933253
H  H10  1  0.67290000  0.86610000  0.08090000  1.0 0.1288865923
H  H11  1  0.65900000  0.12780000  0.23490000  1.0 0.1288865923
H  H12  1  0.68810000  0.07690000  0.28450000  1.0 0.1288865923
H  H13  1  0.74460000  0.34200000  0.38480000  1.0 0.1372054611
H  H14  1  0.60080000  0.25980000  0.40610000  1.0 0.109933253
H  H15  1  0.76620000  0.11850000  0.42710000  1.0 0.1196146279
H  H16  1  0.91920000  0.19780000  0.39910000  1.0 0.1196146279
H  H17  1  0.56770000  0.13180000  0.47860000  1.0 0.1288865923
H  H18  1  0.51150000  0.14200000  0.41320000  1.0 0.1196146279
H  H19  1  0.64940000  0.05170000  0.53580000  1.0 0.1288865923
H  H20  1  0.62420000  0.84970000  0.40140000  1.0 0.1288865923
H  H21  1  0.68990000  0.85310000  0.50620000  1.0 0.109933253
H  H22  1  0.70250000  0.95420000  0.57340000  1.0 0.109933253
H  H23  1  0.52060000  0.11190000  0.31100000  1.0 0.1196146279
H  H24  1  0.42360000  0.04560000  0.29800000  1.0 0.1288865923
H  H25  1  0.30820000  0.29970000  0.12030000  1.0 0.1196146279
H  H26  1  0.35650000  0.21100000  0.07060000  1.0 0.1480972153
H  H27  1  0.20550000  0.06720000  0.17260000  1.0 0.1288865923
H  H28  1  0.14640000  0.15430000  0.22470000  1.0 0.1288865923
H  H29  1  0.25910000  0.05650000  0.03860000  1.0 0.109933253
H  H30  1  0.38020000  0.08900000  0.05900000  1.0 0.1196146279
H  H31  1  0.23610000  0.80480000  0.19150000  1.0 0.1288865923
H  H32  1  0.08330000  0.76340000  0.11050000  1.0 0.1004162284
H  H33  1  0.06360000  0.83700000  0.02120000  1.0 0.109933253
H  H34  1  0.15440000  0.95050000  0.02740000  1.0 0.1372054611
H  H35  1  0.45860000  0.10370000  0.20030000  1.0 0.1196146279
H  H36  1  0.52690000  0.07050000  0.15530000  1.0 0.1196146279
H  H37  1  0.27840000  0.54040000  0.95090000  1.0 0.109933253
H  H38  1  0.37700000  0.49000000  0.88350000  1.0 0.1196146279
H  H39  1  0.64690000  0.61080000  0.97590000  1.0 0.1004162284
H  H40  1  0.54830000  0.66120000  0.04330000  1.0 0.1196146279
H  H41  1  0.34540000  0.60910000  0.08280000  1.0 0.1196146279
H  H42  1  0.27410000  0.62640000  0.02610000  1.0 0.1288865923
H  H43  1  0.31980000  0.72870000  0.93620000  1.0 0.1372054611
H  H44  1  0.33890000  0.83670000  0.89490000  1.0 0.1196146279
H  H45  1  0.40700000  0.93400000  0.95690000  1.0 0.1196146279
H  H46  1  0.48210000  0.93830000  0.05770000  1.0 0.1288865923
H  H47  1  0.44620000  0.65610000  0.16390000  1.0 0.1288865923
H  H48  1  0.37040000  0.69610000  0.19660000  1.0 0.1372054611
H  H49  1  0.34450000  0.61110000  0.34890000  1.0 0.109933253
H  H50  1  0.30930000  0.63660000  0.41280000  1.0 0.1196146279
H  H51  1  0.21040000  0.71390000  0.44720000  1.0 0.1288865923
H  H52  1  0.11450000  0.80560000  0.44340000  1.0 0.1196146279
H  H53  1  0.14180000  0.89740000  0.38120000  1.0 0.1196146279
H  H54  1  0.27720000  0.90100000  0.31690000  1.0 0.1288865923
H  H55  1  0.49480000  0.66550000  0.28760000  1.0 0.1372054611
H  H56  1  0.57440000  0.73580000  0.31750000  1.0 0.1288865923
H  H57  1  0.03950000  0.86820000  0.24010000  1.0 0.1288865923
H  H58  1  0.09160000  0.98010000  0.28030000  1.0 0.1288865923
H  H59  1  0.98250000  0.04030000  0.32320000  1.0 0.1196146279
H  H60  1  0.81160000  0.98870000  0.31910000  1.0 0.1372054611
H  H61  1  0.62310000  0.72550000  0.16210000  1.0 0.1288865923
H  H62  1  0.64110000  0.68760000  0.22340000  1.0 0.1372054611
H  H63  1  0.46170000  0.71850000  0.48170000  1.0 0.1004162284
H  H64  1  0.58050000  0.70740000  0.56560000  1.0 0.1004162284
H  H65  1  0.65260000  0.54400000  0.46780000  1.0 0.0889273142
H  H66  1  0.53380000  0.55510000  0.38380000  1.0 0.109933253
H  H67  1  0.92830000  0.73870000  0.24490000  1.0 0.0818703837
H  H68  1  0.81090000  0.69580000  0.24770000  1.0 0.109933253
H  H69  1  0.88250000  0.54850000  0.08880000  1.0 0.0818703837
H  H70  1  0.88120000  0.60180000  0.18900000  1.0 0.0889273142
H  H71  1  0.83210000  0.77790000  0.11290000  1.0 0.1004162284
H  H72  1  0.83340000  0.72460000  0.01280000  1.0 0.0889273142
H  H73  1  0.36700000  0.61350000  0.34910000  1.0 0.1196146279
H  H74  1  0.29770000  0.62980000  0.40220000  1.0 0.109933253
H  H75  1  0.62850000  0.73790000  0.54400000  1.0 0.0818703837
H  H76  1  0.57020000  0.52940000  0.48790000  1.0 0.0889273142
H  H77  1  0.43810000  0.54250000  0.41250000  1.0 0.1004162284
H  H78  1  0.49650000  0.75100000  0.46860000  1.0 0.0889273142
H  H79  1  0.06650000  0.53770000  0.20980000  1.0 0.1567361337
H  H80  1  0.17450000  0.58410000  0.20830000  1.0 0.1871555281
H  H81  1  0.00000000  0.75620000  0.27330000  1.0 0.1004162284
H  H82  1  0.82840000  0.60490000  0.14400000  1.0 0.0889273142
H  H83  1  0.91390000  0.52250000  0.18530000  1.0 0.109933253
H  H84  1  0.08550000  0.67380000  0.31460000  1.0 0.1196146279
H  H85  1  0.80220000  0.71280000  0.13950000  1.0 0.109933253
H  H86  1  0.91550000  0.76530000  0.14460000  1.0 0.1004162284
H  H87  1  0.92530000  0.64070000  0.94030000  1.0 0.2209453714
H  H88  1  0.84810000  0.67750000  0.90170000  1.0 0.2857810688
H  H89  1  0.06420000  0.73560000  0.94840000  1.0 0.109933253
H  H90  1  0.10960000  0.63760000  0.78520000  1.0 0.1288865923
H  H91  1  0.13060000  0.74460000  0.73840000  1.0 0.1196146279
H  H92  1  0.08520000  0.84250000  0.90160000  1.0 0.1196146279
H  H93  1  0.04280000  0.87990000  0.77690000  1.0 0.1288865923
H  H94  1  0.13510000  0.86410000  0.73960000  1.0 0.1196146279
H  H95  1  0.01630000  0.95520000  0.87930000  1.0 0.1288865923
H  H96  1  0.02340000  0.05250000  0.94520000  1.0 0.109933253
H  H97  1  0.17810000  0.13670000  0.96540000  1.0 0.109933253
H  H98  1  0.32710000  0.13390000  0.91910000  1.0 0.1288865923
H  H99  1  0.34100000  0.87220000  0.76510000  1.0 0.1288865923
H  H100  1  0.31190000  0.92310000  0.71550000  1.0 0.1288865923
H  H101  1  0.25540000  0.65800000  0.61520000  1.0 0.1372054611
H  H102  1  0.39920000  0.74020000  0.59390000  1.0 0.109933253
H  H103  1  0.23380000  0.88150000  0.57290000  1.0 0.1196146279
H  H104  1  0.08080000  0.80220000  0.60090000  1.0 0.1196146279
H  H105  1  0.43230000  0.86820000  0.52140000  1.0 0.1288865923
H  H106  1  0.48850000  0.85800000  0.58680000  1.0 0.1196146279
H  H107  1  0.35060000  0.94830000  0.46420000  1.0 0.1196146279
H  H108  1  0.37580000  0.15030000  0.59860000  1.0 0.1288865923
H  H109  1  0.31010000  0.14690000  0.49380000  1.0 0.109933253
H  H110  1  0.29750000  0.04580000  0.42660000  1.0 0.109933253
H  H111  1  0.47940000  0.88810000  0.68900000  1.0 0.1196146279
H  H112  1  0.57640000  0.95440000  0.70200000  1.0 0.1288865923
H  H113  1  0.69180000  0.70030000  0.87970000  1.0 0.1196146279
H  H114  1  0.64350000  0.78900000  0.92940000  1.0 0.1480972153
H  H115  1  0.79450000  0.93280000  0.82740000  1.0 0.1288865923
H  H116  1  0.85360000  0.84570000  0.77530000  1.0 0.1288865923
H  H117  1  0.74090000  0.94350000  0.96140000  1.0 0.109933253
H  H118  1  0.61980000  0.91100000  0.94100000  1.0 0.1196146279
H  H119  1  0.76390000  0.19520000  0.80850000  1.0 0.1372054611
H  H120  1  0.91670000  0.23660000  0.88950000  1.0 0.1004162284
H  H121  1  0.93640000  0.16300000  0.97880000  1.0 0.109933253
H  H122  1  0.84560000  0.04950000  0.97260000  1.0 0.1372054611
H  H123  1  0.54140000  0.89630000  0.79970000  1.0 0.1196146279
H  H124  1  0.47310000  0.92950000  0.84470000  1.0 0.1196146279
H  H125  1  0.72160000  0.45960000  0.04910000  1.0 0.109933253
H  H126  1  0.62300000  0.51000000  0.11650000  1.0 0.1196146279
H  H127  1  0.35310000  0.38920000  0.02410000  1.0 0.1004162284
H  H128  1  0.45170000  0.33880000  0.95670000  1.0 0.1196146279
H  H129  1  0.65460000  0.39090000  0.91720000  1.0 0.1196146279
H  H130  1  0.72590000  0.37360000  0.97390000  1.0 0.1288865923
H  H131  1  0.68020000  0.27130000  0.06380000  1.0 0.1372054611
H  H132  1  0.66110000  0.16330000  0.10510000  1.0 0.1196146279
H  H133  1  0.59300000  0.06600000  0.04310000  1.0 0.1196146279
H  H134  1  0.51790000  0.06170000  0.94230000  1.0 0.1288865923
H  H135  1  0.55380000  0.34390000  0.83610000  1.0 0.1288865923
H  H136  1  0.62960000  0.30390000  0.80340000  1.0 0.1288865923
H  H137  1  0.65550000  0.38890000  0.65110000  1.0 0.109933253
H  H138  1  0.69070000  0.36340000  0.58720000  1.0 0.1196146279
H  H139  1  0.78960000  0.28610000  0.55280000  1.0 0.1288865923
H  H140  1  0.88550000  0.19440000  0.55660000  1.0 0.1196146279
H  H141  1  0.85820000  0.10260000  0.61880000  1.0 0.1196146279
H  H142  1  0.72280000  0.09900000  0.68310000  1.0 0.1288865923
H  H143  1  0.50520000  0.33450000  0.71240000  1.0 0.1372054611
H  H144  1  0.42560000  0.26420000  0.68250000  1.0 0.1288865923
H  H145  1  0.96050000  0.13180000  0.75990000  1.0 0.1288865923
H  H146  1  0.90840000  0.01990000  0.71970000  1.0 0.1288865923
H  H147  1  0.01750000  0.95970000  0.67680000  1.0 0.1196146279
H  H148  1  0.18840000  0.01130000  0.68090000  1.0 0.1372054611
H  H149  1  0.37690000  0.27450000  0.83790000  1.0 0.1288865923
H  H150  1  0.35890000  0.31240000  0.77660000  1.0 0.1372054611
H  H151  1  0.53830000  0.28150000  0.51830000  1.0 0.1004162284
H  H152  1  0.41950000  0.29260000  0.43440000  1.0 0.1004162284
H  H153  1  0.34740000  0.45600000  0.53220000  1.0 0.0889273142
H  H154  1  0.46620000  0.44490000  0.61620000  1.0 0.109933253
H  H155  1  0.07170000  0.26130000  0.75510000  1.0 0.0818703837
H  H156  1  0.18910000  0.30420000  0.75230000  1.0 0.109933253
H  H157  1  0.11750000  0.45150000  0.91120000  1.0 0.0818703837
H  H158  1  0.11880000  0.39820000  0.81100000  1.0 0.0889273142
H  H159  1  0.16790000  0.22210000  0.88710000  1.0 0.1004162284
H  H160  1  0.16660000  0.27540000  0.98720000  1.0 0.0889273142
H  H161  1  0.63300000  0.38650000  0.65090000  1.0 0.1196146279
H  H162  1  0.70230000  0.37020000  0.59780000  1.0 0.109933253
H  H163  1  0.37150000  0.26210000  0.45600000  1.0 0.0818703837
H  H164  1  0.42980000  0.47060000  0.51210000  1.0 0.0889273142
H  H165  1  0.56190000  0.45750000  0.58750000  1.0 0.1004162284
H  H166  1  0.50350000  0.24900000  0.53140000  1.0 0.0889273142
H  H167  1  0.93350000  0.46230000  0.79020000  1.0 0.1567361337
H  H168  1  0.82550000  0.41590000  0.79170000  1.0 0.1871555281
H  H169  1  0.00000000  0.24380000  0.72670000  1.0 0.1004162284
H  H170  1  0.17160000  0.39510000  0.85600000  1.0 0.0889273142
H  H171  1  0.08610000  0.47750000  0.81470000  1.0 0.109933253
H  H172  1  0.91450000  0.32620000  0.68540000  1.0 0.1196146279
H  H173  1  0.19780000  0.28720000  0.86050000  1.0 0.109933253
H  H174  1  0.08450000  0.23470000  0.85540000  1.0 0.1004162284
H  H175  1  0.07470000  0.35930000  0.05970000  1.0 0.2209453714
H  H176  1  0.15190000  0.32250000  0.09830000  1.0 0.2857810688
Pb  Pb1  1  0.52477000  0.88898000  0.23369000  1.0 0.8411474657
Pb  Pb2  1  0.83000000  0.53789000  0.84728000  1.0 0.8482575846
Pb  Pb3  1  0.84503000  0.60705000  0.67271000  1.0 0.9007688594
Pb  Pb4  1  0.96120000  0.50386000  0.00747000  1.0 0.5173732174
Pb  Pb5  1  0.47523000  0.11102000  0.76631000  1.0 0.8411474657
Pb  Pb6  1  0.17000000  0.46211000  0.15272000  1.0 0.8482575846
Pb  Pb7  1  0.15497000  0.39295000  0.32729000  1.0 0.9007688594
Pb  Pb8  1  0.03880000  0.49614000  0.99253000  1.0 0.5173732174
C  C1  1  0.93100000  0.38900000  0.09500000  1.0 0.3957468999
C  C2  1  0.92200000  0.26260000  0.09370000  1.0 -0.1470177355
C  C3  1  0.91500000  0.32400000  0.12860000  1.0 -0.0198554749
C  C4  1  0.89500000  0.32130000  0.19150000  1.0 -0.0923819395
C  C5  1  0.88300000  0.25720000  0.21950000  1.0 -0.1378611046
C  C6  1  0.89000000  0.19590000  0.18460000  1.0 0.109933253
C  C7  1  0.91000000  0.19860000  0.12170000  1.0 -0.1593216164
C  C8  1  0.88700000  0.12900000  0.21900000  1.0 -0.1593216164
C  C9  1  0.92200000  0.00900000  0.11230000  1.0 -0.1814210805
C  C10  1  0.91700000  0.95290000  0.07410000  1.0 -0.1097386467
C  C11  1  0.82300000  0.90210000  0.06280000  1.0 -0.1470177355
C  C12  1  0.73300000  0.90330000  0.08880000  1.0 -0.1593216164
C  C13  1  0.65200000  0.07820000  0.24300000  1.0 -0.2492635603
C  C14  1  0.95500000  0.32900000  0.37350000  1.0 0.5173732174
C  C15  1  0.85000000  0.27910000  0.39020000  1.0 0.0092466901
C  C16  1  0.75100000  0.29640000  0.39250000  1.0 -0.0923819395
C  C17  1  0.66600000  0.24740000  0.40580000  1.0 -0.1814210805
C  C18  1  0.67100000  0.18190000  0.41830000  1.0 0.0818703837
C  C19  1  0.76200000  0.16410000  0.41730000  1.0 -0.1593216164
C  C20  1  0.85600000  0.21210000  0.40150000  1.0 -0.1176193505
C  C21  1  0.57300000  0.12950000  0.43350000  1.0 -0.1895446029
C  C22  1  0.64430000  0.01120000  0.50880000  1.0 -0.1895446029
C  C23  1  0.60490000  0.00920000  0.44600000  1.0 0.0889273142
C  C24  1  0.59740000  0.94870000  0.40570000  1.0 0.1288865923
C  C25  1  0.62920000  0.89020000  0.42830000  1.0 -0.1895446029
C  C26  1  0.66860000  0.89230000  0.49110000  1.0 -0.129684907
C  C27  1  0.67620000  0.95280000  0.53140000  1.0 -0.0998182496
C  C28  1  0.54400000  0.02680000  0.35470000  1.0 0.2769826186
C  C29  1  0.50100000  0.06050000  0.30190000  1.0 -0.2296326416
C  C30  1  0.19300000  0.29740000  0.22260000  1.0 0.5360873175
C  C31  1  0.21700000  0.23860000  0.18310000  1.0 -0.0426664976
C  C32  1  0.28500000  0.25300000  0.13180000  1.0 -0.1176193505
C  C33  1  0.31200000  0.20100000  0.10270000  1.0 -0.1176193505
C  C34  1  0.28300000  0.13600000  0.11530000  1.0 0.0889273142
C  C35  1  0.22300000  0.11430000  0.16240000  1.0 -0.1593216164
C  C36  1  0.19100000  0.16730000  0.19330000  1.0 -0.1097386467
C  C37  1  0.31200000  0.07200000  0.07500000  1.0 -0.1470177355
C  C38  1  0.22000000  0.83300000  0.16000000  1.0 -0.2200979052
C  C39  1  0.13000000  0.80800000  0.10900000  1.0 -0.1814210805
C  C40  1  0.11300000  0.85600000  0.05500000  1.0 -0.0998182496
C  C41  1  0.16700000  0.91900000  0.05700000  1.0 -0.1593216164
C  C42  1  0.39130000  0.00700000  0.16630000  1.0 0.2484740597
C  C43  1  0.27330000  0.89730000  0.15470000  1.0 0.1567361337
C  C44  1  0.24310000  0.93870000  0.10690000  1.0 0.1004162284
C  C45  1  0.48100000  0.06050000  0.18880000  1.0 -0.2200979052
C  C46  1  0.40400000  0.60580000  0.00380000  1.0 0.0889273142
C  C47  1  0.35200000  0.55400000  0.95590000  1.0 -0.1470177355
C  C48  1  0.41100000  0.52430000  0.91550000  1.0 -0.1097386467
C  C49  1  0.52200000  0.54540000  0.92300000  1.0 -0.0198554749
C  C50  1  0.57300000  0.59700000  0.97090000  1.0 -0.1176193505
C  C51  1  0.51400000  0.62680000  0.01130000  1.0 -0.1593216164
C  C52  1  0.34700000  0.63470000  0.04510000  1.0 -0.1704745459
C  C53  1  0.38700000  0.76660000  0.02720000  1.0 0.1004162284
C  C54  1  0.35100000  0.77000000  0.96150000  1.0 -0.1895446029
C  C55  1  0.36200000  0.83400000  0.93690000  1.0 -0.0998182496
C  C56  1  0.40500000  0.89100000  0.97420000  1.0 -0.129684907
C  C57  1  0.44750000  0.89510000  0.03570000  1.0 -0.1814210805
C  C58  1  0.43600000  0.82940000  0.06380000  1.0 0.1480972153
C  C59  1  0.43100000  0.74430000  0.12230000  1.0 0.2769826186
C  C60  1  0.43700000  0.70280000  0.17750000  1.0 -0.243455449
C  C61  1  0.36400000  0.64700000  0.38440000  1.0 -0.2200979052
C  C62  1  0.29900000  0.75500000  0.37760000  1.0 0.1004162284
C  C63  1  0.22400000  0.75000000  0.41970000  1.0 -0.2200979052
C  C64  1  0.16800000  0.80800000  0.41640000  1.0 -0.0998182496
C  C65  1  0.18100000  0.86300000  0.38030000  1.0 -0.129684907
C  C66  1  0.26100000  0.86300000  0.34190000  1.0 -0.1895446029
C  C67  1  0.31700000  0.81200000  0.33680000  1.0 0.1372054611
C  C68  1  0.42700000  0.74030000  0.31280000  1.0 0.2099272107
C  C69  1  0.51000000  0.71710000  0.28920000  1.0 -0.2200979052
C  C70  1  0.88000000  0.85890000  0.24920000  1.0 0.0400632602
C  C71  1  0.99000000  0.89210000  0.25430000  1.0 -0.1895446029
C  C72  1  0.02000000  0.95720000  0.27950000  1.0 -0.1176193505
C  C73  1  0.95600000  0.99420000  0.30460000  1.0 -0.0923819395
C  C74  1  0.85700000  0.96370000  0.30190000  1.0 -0.1470177355
C  C75  1  0.81400000  0.89420000  0.27410000  1.0 0.1196146279
C  C76  1  0.72000000  0.79060000  0.23030000  1.0 0.2099272107
C  C77  1  0.62800000  0.73120000  0.20780000  1.0 -0.2599952984
C  C78  1  0.73570000  0.95940000  0.12540000  1.0 0.1288865923
C  C79  1  0.83100000  0.01340000  0.13960000  1.0 0.0889273142
C  C80  1  0.70300000  0.04420000  0.19600000  1.0 0.2209453714
C  C81  1  0.57000000  0.50200000  0.87600000  1.0 0.5470912886
C  C82  1  0.48600000  0.63800000  0.42400000  1.0 0.0740047676
C  C83  1  0.50000000  0.68400000  0.47900000  1.0 -0.0793333518
C  C84  1  0.57100000  0.67700000  0.52920000  1.0 -0.0198554749
C  C85  1  0.62800000  0.62500000  0.52500000  1.0 -0.0495288539
C  C86  1  0.61400000  0.57900000  0.47100000  1.0 -0.0682493988
C  C87  1  0.54300000  0.58600000  0.42000000  1.0 -0.0682493988
C  C88  1  0.72400000  0.61900000  0.56300000  1.0 0.2274428141
C  C89  1  0.85700000  0.72900000  0.22400000  1.0 -0.0426664976
C  C90  1  0.85800000  0.63130000  0.04090000  1.0 -0.2200979052
C  C91  1  0.87200000  0.59450000  0.09370000  1.0 -0.1986564862
C  C92  1  0.87200000  0.62640000  0.15370000  1.0 -0.0072349602
C  C93  1  0.85700000  0.69510000  0.16090000  1.0 0.0092466901
C  C94  1  0.84200000  0.73190000  0.10810000  1.0 -0.1378611046
C  C95  1  0.84300000  0.70000000  0.04810000  1.0 -0.2599952984
C  C96  1  0.83700000  0.59300000  0.97840000  1.0 0.2359227744
C  C97  1  0.64200000  0.61500000  0.58740000  1.0 0.1805395988
C  C98  1  0.59000000  0.69900000  0.51800000  1.0 -0.0608903206
C  C99  1  0.61200000  0.63200000  0.52340000  1.0 -0.0198554749
C  C100  1  0.55500000  0.57400000  0.48400000  1.0 -0.0495288539
C  C101  1  0.47600000  0.58200000  0.43900000  1.0 -0.0495288539
C  C102  1  0.45400000  0.64800000  0.43300000  1.0 0.0579147768
C  C103  1  0.51100000  0.70700000  0.47200000  1.0 -0.0793333518
C  C104  1  0.08200000  0.54300000  0.25990000  1.0 0.3573191893
C  C105  1  0.98300000  0.70940000  0.25600000  1.0 -0.1704745459
C  C106  1  0.90600000  0.68870000  0.20500000  1.0 0.0188395214
C  C107  1  0.88000000  0.61900000  0.17820000  1.0 0.033937065
C  C108  1  0.93100000  0.56930000  0.20290000  1.0 -0.1895446029
C  C109  1  0.00800000  0.58990000  0.25400000  1.0 -0.1097386467
C  C110  1  0.03400000  0.66000000  0.28040000  1.0 -0.1814210805
C  C111  1  0.86200000  0.73800000  0.16900000  1.0 -0.0495288539
C  C112  1  0.06900000  0.61100000  0.90500000  1.0 0.3957468999
C  C113  1  0.07800000  0.73740000  0.90630000  1.0 -0.1470177355
C  C114  1  0.08500000  0.67600000  0.87140000  1.0 -0.0198554749
C  C115  1  0.10500000  0.67870000  0.80850000  1.0 -0.0923819395
C  C116  1  0.11700000  0.74280000  0.78050000  1.0 -0.1378611046
C  C117  1  0.11000000  0.80410000  0.81540000  1.0 0.109933253
C  C118  1  0.09000000  0.80140000  0.87830000  1.0 -0.1593216164
C  C119  1  0.11300000  0.87100000  0.78100000  1.0 -0.1593216164
C  C120  1  0.07800000  0.99100000  0.88770000  1.0 -0.1814210805
C  C121  1  0.08300000  0.04710000  0.92590000  1.0 -0.1097386467
C  C122  1  0.17700000  0.09790000  0.93720000  1.0 -0.1470177355
C  C123  1  0.26700000  0.09670000  0.91120000  1.0 -0.1593216164
C  C124  1  0.34800000  0.92180000  0.75700000  1.0 -0.2492635603
C  C125  1  0.04500000  0.67100000  0.62650000  1.0 0.5173732174
C  C126  1  0.15000000  0.72090000  0.60980000  1.0 0.0092466901
C  C127  1  0.24900000  0.70360000  0.60750000  1.0 -0.0923819395
C  C128  1  0.33400000  0.75260000  0.59420000  1.0 -0.1814210805
C  C129  1  0.32900000  0.81810000  0.58170000  1.0 0.0818703837
C  C130  1  0.23800000  0.83590000  0.58270000  1.0 -0.1593216164
C  C131  1  0.14400000  0.78790000  0.59850000  1.0 -0.1176193505
C  C132  1  0.42700000  0.87050000  0.56650000  1.0 -0.1895446029
C  C133  1  0.35570000  0.98880000  0.49120000  1.0 -0.1895446029
C  C134  1  0.39510000  0.99080000  0.55400000  1.0 0.0889273142
C  C135  1  0.40260000  0.05130000  0.59430000  1.0 0.1288865923
C  C136  1  0.37080000  0.10980000  0.57170000  1.0 -0.1895446029
C  C137  1  0.33140000  0.10770000  0.50890000  1.0 -0.129684907
C  C138  1  0.32380000  0.04720000  0.46860000  1.0 -0.0998182496
C  C139  1  0.45600000  0.97320000  0.64530000  1.0 0.2769826186
C  C140  1  0.49900000  0.93950000  0.69810000  1.0 -0.2296326416
C  C141  1  0.80700000  0.70260000  0.77740000  1.0 0.5360873175
C  C142  1  0.78300000  0.76140000  0.81690000  1.0 -0.0426664976
C  C143  1  0.71500000  0.74700000  0.86820000  1.0 -0.1176193505
C  C144  1  0.68800000  0.79900000  0.89730000  1.0 -0.1176193505
C  C145  1  0.71700000  0.86400000  0.88470000  1.0 0.0889273142
C  C146  1  0.77700000  0.88570000  0.83760000  1.0 -0.1593216164
C  C147  1  0.80900000  0.83270000  0.80670000  1.0 -0.1097386467
C  C148  1  0.68800000  0.92800000  0.92500000  1.0 -0.1470177355
C  C149  1  0.78000000  0.16700000  0.84000000  1.0 -0.2200979052
C  C150  1  0.87000000  0.19200000  0.89100000  1.0 -0.1814210805
C  C151  1  0.88700000  0.14400000  0.94500000  1.0 -0.0998182496
C  C152  1  0.83300000  0.08100000  0.94300000  1.0 -0.1593216164
C  C153  1  0.60870000  0.99300000  0.83370000  1.0 0.2484740597
C  C154  1  0.72670000  0.10270000  0.84530000  1.0 0.1567361337
C  C155  1  0.75690000  0.06130000  0.89310000  1.0 0.1004162284
C  C156  1  0.51900000  0.93950000  0.81120000  1.0 -0.2200979052
C  C157  1  0.59600000  0.39420000  0.99620000  1.0 0.0889273142
C  C158  1  0.64800000  0.44600000  0.04410000  1.0 -0.1470177355
C  C159  1  0.58900000  0.47570000  0.08450000  1.0 -0.1097386467
C  C160  1  0.47800000  0.45460000  0.07700000  1.0 -0.0198554749
C  C161  1  0.42700000  0.40300000  0.02910000  1.0 -0.1176193505
C  C162  1  0.48600000  0.37320000  0.98870000  1.0 -0.1593216164
C  C163  1  0.65300000  0.36530000  0.95490000  1.0 -0.1704745459
C  C164  1  0.61300000  0.23340000  0.97280000  1.0 0.1004162284
C  C165  1  0.64900000  0.23000000  0.03850000  1.0 -0.1895446029
C  C166  1  0.63800000  0.16600000  0.06310000  1.0 -0.0998182496
C  C167  1  0.59500000  0.10900000  0.02580000  1.0 -0.129684907
C  C168  1  0.55250000  0.10490000  0.96430000  1.0 -0.1814210805
C  C169  1  0.56400000  0.17060000  0.93620000  1.0 0.1480972153
C  C170  1  0.56900000  0.25570000  0.87770000  1.0 0.2769826186
C  C171  1  0.56300000  0.29720000  0.82250000  1.0 -0.243455449
C  C172  1  0.63600000  0.35300000  0.61560000  1.0 -0.2200979052
C  C173  1  0.70100000  0.24500000  0.62240000  1.0 0.1004162284
C  C174  1  0.77600000  0.25000000  0.58030000  1.0 -0.2200979052
C  C175  1  0.83200000  0.19200000  0.58360000  1.0 -0.0998182496
C  C176  1  0.81900000  0.13700000  0.61970000  1.0 -0.129684907
C  C177  1  0.73900000  0.13700000  0.65810000  1.0 -0.1895446029
C  C178  1  0.68300000  0.18800000  0.66320000  1.0 0.1372054611
C  C179  1  0.57300000  0.25970000  0.68720000  1.0 0.2099272107
C  C180  1  0.49000000  0.28290000  0.71080000  1.0 -0.2296326416
C  C181  1  0.12000000  0.14110000  0.75080000  1.0 0.0400632602
C  C182  1  0.01000000  0.10790000  0.74570000  1.0 -0.1895446029
C  C183  1  0.98000000  0.04280000  0.72050000  1.0 -0.1176193505
C  C184  1  0.04400000  0.00580000  0.69540000  1.0 -0.0998182496
C  C185  1  0.14300000  0.03630000  0.69810000  1.0 -0.1470177355
C  C186  1  0.18600000  0.10580000  0.72590000  1.0 0.1196146279
C  C187  1  0.28000000  0.20940000  0.76970000  1.0 0.2099272107
C  C188  1  0.37200000  0.26880000  0.79220000  1.0 -0.2599952984
C  C189  1  0.26430000  0.04060000  0.87460000  1.0 0.1288865923
C  C190  1  0.16900000  0.98660000  0.86040000  1.0 0.0889273142
C  C191  1  0.29700000  0.95580000  0.80400000  1.0 0.2209453714
C  C192  1  0.43000000  0.49800000  0.12400000  1.0 0.5470912886
C  C193  1  0.51400000  0.36200000  0.57600000  1.0 0.0740047676
C  C194  1  0.50000000  0.31600000  0.52100000  1.0 -0.0793333518
C  C195  1  0.42900000  0.32300000  0.47080000  1.0 -0.0198554749
C  C196  1  0.37200000  0.37500000  0.47500000  1.0 -0.0495288539
C  C197  1  0.38600000  0.42100000  0.52900000  1.0 -0.0682493988
C  C198  1  0.45700000  0.41400000  0.58000000  1.0 -0.0682493988
C  C199  1  0.27600000  0.38100000  0.43700000  1.0 0.2274428141
C  C200  1  0.14300000  0.27100000  0.77600000  1.0 -0.0426664976
C  C201  1  0.14200000  0.36870000  0.95910000  1.0 -0.2200979052
C  C202  1  0.12800000  0.40550000  0.90630000  1.0 -0.1986564862
C  C203  1  0.12800000  0.37360000  0.84630000  1.0 -0.0072349602
C  C204  1  0.14300000  0.30490000  0.83910000  1.0 0.0092466901
C  C205  1  0.15800000  0.26810000  0.89190000  1.0 -0.1378611046
C  C206  1  0.15700000  0.30000000  0.95190000  1.0 -0.2599952984
C  C207  1  0.16300000  0.40700000  0.02160000  1.0 0.2359227744
C  C208  1  0.35800000  0.38500000  0.41260000  1.0 0.1805395988
C  C209  1  0.41000000  0.30100000  0.48200000  1.0 -0.0608903206
C  C210  1  0.38800000  0.36800000  0.47660000  1.0 -0.0198554749
C  C211  1  0.44500000  0.42600000  0.51600000  1.0 -0.0495288539
C  C212  1  0.52400000  0.41800000  0.56100000  1.0 -0.0495288539
C  C213  1  0.54600000  0.35200000  0.56700000  1.0 0.0579147768
C  C214  1  0.48900000  0.29300000  0.52800000  1.0 -0.0793333518
C  C215  1  0.91800000  0.45700000  0.74010000  1.0 0.3573191893
C  C216  1  0.01700000  0.29060000  0.74400000  1.0 -0.1704745459
C  C217  1  0.09400000  0.31130000  0.79500000  1.0 0.0188395214
C  C218  1  0.12000000  0.38100000  0.82180000  1.0 0.033937065
C  C219  1  0.06900000  0.43070000  0.79710000  1.0 -0.1895446029
C  C220  1  0.99200000  0.41010000  0.74600000  1.0 -0.1097386467
C  C221  1  0.96600000  0.34000000  0.71960000  1.0 -0.1814210805
C  C222  1  0.13800000  0.26200000  0.83100000  1.0 -0.0495288539
N  N1  1  0.36490000  0.93950000  0.19150000  1.0 -0.512070896
N  N2  1  0.31600000  0.00650000  0.11400000  1.0 -0.1176193505
N  N3  1  0.65660000  0.97850000  0.16020000  1.0 -0.5718488711
N  N4  1  0.81080000  0.06580000  0.18330000  1.0 -0.1097386467
N  N5  1  0.56900000  0.05780000  0.41410000  1.0 -0.0495288539
N  N6  1  0.55930000  0.96520000  0.34770000  1.0 -0.3738756943
N  N7  1  0.53890000  0.04210000  0.24170000  1.0 -0.0198554749
N  N8  1  0.38640000  0.71370000  0.06480000  1.0 -0.0495288539
N  N9  1  0.46230000  0.81360000  0.12270000  1.0 -0.3859599995
N  N10  1  0.36600000  0.71260000  0.36250000  1.0 -0.2200979052
N  N11  1  0.39920000  0.80280000  0.29990000  1.0 -0.4698620605
N  N12  1  0.82100000  0.79600000  0.22290000  1.0 -0.0608903206
N  N13  1  0.70630000  0.84810000  0.26020000  1.0 -0.4163244236
N  N14  1  0.52830000  0.73980000  0.22630000  1.0 -0.0255978209
N  N15  1  0.63510000  0.06050000  0.80850000  1.0 -0.512070896
N  N16  1  0.68400000  0.99350000  0.88600000  1.0 -0.1176193505
N  N17  1  0.34340000  0.02150000  0.83980000  1.0 -0.5718488711
N  N18  1  0.18920000  0.93420000  0.81670000  1.0 -0.1097386467
N  N19  1  0.43100000  0.94220000  0.58590000  1.0 -0.0495288539
N  N20  1  0.44070000  0.03480000  0.65230000  1.0 -0.3738756943
N  N21  1  0.46110000  0.95790000  0.75830000  1.0 -0.0255978209
N  N22  1  0.61360000  0.28630000  0.93520000  1.0 -0.0495288539
N  N23  1  0.53770000  0.18640000  0.87730000  1.0 -0.3859599995
N  N24  1  0.63400000  0.28740000  0.63750000  1.0 -0.2200979052
N  N25  1  0.60080000  0.19720000  0.70010000  1.0 -0.4698620605
N  N26  1  0.17900000  0.20400000  0.77710000  1.0 -0.0608903206
N  N27  1  0.29370000  0.15190000  0.73980000  1.0 -0.4163244236
N  N28  1  0.47170000  0.26020000  0.77370000  1.0 -0.0198554749
O  O1  1  0.67800000  0.52430000  0.88190000  1.0 -0.512070896
O  O2  1  0.96300000  0.43300000  0.12030000  1.0 -0.3589618373
O  O3  1  0.90400000  0.38060000  0.03920000  1.0 -0.3799493107
O  O4  1  0.03400000  0.31100000  0.37650000  1.0 -0.4483425337
O  O5  1  0.93800000  0.38340000  0.34930000  1.0 -0.528818326
O  O6  1  0.14490000  0.27840000  0.26890000  1.0 -0.4774500745
O  O7  1  0.21100000  0.35950000  0.20510000  1.0 -0.5718488711
O  O8  1  0.75700000  0.56600000  0.56500000  1.0 -0.3970822263
O  O9  1  0.51500000  0.46600000  0.82500000  1.0 -0.6103781927
O  O10  1  0.72500000  0.65780000  0.61150000  1.0 -0.2200979052
O  O11  1  0.85900000  0.53600000  0.96930000  1.0 -0.3799493107
O  O12  1  0.79800000  0.60600000  0.92700000  1.0 0.0188395214
O  O13  1  0.60800000  0.56900000  0.62500000  1.0 -0.4907609391
O  O14  1  0.14100000  0.53220000  0.21160000  1.0 -0.2296326416
O  O15  1  0.07300000  0.48200000  0.23520000  1.0 -0.2492635603
O  O16  1  0.10900000  0.55100000  0.31840000  1.0 -0.4340709615
O  O17  1  0.85500000  0.63420000  0.91950000  1.0 -0.1704745459
O  O18  1  0.32200000  0.47570000  0.11810000  1.0 -0.512070896
O  O19  1  0.03700000  0.56700000  0.87970000  1.0 -0.3589618373
O  O20  1  0.09600000  0.61940000  0.96080000  1.0 -0.3799493107
O  O21  1  0.96600000  0.68900000  0.62350000  1.0 -0.4483425337
O  O22  1  0.06200000  0.61660000  0.65070000  1.0 -0.528818326
O  O23  1  0.85510000  0.72160000  0.73110000  1.0 -0.4774500745
O  O24  1  0.78900000  0.64050000  0.79490000  1.0 -0.5718488711
O  O25  1  0.24300000  0.43400000  0.43500000  1.0 -0.3970822263
O  O26  1  0.48500000  0.53400000  0.17500000  1.0 -0.6103781927
O  O27  1  0.27500000  0.34220000  0.38850000  1.0 -0.2200979052
O  O28  1  0.14100000  0.46400000  0.03070000  1.0 -0.3799493107
O  O29  1  0.20200000  0.39400000  0.07300000  1.0 0.0188395214
O  O30  1  0.39200000  0.43100000  0.37500000  1.0 -0.4907609391
O  O31  1  0.85900000  0.46780000  0.78840000  1.0 -0.2296326416
O  O32  1  0.92700000  0.51800000  0.76480000  1.0 -0.2492635603
O  O33  1  0.89100000  0.44900000  0.68160000  1.0 -0.4340709615
O  O34  1  0.14500000  0.36580000  0.08050000  1.0 -0.1704745459
