# DDEC6 charges by PACMAN v1.1 (https://github.com/mtap-research/PACMAN-charge/)
data_PAJSAX_FSR_pacman
_symmetry_space_group_name_H-M   'P 1'
_cell_length_a   9.62560000
_cell_length_b   23.43600000
_cell_length_c   41.59300000
_cell_angle_alpha   90.00000000
_cell_angle_beta   90.00000000
_cell_angle_gamma   90.00000000
_symmetry_Int_Tables_number   1
_chemical_formula_structural   ZnH6(C3N2)2
_chemical_formula_sum   'Zn24 H144 C144 N96'
_cell_volume   9382.78026363
_cell_formula_units_Z   24
loop_
 _symmetry_equiv_pos_site_id
 _symmetry_equiv_pos_as_xyz
  1  'x, y, z'
loop_
 _atom_site_type_symbol
 _atom_site_label
 _atom_site_symmetry_multiplicity
 _atom_site_fract_x
 _atom_site_fract_y
 _atom_site_fract_z
 _atom_site_occupancy
 _atom_site_charge
Zn  Zn1  1  0.79659000  0.50188000  0.91714000  1.0 0.6286522676
Zn  Zn2  1  0.70341000  0.49812000  0.41714000  1.0 0.6360273845
Zn  Zn3  1  0.29659000  0.99812000  0.58286000  1.0 0.6286522676
Zn  Zn4  1  0.20341000  0.00188000  0.08286000  1.0 0.6360273845
Zn  Zn5  1  0.20341000  0.49812000  0.08286000  1.0 0.6360273845
Zn  Zn6  1  0.29659000  0.50188000  0.58286000  1.0 0.6286522676
Zn  Zn7  1  0.70341000  0.00188000  0.41714000  1.0 0.6360273845
Zn  Zn8  1  0.79659000  0.99812000  0.91714000  1.0 0.6286522676
Zn  Zn9  1  0.70094000  0.37572000  0.03945000  1.0 0.6244085319
Zn  Zn10  1  0.79906000  0.62428000  0.53945000  1.0 0.6244085319
Zn  Zn11  1  0.20094000  0.12428000  0.46055000  1.0 0.6244085319
Zn  Zn12  1  0.29906000  0.87572000  0.96055000  1.0 0.6286522676
Zn  Zn13  1  0.29906000  0.62428000  0.96055000  1.0 0.6286522676
Zn  Zn14  1  0.20094000  0.37572000  0.46055000  1.0 0.6244085319
Zn  Zn15  1  0.79906000  0.87572000  0.53945000  1.0 0.6244085319
Zn  Zn16  1  0.70094000  0.12428000  0.03945000  1.0 0.6244085319
Zn  Zn17  1  0.79692000  0.37473000  0.79179000  1.0 0.6286522676
Zn  Zn18  1  0.70308000  0.62527000  0.29179000  1.0 0.6286522676
Zn  Zn19  1  0.29692000  0.12527000  0.70821000  1.0 0.6286522676
Zn  Zn20  1  0.20308000  0.87473000  0.20821000  1.0 0.6286522676
Zn  Zn21  1  0.20308000  0.62527000  0.20821000  1.0 0.6286522676
Zn  Zn22  1  0.29692000  0.37473000  0.70821000  1.0 0.6286522676
Zn  Zn23  1  0.70308000  0.87473000  0.29179000  1.0 0.6286522676
Zn  Zn24  1  0.79692000  0.12527000  0.79179000  1.0 0.6286522676
H  H1  1  0.79250000  0.47310000  0.99110000  1.0 0.1010142286
H  H2  1  0.70750000  0.52690000  0.49110000  1.0 0.1010142286
H  H3  1  0.29250000  0.02690000  0.50890000  1.0 0.1010142286
H  H4  1  0.20750000  0.97310000  0.00890000  1.0 0.1010142286
H  H5  1  0.20750000  0.52690000  0.00890000  1.0 0.1010142286
H  H6  1  0.29250000  0.47310000  0.50890000  1.0 0.1010142286
H  H7  1  0.70750000  0.97310000  0.49110000  1.0 0.1010142286
H  H8  1  0.79250000  0.02690000  0.99110000  1.0 0.1010142286
H  H9  1  0.63680000  0.32130000  0.96960000  1.0 0.1010142286
H  H10  1  0.86320000  0.67870000  0.46960000  1.0 0.1010142286
H  H11  1  0.13680000  0.17870000  0.53040000  1.0 0.1010142286
H  H12  1  0.36320000  0.82130000  0.03040000  1.0 0.1010142286
H  H13  1  0.36320000  0.67870000  0.03040000  1.0 0.1010142286
H  H14  1  0.13680000  0.32130000  0.53040000  1.0 0.1010142286
H  H15  1  0.86320000  0.82130000  0.46960000  1.0 0.1010142286
H  H16  1  0.63680000  0.17870000  0.96960000  1.0 0.1010142286
H  H17  1  0.66770000  0.37540000  0.91870000  1.0 0.1112000289
H  H18  1  0.83230000  0.62460000  0.41870000  1.0 0.1112000289
H  H19  1  0.16770000  0.12460000  0.58130000  1.0 0.1112000289
H  H20  1  0.33230000  0.87540000  0.08130000  1.0 0.1112000289
H  H21  1  0.33230000  0.62460000  0.08130000  1.0 0.1112000289
H  H22  1  0.16770000  0.37540000  0.58130000  1.0 0.1112000289
H  H23  1  0.83230000  0.87540000  0.41870000  1.0 0.1112000289
H  H24  1  0.66770000  0.12460000  0.91870000  1.0 0.1112000289
H  H25  1  0.88090000  0.40900000  0.86390000  1.0 0.1010142286
H  H26  1  0.61910000  0.59100000  0.36390000  1.0 0.1010142286
H  H27  1  0.38090000  0.09100000  0.63610000  1.0 0.1010142286
H  H28  1  0.11910000  0.90900000  0.13610000  1.0 0.1010142286
H  H29  1  0.11910000  0.59100000  0.13610000  1.0 0.1010142286
H  H30  1  0.38090000  0.40900000  0.63610000  1.0 0.1010142286
H  H31  1  0.61910000  0.90900000  0.36390000  1.0 0.1010142286
H  H32  1  0.88090000  0.09100000  0.86390000  1.0 0.1010142286
H  H33  1  0.59750000  0.47980000  0.80610000  1.0 0.1112000289
H  H34  1  0.90250000  0.52020000  0.30610000  1.0 0.1112000289
H  H35  1  0.09750000  0.02020000  0.69390000  1.0 0.1112000289
H  H36  1  0.40250000  0.97980000  0.19390000  1.0 0.1112000289
H  H37  1  0.40250000  0.52020000  0.19390000  1.0 0.1112000289
H  H38  1  0.09750000  0.47980000  0.69390000  1.0 0.1112000289
H  H39  1  0.90250000  0.97980000  0.30610000  1.0 0.1112000289
H  H40  1  0.59750000  0.02020000  0.80610000  1.0 0.1112000289
H  H41  1  0.61180000  0.53810000  0.85620000  1.0 0.1112000289
H  H42  1  0.88820000  0.46190000  0.35620000  1.0 0.1112000289
H  H43  1  0.11180000  0.96190000  0.64380000  1.0 0.1112000289
H  H44  1  0.38820000  0.03810000  0.14380000  1.0 0.1112000289
H  H45  1  0.38820000  0.46190000  0.14380000  1.0 0.1112000289
H  H46  1  0.11180000  0.53810000  0.64380000  1.0 0.1112000289
H  H47  1  0.88820000  0.03810000  0.35620000  1.0 0.1112000289
H  H48  1  0.61180000  0.96190000  0.85620000  1.0 0.1112000289
H  H49  1  0.51690000  0.52740000  0.95140000  1.0 0.1010142286
H  H50  1  0.98310000  0.47260000  0.45140000  1.0 0.1010142286
H  H51  1  0.01690000  0.97260000  0.54860000  1.0 0.1010142286
H  H52  1  0.48310000  0.02740000  0.04860000  1.0 0.1010142286
H  H53  1  0.48310000  0.47260000  0.04860000  1.0 0.1010142286
H  H54  1  0.01690000  0.52740000  0.54860000  1.0 0.1010142286
H  H55  1  0.98310000  0.02740000  0.45140000  1.0 0.1010142286
H  H56  1  0.51690000  0.97260000  0.95140000  1.0 0.1010142286
H  H57  1  0.54810000  0.69040000  0.92410000  1.0 0.1010142286
H  H58  1  0.95190000  0.30960000  0.42410000  1.0 0.1010142286
H  H59  1  0.04810000  0.80960000  0.57590000  1.0 0.1010142286
H  H60  1  0.45190000  0.19040000  0.07590000  1.0 0.1010142286
H  H61  1  0.45190000  0.30960000  0.07590000  1.0 0.1010142286
H  H62  1  0.04810000  0.69040000  0.57590000  1.0 0.1010142286
H  H63  1  0.95190000  0.19040000  0.42410000  1.0 0.1010142286
H  H64  1  0.54810000  0.80960000  0.92410000  1.0 0.1010142286
H  H65  1  0.76360000  0.63940000  0.90740000  1.0 0.1112000289
H  H66  1  0.73640000  0.36060000  0.40740000  1.0 0.1112000289
H  H67  1  0.26360000  0.86060000  0.59260000  1.0 0.1112000289
H  H68  1  0.23640000  0.13940000  0.09260000  1.0 0.1112000289
H  H69  1  0.23640000  0.36060000  0.09260000  1.0 0.1112000289
H  H70  1  0.26360000  0.63940000  0.59260000  1.0 0.1112000289
H  H71  1  0.73640000  0.13940000  0.40740000  1.0 0.1112000289
H  H72  1  0.76360000  0.86060000  0.90740000  1.0 0.1112000289
H  H73  1  0.00390000  0.42330000  0.04030000  1.0 0.1010142286
H  H74  1  0.49610000  0.57670000  0.54030000  1.0 0.1010142286
H  H75  1  0.50390000  0.07670000  0.45970000  1.0 0.1010142286
H  H76  1  0.99610000  0.92330000  0.95970000  1.0 0.1010142286
H  H77  1  0.99610000  0.57670000  0.95970000  1.0 0.1010142286
H  H78  1  0.50390000  0.42330000  0.45970000  1.0 0.1010142286
H  H79  1  0.49610000  0.92330000  0.54030000  1.0 0.1010142286
H  H80  1  0.00390000  0.07670000  0.04030000  1.0 0.1010142286
H  H81  1  0.91850000  0.50110000  0.12310000  1.0 0.1112000289
H  H82  1  0.58150000  0.49890000  0.62310000  1.0 0.1112000289
H  H83  1  0.41850000  0.99890000  0.37690000  1.0 0.1112000289
H  H84  1  0.08150000  0.00110000  0.87690000  1.0 0.1112000289
H  H85  1  0.08150000  0.49890000  0.87690000  1.0 0.1112000289
H  H86  1  0.41850000  0.50110000  0.37690000  1.0 0.1112000289
H  H87  1  0.58150000  0.00110000  0.62310000  1.0 0.1112000289
H  H88  1  0.91850000  0.99890000  0.12310000  1.0 0.1112000289
H  H89  1  0.70280000  0.45330000  0.10340000  1.0 0.1112000289
H  H90  1  0.79720000  0.54670000  0.60340000  1.0 0.1112000289
H  H91  1  0.20280000  0.04670000  0.39660000  1.0 0.1112000289
H  H92  1  0.29720000  0.95330000  0.89660000  1.0 0.1112000289
H  H93  1  0.29720000  0.54670000  0.89660000  1.0 0.1112000289
H  H94  1  0.20280000  0.45330000  0.39660000  1.0 0.1112000289
H  H95  1  0.79720000  0.95330000  0.60340000  1.0 0.1112000289
H  H96  1  0.70280000  0.04670000  0.10340000  1.0 0.1112000289
H  H97  1  0.50150000  0.33240000  0.76070000  1.0 0.1010142286
H  H98  1  0.99850000  0.66760000  0.26070000  1.0 0.1010142286
H  H99  1  0.00150000  0.16760000  0.73930000  1.0 0.1010142286
H  H100  1  0.49850000  0.83240000  0.23930000  1.0 0.1010142286
H  H101  1  0.49850000  0.66760000  0.23930000  1.0 0.1010142286
H  H102  1  0.00150000  0.33240000  0.73930000  1.0 0.1010142286
H  H103  1  0.99850000  0.83240000  0.26070000  1.0 0.1010142286
H  H104  1  0.50150000  0.16760000  0.76070000  1.0 0.1010142286
H  H105  1  0.55240000  0.46050000  0.69770000  1.0 0.1186285428
H  H106  1  0.94760000  0.53950000  0.19770000  1.0 0.1186285428
H  H107  1  0.05240000  0.03950000  0.80230000  1.0 0.1186285428
H  H108  1  0.44760000  0.96050000  0.30230000  1.0 0.1186285428
H  H109  1  0.44760000  0.53950000  0.30230000  1.0 0.1186285428
H  H110  1  0.05240000  0.46050000  0.80230000  1.0 0.1186285428
H  H111  1  0.94760000  0.96050000  0.19770000  1.0 0.1186285428
H  H112  1  0.55240000  0.03950000  0.69770000  1.0 0.1186285428
H  H113  1  0.75940000  0.46210000  0.73230000  1.0 0.1112000289
H  H114  1  0.74060000  0.53790000  0.23230000  1.0 0.1112000289
H  H115  1  0.25940000  0.03790000  0.76770000  1.0 0.1112000289
H  H116  1  0.24060000  0.96210000  0.26770000  1.0 0.1112000289
H  H117  1  0.24060000  0.53790000  0.26770000  1.0 0.1112000289
H  H118  1  0.25940000  0.46210000  0.76770000  1.0 0.1112000289
H  H119  1  0.74060000  0.96210000  0.23230000  1.0 0.1112000289
H  H120  1  0.75940000  0.03790000  0.73230000  1.0 0.1112000289
H  H121  1  0.63580000  0.25000000  0.02010000  1.0 0.0915058515
H  H122  1  0.86420000  0.75000000  0.52010000  1.0 0.0915058515
H  H123  1  0.13580000  0.25000000  0.47990000  1.0 0.0915058515
H  H124  1  0.36420000  0.75000000  0.97990000  1.0 0.0915058515
H  H125  1  0.90980000  0.30230000  0.08220000  1.0 0.1112000289
H  H126  1  0.59020000  0.69770000  0.58220000  1.0 0.1112000289
H  H127  1  0.40980000  0.19770000  0.41780000  1.0 0.1112000289
H  H128  1  0.09020000  0.80230000  0.91780000  1.0 0.1112000289
H  H129  1  0.09020000  0.69770000  0.91780000  1.0 0.1112000289
H  H130  1  0.40980000  0.30230000  0.41780000  1.0 0.1112000289
H  H131  1  0.59020000  0.80230000  0.58220000  1.0 0.1112000289
H  H132  1  0.90980000  0.19770000  0.08220000  1.0 0.1112000289
H  H133  1  0.82670000  0.25000000  0.76810000  1.0 0.1010142286
H  H134  1  0.67330000  0.75000000  0.26810000  1.0 0.1010142286
H  H135  1  0.32670000  0.25000000  0.73190000  1.0 0.1010142286
H  H136  1  0.17330000  0.75000000  0.23190000  1.0 0.1010142286
H  H137  1  0.70900000  0.30240000  0.85590000  1.0 0.1186285428
H  H138  1  0.79100000  0.69760000  0.35590000  1.0 0.1186285428
H  H139  1  0.20900000  0.19760000  0.64410000  1.0 0.1186285428
H  H140  1  0.29100000  0.80240000  0.14410000  1.0 0.1186285428
H  H141  1  0.29100000  0.69760000  0.14410000  1.0 0.1186285428
H  H142  1  0.20900000  0.30240000  0.64410000  1.0 0.1186285428
H  H143  1  0.79100000  0.80240000  0.35590000  1.0 0.1186285428
H  H144  1  0.70900000  0.19760000  0.85590000  1.0 0.1186285428
C  C1  1  0.75910000  0.44210000  0.97950000  1.0 0.1112000289
C  C2  1  0.74090000  0.55790000  0.47950000  1.0 0.1112000289
C  C3  1  0.25910000  0.05790000  0.52050000  1.0 0.1112000289
C  C4  1  0.24090000  0.94210000  0.02050000  1.0 0.1112000289
C  C5  1  0.24090000  0.55790000  0.02050000  1.0 0.1112000289
C  C6  1  0.25910000  0.44210000  0.52050000  1.0 0.1112000289
C  C7  1  0.74090000  0.94210000  0.47950000  1.0 0.1112000289
C  C8  1  0.75910000  0.05790000  0.97950000  1.0 0.1112000289
C  C9  1  0.67180000  0.35810000  0.96790000  1.0 -0.0588551017
C  C10  1  0.82820000  0.64190000  0.46790000  1.0 -0.0588551017
C  C11  1  0.17180000  0.14190000  0.53210000  1.0 -0.0588551017
C  C12  1  0.32820000  0.85810000  0.03210000  1.0 -0.0588551017
C  C13  1  0.32820000  0.64190000  0.03210000  1.0 -0.0588551017
C  C14  1  0.17180000  0.35810000  0.53210000  1.0 -0.0588551017
C  C15  1  0.82820000  0.85810000  0.46790000  1.0 -0.0588551017
C  C16  1  0.67180000  0.14190000  0.96790000  1.0 -0.0588551017
C  C17  1  0.69060000  0.38830000  0.93920000  1.0 -0.0588551017
C  C18  1  0.80940000  0.61170000  0.43920000  1.0 -0.0588551017
C  C19  1  0.19060000  0.11170000  0.56080000  1.0 -0.0588551017
C  C20  1  0.30940000  0.88830000  0.06080000  1.0 -0.0588551017
C  C21  1  0.30940000  0.61170000  0.06080000  1.0 -0.0588551017
C  C22  1  0.19060000  0.38830000  0.56080000  1.0 -0.0588551017
C  C23  1  0.80940000  0.88830000  0.43920000  1.0 -0.0588551017
C  C24  1  0.69060000  0.11170000  0.93920000  1.0 -0.0588551017
C  C25  1  0.81250000  0.43330000  0.85600000  1.0 0.0680531225
C  C26  1  0.68750000  0.56670000  0.35600000  1.0 0.0680531225
C  C27  1  0.31250000  0.06670000  0.64400000  1.0 0.0680531225
C  C28  1  0.18750000  0.93330000  0.14400000  1.0 0.0680531225
C  C29  1  0.18750000  0.56670000  0.14400000  1.0 0.0680531225
C  C30  1  0.31250000  0.43330000  0.64400000  1.0 0.0680531225
C  C31  1  0.68750000  0.93330000  0.35600000  1.0 0.0680531225
C  C32  1  0.81250000  0.06670000  0.85600000  1.0 0.0680531225
C  C33  1  0.65610000  0.47320000  0.82350000  1.0 -0.0588551017
C  C34  1  0.84390000  0.52680000  0.32350000  1.0 -0.0588551017
C  C35  1  0.15610000  0.02680000  0.67650000  1.0 -0.0588551017
C  C36  1  0.34390000  0.97320000  0.17650000  1.0 -0.0588551017
C  C37  1  0.34390000  0.52680000  0.17650000  1.0 -0.0588551017
C  C38  1  0.15610000  0.47320000  0.67650000  1.0 -0.0588551017
C  C39  1  0.84390000  0.97320000  0.32350000  1.0 -0.0588551017
C  C40  1  0.65610000  0.02680000  0.82350000  1.0 -0.0588551017
C  C41  1  0.66150000  0.50490000  0.85200000  1.0 -0.0493853754
C  C42  1  0.83850000  0.49510000  0.35200000  1.0 -0.0493853754
C  C43  1  0.16150000  0.99510000  0.64800000  1.0 -0.0493853754
C  C44  1  0.33850000  0.00490000  0.14800000  1.0 -0.0493853754
C  C45  1  0.33850000  0.49510000  0.14800000  1.0 -0.0493853754
C  C46  1  0.16150000  0.50490000  0.64800000  1.0 -0.0493853754
C  C47  1  0.83850000  0.00490000  0.35200000  1.0 -0.0493853754
C  C48  1  0.66150000  0.99510000  0.85200000  1.0 -0.0493853754
C  C49  1  0.55280000  0.56130000  0.94330000  1.0 0.1112000289
C  C50  1  0.94720000  0.43870000  0.44330000  1.0 0.1112000289
C  C51  1  0.05280000  0.93870000  0.55670000  1.0 0.1112000289
C  C52  1  0.44720000  0.06130000  0.05670000  1.0 0.1112000289
C  C53  1  0.44720000  0.43870000  0.05670000  1.0 0.1112000289
C  C54  1  0.05280000  0.56130000  0.55670000  1.0 0.1112000289
C  C55  1  0.94720000  0.06130000  0.44330000  1.0 0.1112000289
C  C56  1  0.55280000  0.93870000  0.94330000  1.0 0.1112000289
C  C57  1  0.56920000  0.65230000  0.92810000  1.0 -0.0588551017
C  C58  1  0.93080000  0.34770000  0.42810000  1.0 -0.0588551017
C  C59  1  0.06920000  0.84770000  0.57190000  1.0 -0.0588551017
C  C60  1  0.43080000  0.15230000  0.07190000  1.0 -0.0588551017
C  C61  1  0.43080000  0.34770000  0.07190000  1.0 -0.0588551017
C  C62  1  0.06920000  0.65230000  0.57190000  1.0 -0.0588551017
C  C63  1  0.93080000  0.15230000  0.42810000  1.0 -0.0588551017
C  C64  1  0.56920000  0.84770000  0.92810000  1.0 -0.0588551017
C  C65  1  0.68920000  0.62340000  0.91850000  1.0 -0.0653520951
C  C66  1  0.81080000  0.37660000  0.41850000  1.0 -0.0653520951
C  C67  1  0.18920000  0.87660000  0.58150000  1.0 -0.0653520951
C  C68  1  0.31080000  0.12340000  0.08150000  1.0 -0.0653520951
C  C69  1  0.31080000  0.37660000  0.08150000  1.0 -0.0653520951
C  C70  1  0.18920000  0.62340000  0.58150000  1.0 -0.0653520951
C  C71  1  0.81080000  0.12340000  0.41850000  1.0 -0.0653520951
C  C72  1  0.68920000  0.87660000  0.91850000  1.0 -0.0653520951
C  C73  1  0.95480000  0.43810000  0.05770000  1.0 0.1010142286
C  C74  1  0.54520000  0.56190000  0.55770000  1.0 0.1010142286
C  C75  1  0.45480000  0.06190000  0.44230000  1.0 0.1010142286
C  C76  1  0.04520000  0.93810000  0.94230000  1.0 0.1112000289
C  C77  1  0.04520000  0.56190000  0.94230000  1.0 0.1112000289
C  C78  1  0.45480000  0.43810000  0.44230000  1.0 0.1010142286
C  C79  1  0.54520000  0.93810000  0.55770000  1.0 0.1010142286
C  C80  1  0.95480000  0.06190000  0.05770000  1.0 0.1010142286
C  C81  1  0.90870000  0.48130000  0.10380000  1.0 -0.0493853754
C  C82  1  0.59130000  0.51870000  0.60380000  1.0 -0.0493853754
C  C83  1  0.40870000  0.01870000  0.39620000  1.0 -0.0493853754
C  C84  1  0.09130000  0.98130000  0.89620000  1.0 -0.0493853754
C  C85  1  0.09130000  0.51870000  0.89620000  1.0 -0.0493853754
C  C86  1  0.40870000  0.48130000  0.39620000  1.0 -0.0493853754
C  C87  1  0.59130000  0.98130000  0.60380000  1.0 -0.0493853754
C  C88  1  0.90870000  0.01870000  0.10380000  1.0 -0.0493853754
C  C89  1  0.78810000  0.45380000  0.09290000  1.0 -0.0588551017
C  C90  1  0.71190000  0.54620000  0.59290000  1.0 -0.0588551017
C  C91  1  0.28810000  0.04620000  0.40710000  1.0 -0.0588551017
C  C92  1  0.21190000  0.95380000  0.90710000  1.0 -0.0588551017
C  C93  1  0.21190000  0.54620000  0.90710000  1.0 -0.0588551017
C  C94  1  0.28810000  0.45380000  0.40710000  1.0 -0.0588551017
C  C95  1  0.71190000  0.95380000  0.59290000  1.0 -0.0588551017
C  C96  1  0.78810000  0.04620000  0.09290000  1.0 -0.0588551017
C  C97  1  0.53840000  0.36340000  0.74970000  1.0 0.0824355035
C  C98  1  0.96160000  0.63660000  0.24970000  1.0 0.0824355035
C  C99  1  0.03840000  0.13660000  0.75030000  1.0 0.0824355035
C  C100  1  0.46160000  0.86340000  0.25030000  1.0 0.0824355035
C  C101  1  0.46160000  0.63660000  0.25030000  1.0 0.0824355035
C  C102  1  0.03840000  0.36340000  0.75030000  1.0 0.0824355035
C  C103  1  0.96160000  0.86340000  0.24970000  1.0 0.0824355035
C  C104  1  0.53840000  0.13660000  0.74970000  1.0 0.0824355035
C  C105  1  0.56980000  0.43530000  0.71450000  1.0 -0.0653520951
C  C106  1  0.93020000  0.56470000  0.21450000  1.0 -0.0653520951
C  C107  1  0.06980000  0.06470000  0.78550000  1.0 -0.0653520951
C  C108  1  0.43020000  0.93530000  0.28550000  1.0 -0.0653520951
C  C109  1  0.43020000  0.56470000  0.28550000  1.0 -0.0653520951
C  C110  1  0.06980000  0.43530000  0.78550000  1.0 -0.0653520951
C  C111  1  0.93020000  0.93530000  0.21450000  1.0 -0.0653520951
C  C112  1  0.56980000  0.06470000  0.71450000  1.0 -0.0653520951
C  C113  1  0.68560000  0.43680000  0.73410000  1.0 -0.0345005878
C  C114  1  0.81440000  0.56320000  0.23410000  1.0 -0.0345005878
C  C115  1  0.18560000  0.06320000  0.76590000  1.0 -0.0356359147
C  C116  1  0.31440000  0.93680000  0.26590000  1.0 -0.0345005878
C  C117  1  0.31440000  0.56320000  0.26590000  1.0 -0.0345005878
C  C118  1  0.18560000  0.43680000  0.76590000  1.0 -0.0356359147
C  C119  1  0.81440000  0.93680000  0.23410000  1.0 -0.0345005878
C  C120  1  0.68560000  0.06320000  0.73410000  1.0 -0.0345005878
C  C121  1  0.70390000  0.25000000  0.03600000  1.0 0.1304139531
C  C122  1  0.79610000  0.75000000  0.53600000  1.0 0.1304139531
C  C123  1  0.20390000  0.25000000  0.46400000  1.0 0.1304139531
C  C124  1  0.29610000  0.75000000  0.96400000  1.0 0.1304139531
C  C125  1  0.85330000  0.27890000  0.06970000  1.0 -0.0588551017
C  C126  1  0.64670000  0.72110000  0.56970000  1.0 -0.0588551017
C  C127  1  0.35330000  0.22110000  0.43030000  1.0 -0.0588551017
C  C128  1  0.14670000  0.77890000  0.93030000  1.0 -0.0588551017
C  C129  1  0.14670000  0.72110000  0.93030000  1.0 -0.0588551017
C  C130  1  0.35330000  0.27890000  0.43030000  1.0 -0.0588551017
C  C131  1  0.64670000  0.77890000  0.56970000  1.0 -0.0588551017
C  C132  1  0.85330000  0.22110000  0.06970000  1.0 -0.0588551017
C  C133  1  0.79900000  0.25000000  0.78950000  1.0 0.0594678539
C  C134  1  0.70100000  0.75000000  0.28950000  1.0 0.0594678539
C  C135  1  0.29900000  0.25000000  0.71050000  1.0 0.0594678539
C  C136  1  0.20100000  0.75000000  0.21050000  1.0 0.0594678539
C  C137  1  0.73270000  0.27890000  0.83870000  1.0 -0.0588551017
C  C138  1  0.76730000  0.72110000  0.33870000  1.0 -0.0588551017
C  C139  1  0.23270000  0.22110000  0.66130000  1.0 -0.0588551017
C  C140  1  0.26730000  0.77890000  0.16130000  1.0 -0.0588551017
C  C141  1  0.26730000  0.72110000  0.16130000  1.0 -0.0588551017
C  C142  1  0.23270000  0.27890000  0.66130000  1.0 -0.0588551017
C  C143  1  0.76730000  0.77890000  0.33870000  1.0 -0.0588551017
C  C144  1  0.73270000  0.22110000  0.83870000  1.0 -0.0588551017
N  N1  1  0.74970000  0.44120000  0.94650000  1.0 -0.3178903101
N  N2  1  0.75030000  0.55880000  0.44650000  1.0 -0.3178903101
N  N3  1  0.24970000  0.05880000  0.55350000  1.0 -0.3178903101
N  N4  1  0.25030000  0.94120000  0.05350000  1.0 -0.3178903101
N  N5  1  0.25030000  0.55880000  0.05350000  1.0 -0.3178903101
N  N6  1  0.24970000  0.44120000  0.55350000  1.0 -0.3178903101
N  N7  1  0.75030000  0.94120000  0.44650000  1.0 -0.3178903101
N  N8  1  0.74970000  0.05880000  0.94650000  1.0 -0.3178903101
N  N9  1  0.71420000  0.39250000  0.99328000  1.0 -0.3094132745
N  N10  1  0.78580000  0.60750000  0.49328000  1.0 -0.3094132745
N  N11  1  0.21420000  0.10750000  0.50672000  1.0 -0.3094132745
N  N12  1  0.28580000  0.89250000  0.00672000  1.0 -0.3094132745
N  N13  1  0.28580000  0.60750000  0.00672000  1.0 -0.3094132745
N  N14  1  0.21420000  0.39250000  0.50672000  1.0 -0.3094132745
N  N15  1  0.78580000  0.89250000  0.49328000  1.0 -0.3094132745
N  N16  1  0.71420000  0.10750000  0.99328000  1.0 -0.3094132745
N  N17  1  0.75430000  0.47810000  0.87299000  1.0 -0.3178903101
N  N18  1  0.74570000  0.52190000  0.37299000  1.0 -0.3178903101
N  N19  1  0.25430000  0.02190000  0.62701000  1.0 -0.3178903101
N  N20  1  0.24570000  0.97810000  0.12701000  1.0 -0.3178903101
N  N21  1  0.24570000  0.52190000  0.12701000  1.0 -0.3178903101
N  N22  1  0.25430000  0.47810000  0.62701000  1.0 -0.3178903101
N  N23  1  0.74570000  0.97810000  0.37299000  1.0 -0.3178903101
N  N24  1  0.75430000  0.02190000  0.87299000  1.0 -0.3178903101
N  N25  1  0.75480000  0.42990000  0.82595000  1.0 -0.3094132745
N  N26  1  0.74520000  0.57010000  0.32595000  1.0 -0.3094132745
N  N27  1  0.25480000  0.07010000  0.67405000  1.0 -0.3094132745
N  N28  1  0.24520000  0.92990000  0.17405000  1.0 -0.3094132745
N  N29  1  0.24520000  0.57010000  0.17405000  1.0 -0.3094132745
N  N30  1  0.25480000  0.42990000  0.67405000  1.0 -0.3094132745
N  N31  1  0.74520000  0.92990000  0.32595000  1.0 -0.3094132745
N  N32  1  0.75480000  0.07010000  0.82595000  1.0 -0.3094132745
N  N33  1  0.67940000  0.56630000  0.92830000  1.0 -0.3178903101
N  N34  1  0.82060000  0.43370000  0.42830000  1.0 -0.3178903101
N  N35  1  0.17940000  0.93370000  0.57170000  1.0 -0.3178903101
N  N36  1  0.32060000  0.06630000  0.07170000  1.0 -0.3178903101
N  N37  1  0.32060000  0.43370000  0.07170000  1.0 -0.3178903101
N  N38  1  0.17940000  0.56630000  0.57170000  1.0 -0.3178903101
N  N39  1  0.82060000  0.06630000  0.42830000  1.0 -0.3178903101
N  N40  1  0.67940000  0.93370000  0.92830000  1.0 -0.3178903101
N  N41  1  0.48680000  0.61290000  0.94460000  1.0 -0.3094132745
N  N42  1  0.01320000  0.38710000  0.44460000  1.0 -0.3094132745
N  N43  1  0.98680000  0.88710000  0.55540000  1.0 -0.3094132745
N  N44  1  0.51320000  0.11290000  0.05540000  1.0 -0.3094132745
N  N45  1  0.51320000  0.38710000  0.05540000  1.0 -0.3094132745
N  N46  1  0.98680000  0.61290000  0.55540000  1.0 -0.3094132745
N  N47  1  0.01320000  0.11290000  0.44460000  1.0 -0.3094132745
N  N48  1  0.48680000  0.88710000  0.94460000  1.0 -0.3094132745
N  N49  1  0.81770000  0.42760000  0.06370000  1.0 -0.3094132745
N  N50  1  0.68230000  0.57240000  0.56370000  1.0 -0.3094132745
N  N51  1  0.31770000  0.07240000  0.43630000  1.0 -0.3094132745
N  N52  1  0.18230000  0.92760000  0.93630000  1.0 -0.3094132745
N  N53  1  0.18230000  0.57240000  0.93630000  1.0 -0.3094132745
N  N54  1  0.31770000  0.42760000  0.43630000  1.0 -0.3094132745
N  N55  1  0.68230000  0.92760000  0.56370000  1.0 -0.3094132745
N  N56  1  0.81770000  0.07240000  0.06370000  1.0 -0.3094132745
N  N57  1  0.01080000  0.47340000  0.08070000  1.0 -0.3094132745
N  N58  1  0.48920000  0.52660000  0.58070000  1.0 -0.3094132745
N  N59  1  0.51080000  0.02660000  0.41930000  1.0 -0.3094132745
N  N60  1  0.98920000  0.97340000  0.91930000  1.0 -0.3094132745
N  N61  1  0.98920000  0.52660000  0.91930000  1.0 -0.3094132745
N  N62  1  0.51080000  0.47340000  0.41930000  1.0 -0.3094132745
N  N63  1  0.48920000  0.97340000  0.58070000  1.0 -0.3094132745
N  N64  1  0.01080000  0.02660000  0.08070000  1.0 -0.3094132745
N  N65  1  0.67320000  0.39450000  0.75680000  1.0 -0.3302143627
N  N66  1  0.82680000  0.60550000  0.25680000  1.0 -0.3302143627
N  N67  1  0.17320000  0.10550000  0.74320000  1.0 -0.3302143627
N  N68  1  0.32680000  0.89450000  0.24320000  1.0 -0.3302143627
N  N69  1  0.32680000  0.60550000  0.24320000  1.0 -0.3302143627
N  N70  1  0.17320000  0.39450000  0.74320000  1.0 -0.3302143627
N  N71  1  0.82680000  0.89450000  0.25680000  1.0 -0.3302143627
N  N72  1  0.67320000  0.10550000  0.75680000  1.0 -0.3302143627
N  N73  1  0.48290000  0.39050000  0.72360000  1.0 -0.3019101509
N  N74  1  0.01710000  0.60950000  0.22360000  1.0 -0.3019101509
N  N75  1  0.98290000  0.10950000  0.77640000  1.0 -0.3019101509
N  N76  1  0.51710000  0.89050000  0.27640000  1.0 -0.3019101509
N  N77  1  0.51710000  0.60950000  0.27640000  1.0 -0.3019101509
N  N78  1  0.98290000  0.39050000  0.77640000  1.0 -0.3019101509
N  N79  1  0.01710000  0.89050000  0.22360000  1.0 -0.3019101509
N  N80  1  0.48290000  0.10950000  0.72360000  1.0 -0.3019101509
N  N81  1  0.75700000  0.29680000  0.04830000  1.0 -0.289480947
N  N82  1  0.74300000  0.70320000  0.54830000  1.0 -0.289480947
N  N83  1  0.25700000  0.20320000  0.45170000  1.0 -0.289480947
N  N84  1  0.24300000  0.79680000  0.95170000  1.0 -0.289480947
N  N85  1  0.24300000  0.70320000  0.95170000  1.0 -0.289480947
N  N86  1  0.25700000  0.29680000  0.45170000  1.0 -0.289480947
N  N87  1  0.74300000  0.79680000  0.54830000  1.0 -0.289480947
N  N88  1  0.75700000  0.20320000  0.04830000  1.0 -0.289480947
N  N89  1  0.77440000  0.29650000  0.80850000  1.0 -0.289480947
N  N90  1  0.72560000  0.70350000  0.30850000  1.0 -0.289480947
N  N91  1  0.27440000  0.20350000  0.69150000  1.0 -0.289480947
N  N92  1  0.22560000  0.79650000  0.19150000  1.0 -0.289480947
N  N93  1  0.22560000  0.70350000  0.19150000  1.0 -0.289480947
N  N94  1  0.27440000  0.29650000  0.69150000  1.0 -0.289480947
N  N95  1  0.72560000  0.79650000  0.30850000  1.0 -0.289480947
N  N96  1  0.77440000  0.20350000  0.80850000  1.0 -0.289480947
