# DDEC6 charges by PACMAN v1.1 (https://github.com/mtap-research/PACMAN-charge/)
data_PALJAR_FSR_pacman
_symmetry_space_group_name_H-M   'P 1'
_cell_length_a   9.55530000
_cell_length_b   9.66870000
_cell_length_c   10.17790000
_cell_angle_alpha   101.45300000
_cell_angle_beta   111.78000000
_cell_angle_gamma   110.72900000
_symmetry_Int_Tables_number   1
_chemical_formula_structural   PrP3C3SNO13
_chemical_formula_sum   'Pr2 P6 C6 S2 N2 O26'
_cell_volume   755.45186426
_cell_formula_units_Z   2
loop_
 _symmetry_equiv_pos_site_id
 _symmetry_equiv_pos_as_xyz
  1  'x, y, z'
loop_
 _atom_site_type_symbol
 _atom_site_label
 _atom_site_symmetry_multiplicity
 _atom_site_fract_x
 _atom_site_fract_y
 _atom_site_fract_z
 _atom_site_occupancy
 _atom_site_charge
Pr  Pr1  1  0.74230000  0.94300000  0.88390000  1.0 2.2687138914
Pr  Pr2  1  0.25770000  0.05700000  0.11610000  1.0 2.2687138914
P  P1  1  0.09780000  0.35750000  0.04890000  1.0 1.2706490158
P  P2  1  0.97620000  0.98050000  0.72980000  1.0 1.2325096328
P  P3  1  0.26460000  0.59610000  0.71120000  1.0 1.2361356615
P  P4  1  0.90220000  0.64250000  0.95110000  1.0 1.2706490158
P  P5  1  0.02380000  0.01950000  0.27020000  1.0 1.2325096328
P  P6  1  0.73540000  0.40390000  0.28880000  1.0 1.2325096328
C  C1  1  0.06500000  0.39200000  0.87620000  1.0 -0.018637227
C  C2  1  0.14470000  0.17900000  0.80740000  1.0 -0.3520599754
C  C3  1  0.26100000  0.43120000  0.76200000  1.0 0.0117688445
C  C4  1  0.93500000  0.60800000  0.12380000  1.0 -0.018637227
C  C5  1  0.85530000  0.82100000  0.19260000  1.0 -0.3520599754
C  C6  1  0.73900000  0.56880000  0.23800000  1.0 0.0117688445
S  S1  1  0.57400000  0.90130000  0.14620000  1.0 1.4492810963
S  S2  1  0.42600000  0.09870000  0.85380000  1.0 1.4492810963
N  N1  1  0.12100000  0.31650000  0.77740000  1.0 0.2564991488
N  N2  1  0.87900000  0.68350000  0.22260000  1.0 0.2564991488
O  O1  1  0.92690000  0.23820000  0.03140000  1.0 -0.6467871071
O  O2  1  0.22800000  0.29840000  0.11030000  1.0 -0.7234707476
O  O3  1  0.17300000  0.52500000  0.16900000  1.0 -0.4687771202
O  O4  1  0.78820000  0.94700000  0.65960000  1.0 -0.7234707476
O  O5  1  0.99400000  0.86630000  0.61520000  1.0 -0.3005269767
O  O6  1  0.99000000  0.92480000  0.86830000  1.0 -0.8538666369
O  O7  1  0.17180000  0.55700000  0.53820000  1.0 -0.4687771202
O  O8  1  0.20400000  0.69500000  0.79250000  1.0 -0.4995891155
O  O9  1  0.45380000  0.71390000  0.75660000  1.0 -0.7737146021
O  O10  1  0.59600000  0.97600000  0.03100000  1.0 -0.4418575765
O  O11  1  0.45000000  0.93900000  0.19110000  1.0 -0.6467871071
O  O12  1  0.50200000  0.71850000  0.07970000  1.0 -0.4834906162
O  O13  1  0.75210000  0.97500000  0.29220000  1.0 -0.3219316007
O  O14  1  0.07310000  0.76180000  0.96860000  1.0 -0.6467871071
O  O15  1  0.77200000  0.70160000  0.88970000  1.0 -0.7234707476
O  O16  1  0.82700000  0.47500000  0.83100000  1.0 -0.4687771202
O  O17  1  0.21180000  0.05300000  0.34040000  1.0 -0.7234707476
O  O18  1  0.00600000  0.13370000  0.38480000  1.0 -0.3005269767
O  O19  1  0.01000000  0.07520000  0.13170000  1.0 -0.8538666369
O  O20  1  0.82820000  0.44300000  0.46180000  1.0 -0.4687771202
O  O21  1  0.79600000  0.30500000  0.20750000  1.0 -0.4995891155
O  O22  1  0.54620000  0.28610000  0.24340000  1.0 -0.7737146021
O  O23  1  0.40400000  0.02400000  0.96900000  1.0 -0.4418575765
O  O24  1  0.55000000  0.06100000  0.80890000  1.0 -0.6467871071
O  O25  1  0.49800000  0.28150000  0.92030000  1.0 -0.4834906162
O  O26  1  0.24790000  0.02500000  0.70780000  1.0 -0.3219316007
