# DDEC6 charges by PACMAN v1.1 (https://github.com/mtap-research/PACMAN-charge/)
data_PALTUU_ion_pacman
_symmetry_space_group_name_H-M   'P 1'
_cell_length_a   8.86380000
_cell_length_b   11.10970000
_cell_length_c   11.54410000
_cell_angle_alpha   90.00000000
_cell_angle_beta   107.87800000
_cell_angle_gamma   90.00000000
_symmetry_Int_Tables_number   1
_chemical_formula_structural   U2Cr3H18C4N2O17
_chemical_formula_sum   'U4 Cr6 H36 C8 N4 O34'
_cell_volume   1081.90235249
_cell_formula_units_Z   2
loop_
 _symmetry_equiv_pos_site_id
 _symmetry_equiv_pos_as_xyz
  1  'x, y, z'
loop_
 _atom_site_type_symbol
 _atom_site_label
 _atom_site_symmetry_multiplicity
 _atom_site_fract_x
 _atom_site_fract_y
 _atom_site_fract_z
 _atom_site_occupancy
 _atom_site_charge
U  U1  1  0.43346000  0.49448000  0.08458000  1.0 2.6785342616
U  U2  1  0.51200000  0.08201000  0.39075000  1.0 2.6309325618
U  U3  1  0.56654000  0.99448000  0.91542000  1.0 2.6785342616
U  U4  1  0.48800000  0.58201000  0.60925000  1.0 2.6309325618
Cr  Cr1  1  0.27869000  0.16453000  0.06668000  1.0 1.8718252105
Cr  Cr2  1  0.29185000  0.38893000  0.34566000  1.0 1.8718252105
Cr  Cr3  1  0.58136000  0.81603000  0.22129000  1.0 1.8718252105
Cr  Cr4  1  0.72131000  0.66453000  0.93332000  1.0 1.8759902639
Cr  Cr5  1  0.70815000  0.88893000  0.65434000  1.0 1.8718252105
Cr  Cr6  1  0.41864000  0.31603000  0.77871000  1.0 1.8718252105
H  H1  1  0.66320000  0.27670000  0.57230000  1.0 0.4200110359
H  H2  1  0.57070000  0.19030000  0.64100000  1.0 0.4279707295
H  H3  1  0.33680000  0.77670000  0.42770000  1.0 0.4200110359
H  H4  1  0.42930000  0.69030000  0.35900000  1.0 0.4279707295
H  H5  1  0.11960000  0.81880000  0.61650000  1.0 0.1516560736
H  H6  1  0.09530000  0.80210000  0.47130000  1.0 0.1316255925
H  H7  1  0.24630000  0.87860000  0.55620000  1.0 0.1401218218
H  H8  1  0.07920000  0.04400000  0.48820000  1.0 0.2388077972
H  H9  1  0.92800000  0.97140000  0.52620000  1.0 0.2737210912
H  H10  1  0.17910000  0.10710000  0.60880000  1.0 0.1401218218
H  H11  1  0.99650000  0.11690000  0.61170000  1.0 0.1214281988
H  H12  1  0.11670000  0.01800000  0.69700000  1.0 0.1401218218
H  H13  1  0.84300000  0.38520000  0.75120000  1.0 0.1401218218
H  H14  1  0.00230000  0.30160000  0.78670000  1.0 0.1516560736
H  H15  1  0.84320000  0.25450000  0.81590000  1.0 0.1516560736
H  H16  1  0.05020000  0.44450000  0.93670000  1.0 0.2929202837
H  H17  1  0.87470000  0.42970000  0.95040000  1.0 0.1214281988
H  H18  1  0.88230000  0.26660000  0.03920000  1.0 0.1691383791
H  H19  1  0.88780000  0.40600000  0.08530000  1.0 0.1691383791
H  H20  1  0.74780000  0.36230000  0.96400000  1.0 0.1401218218
H  H21  1  0.88040000  0.31880000  0.38350000  1.0 0.1516560736
H  H22  1  0.90470000  0.30210000  0.52870000  1.0 0.1316255925
H  H23  1  0.75370000  0.37860000  0.44380000  1.0 0.1401218218
H  H24  1  0.92080000  0.54400000  0.51180000  1.0 0.2388077972
H  H25  1  0.07200000  0.47140000  0.47380000  1.0 0.2737210912
H  H26  1  0.82090000  0.60710000  0.39120000  1.0 0.1401218218
H  H27  1  0.00350000  0.61690000  0.38830000  1.0 0.1214281988
H  H28  1  0.88330000  0.51800000  0.30300000  1.0 0.1401218218
H  H29  1  0.15700000  0.88520000  0.24880000  1.0 0.1401218218
H  H30  1  0.99770000  0.80160000  0.21330000  1.0 0.1516560736
H  H31  1  0.15680000  0.75450000  0.18410000  1.0 0.1516560736
H  H32  1  0.94980000  0.94450000  0.06330000  1.0 0.2929202837
H  H33  1  0.12530000  0.92970000  0.04960000  1.0 0.1214281988
H  H34  1  0.11770000  0.76660000  0.96080000  1.0 0.1691383791
H  H35  1  0.11220000  0.90600000  0.91470000  1.0 0.1691383791
H  H36  1  0.25220000  0.86230000  0.03600000  1.0 0.1401218218
C  C1  1  0.13210000  0.85830000  0.54210000  1.0 -0.2913711297
C  C2  1  0.08630000  0.06050000  0.61670000  1.0 -0.3280424702
C  C3  1  0.90860000  0.32680000  0.81190000  1.0 -0.2746401208
C  C4  1  0.86200000  0.35230000  0.01230000  1.0 -0.3016799169
C  C5  1  0.86790000  0.35830000  0.45790000  1.0 -0.2913711297
C  C6  1  0.91370000  0.56050000  0.38330000  1.0 -0.3280424702
C  C7  1  0.09140000  0.82680000  0.18810000  1.0 -0.2755798476
C  C8  1  0.13800000  0.85230000  0.98770000  1.0 -0.3016799169
N  N1  1  0.03600000  0.97000000  0.51600000  1.0 -0.1033521111
N  N2  1  0.96440000  0.38530000  0.93450000  1.0 -0.0631360936
N  N3  1  0.96400000  0.47000000  0.48400000  1.0 -0.1033521111
N  N4  1  0.03560000  0.88530000  0.06550000  1.0 -0.0631360936
O  O1  1  0.71350000  0.96340000  0.52700000  1.0 -0.8684552687
O  O2  1  0.30950000  0.10770000  0.20710000  1.0 -0.8684552687
O  O3  1  0.66390000  0.12170000  0.32400000  1.0 -0.6692503321
O  O4  1  0.36520000  0.04310000  0.46040000  1.0 -0.6775911527
O  O5  1  0.60880000  0.42240000  0.17580000  1.0 -0.6392707604
O  O6  1  0.28130000  0.31740000  0.07060000  1.0 -0.9033866006
O  O7  1  0.58270000  0.61380000  0.99030000  1.0 -0.8531996685
O  O8  1  0.48690000  0.88830000  0.31090000  1.0 -0.9206036109
O  O9  1  0.32140000  0.49360000  0.24950000  1.0 -0.8205308991
O  O10  1  0.43900000  0.28950000  0.38110000  1.0 -0.8531996685
O  O11  1  0.25440000  0.56430000  0.98980000  1.0 -0.6692503321
O  O12  1  0.12240000  0.32200000  0.28860000  1.0 -0.5911822992
O  O13  1  0.51170000  0.67590000  0.20090000  1.0 -0.8377853709
O  O14  1  0.10390000  0.12450000  0.98230000  1.0 -0.6136544424
O  O15  1  0.45690000  0.38660000  0.91180000  1.0 -0.860177316
O  O16  1  0.77090000  0.81620000  0.29240000  1.0 -0.6459772068
O  O17  1  0.64280000  0.19100000  0.58920000  1.0 -0.7941300946
O  O18  1  0.28650000  0.46340000  0.47300000  1.0 -0.8684552687
O  O19  1  0.69050000  0.60770000  0.79290000  1.0 -0.8684552687
O  O20  1  0.33610000  0.62170000  0.67600000  1.0 -0.6692503321
O  O21  1  0.63480000  0.54310000  0.53960000  1.0 -0.6775911527
O  O22  1  0.39120000  0.92240000  0.82420000  1.0 -0.6392707604
O  O23  1  0.71870000  0.81740000  0.92940000  1.0 -0.9033866006
O  O24  1  0.41730000  0.11380000  0.00970000  1.0 -0.8531996685
O  O25  1  0.51310000  0.38830000  0.68910000  1.0 -0.9206036109
O  O26  1  0.67860000  0.99360000  0.75050000  1.0 -0.8205308991
O  O27  1  0.56100000  0.78950000  0.61890000  1.0 -0.8531996685
O  O28  1  0.74560000  0.06430000  0.01020000  1.0 -0.6692503321
O  O29  1  0.87760000  0.82200000  0.71140000  1.0 -0.5911822992
O  O30  1  0.48830000  0.17590000  0.79910000  1.0 -0.8377853709
O  O31  1  0.89610000  0.62450000  0.01770000  1.0 -0.6136544424
O  O32  1  0.54310000  0.88660000  0.08820000  1.0 -0.860177316
O  O33  1  0.22910000  0.31620000  0.70760000  1.0 -0.6459772068
O  O34  1  0.35720000  0.69100000  0.41080000  1.0 -0.7941300946
