# DDEC6 charges by PACMAN v1.1 (https://github.com/mtap-research/PACMAN-charge/)
data_PALTIH_ASR_pacman
_symmetry_space_group_name_H-M   'P 1'
_cell_length_a   27.03320000
_cell_length_b   27.03320000
_cell_length_c   18.45710000
_cell_angle_alpha   80.12320000
_cell_angle_beta   99.87680000
_cell_angle_gamma   67.59320000
_symmetry_Int_Tables_number   1
_chemical_formula_structural   Cu3H52C62(N2O3)4
_chemical_formula_sum   'Cu12 H208 C248 N32 O48'
_cell_volume   11862.26800427
_cell_formula_units_Z   4
loop_
 _symmetry_equiv_pos_site_id
 _symmetry_equiv_pos_as_xyz
  1  'x, y, z'
loop_
 _atom_site_type_symbol
 _atom_site_label
 _atom_site_symmetry_multiplicity
 _atom_site_fract_x
 _atom_site_fract_y
 _atom_site_fract_z
 _atom_site_occupancy
 _atom_site_charge
Cu  Cu1  1  0.30139000  0.77859000  0.81689000  1.0 0.8038388073
Cu  Cu2  1  0.77859000  0.30139000  0.68311000  1.0 0.8038388073
Cu  Cu3  1  0.69861000  0.22141000  0.18311000  1.0 0.8038388073
Cu  Cu4  1  0.22141000  0.69861000  0.31689000  1.0 0.8038388073
Cu  Cu5  1  0.31447000  0.83255000  0.69381000  1.0 0.8538170635
Cu  Cu6  1  0.83255000  0.31447000  0.80619000  1.0 0.8538170635
Cu  Cu7  1  0.68553000  0.16745000  0.30619000  1.0 0.8538170635
Cu  Cu8  1  0.16745000  0.68553000  0.19381000  1.0 0.8538170635
Cu  Cu9  1  0.83826000  0.77926000  0.21053000  1.0 0.8071145593
Cu  Cu10  1  0.77926000  0.83826000  0.28947000  1.0 0.8071145593
Cu  Cu11  1  0.16174000  0.22074000  0.78947000  1.0 0.8038388073
Cu  Cu12  1  0.22074000  0.16174000  0.71053000  1.0 0.8038388073
H  H1  1  0.16380000  0.74760000  0.71780000  1.0 0.1203783537
H  H2  1  0.74760000  0.16380000  0.78220000  1.0 0.1203783537
H  H3  1  0.83620000  0.25240000  0.28220000  1.0 0.1203783537
H  H4  1  0.25240000  0.83620000  0.21780000  1.0 0.1203783537
H  H5  1  0.08730000  0.74370000  0.64310000  1.0 0.1203783537
H  H6  1  0.74370000  0.08730000  0.85690000  1.0 0.1203783537
H  H7  1  0.91270000  0.25630000  0.35690000  1.0 0.1203783537
H  H8  1  0.25630000  0.91270000  0.14310000  1.0 0.1203783537
H  H9  1  0.12240000  0.80520000  0.45320000  1.0 0.1090898396
H  H10  1  0.80520000  0.12240000  0.04680000  1.0 0.1090898396
H  H11  1  0.87760000  0.19480000  0.54680000  1.0 0.1090898396
H  H12  1  0.19480000  0.87760000  0.95320000  1.0 0.1090898396
H  H13  1  0.19610000  0.81270000  0.52700000  1.0 0.1203783537
H  H14  1  0.81270000  0.19610000  0.97300000  1.0 0.1203783537
H  H15  1  0.80390000  0.18730000  0.47300000  1.0 0.1203783537
H  H16  1  0.18730000  0.80390000  0.02700000  1.0 0.1203783537
H  H17  1  0.00080000  0.73300000  0.35230000  1.0 0.1287855675
H  H18  1  0.73300000  0.00080000  0.14770000  1.0 0.1287855675
H  H19  1  0.99920000  0.26700000  0.64770000  1.0 0.1287855675
H  H20  1  0.26700000  0.99920000  0.85230000  1.0 0.1287855675
H  H21  1  0.90980000  0.84340000  0.45210000  1.0 0.1203783537
H  H22  1  0.84340000  0.90980000  0.04790000  1.0 0.1203783537
H  H23  1  0.09020000  0.15660000  0.54790000  1.0 0.1203783537
H  H24  1  0.15660000  0.09020000  0.95210000  1.0 0.1203783537
H  H25  1  0.98980000  0.83580000  0.53370000  1.0 0.1090898396
H  H26  1  0.83580000  0.98980000  0.96630000  1.0 0.1090898396
H  H27  1  0.01020000  0.16420000  0.46630000  1.0 0.1090898396
H  H28  1  0.16420000  0.01020000  0.03370000  1.0 0.1090898396
H  H29  1  0.11940000  0.71880000  0.40890000  1.0 0.1287855675
H  H30  1  0.71880000  0.11940000  0.09110000  1.0 0.1287855675
H  H31  1  0.88060000  0.28120000  0.59110000  1.0 0.1287855675
H  H32  1  0.28120000  0.88060000  0.90890000  1.0 0.1287855675
H  H33  1  0.08890000  0.67870000  0.40720000  1.0 0.1203783537
H  H34  1  0.67870000  0.08890000  0.09280000  1.0 0.1203783537
H  H35  1  0.91110000  0.32130000  0.59280000  1.0 0.1203783537
H  H36  1  0.32130000  0.91110000  0.90720000  1.0 0.1203783537
H  H37  1  0.08210000  0.62870000  0.54780000  1.0 0.1090898396
H  H38  1  0.62870000  0.08210000  0.95220000  1.0 0.1090898396
H  H39  1  0.91790000  0.37130000  0.45220000  1.0 0.1090898396
H  H40  1  0.37130000  0.91790000  0.04780000  1.0 0.1090898396
H  H41  1  0.24470000  0.60870000  0.64570000  1.0 0.1468417226
H  H42  1  0.60870000  0.24470000  0.85430000  1.0 0.1399565143
H  H43  1  0.75530000  0.39130000  0.35430000  1.0 0.1399565143
H  H44  1  0.39130000  0.75530000  0.14570000  1.0 0.1399565143
H  H45  1  0.20990000  0.67970000  0.51230000  1.0 0.1287855675
H  H46  1  0.67970000  0.20990000  0.98770000  1.0 0.1287855675
H  H47  1  0.79010000  0.32030000  0.48770000  1.0 0.1287855675
H  H48  1  0.32030000  0.79010000  0.01230000  1.0 0.1287855675
H  H49  1  0.20640000  0.55480000  0.71520000  1.0 0.1287855675
H  H50  1  0.55480000  0.20640000  0.78480000  1.0 0.1287855675
H  H51  1  0.79360000  0.44520000  0.28480000  1.0 0.1287855675
H  H52  1  0.44520000  0.79360000  0.21520000  1.0 0.1287855675
H  H53  1  0.14270000  0.58390000  0.71590000  1.0 0.1399565143
H  H54  1  0.58390000  0.14270000  0.78410000  1.0 0.1399565143
H  H55  1  0.85730000  0.41610000  0.28410000  1.0 0.1399565143
H  H56  1  0.41610000  0.85730000  0.21590000  1.0 0.1399565143
H  H57  1  0.16320000  0.53280000  0.67860000  1.0 0.1399565143
H  H58  1  0.53280000  0.16320000  0.82140000  1.0 0.1399565143
H  H59  1  0.83680000  0.46720000  0.32140000  1.0 0.1399565143
H  H60  1  0.46720000  0.83680000  0.17860000  1.0 0.1399565143
H  H61  1  0.14920000  0.90380000  0.82150000  1.0 0.1287855675
H  H62  1  0.90380000  0.14920000  0.67850000  1.0 0.1287855675
H  H63  1  0.85080000  0.09620000  0.17850000  1.0 0.1287855675
H  H64  1  0.09620000  0.85080000  0.32150000  1.0 0.1287855675
H  H65  1  0.12480000  0.07920000  0.69280000  1.0 0.1203783537
H  H66  1  0.07920000  0.12480000  0.80720000  1.0 0.1203783537
H  H67  1  0.87520000  0.92080000  0.30720000  1.0 0.1203783537
H  H68  1  0.92080000  0.87520000  0.19280000  1.0 0.1203783537
H  H69  1  0.20160000  0.00060000  0.69370000  1.0 0.1287855675
H  H70  1  0.00060000  0.20160000  0.80630000  1.0 0.1287855675
H  H71  1  0.79840000  0.99940000  0.30630000  1.0 0.1287855675
H  H72  1  0.99940000  0.79840000  0.19370000  1.0 0.1287855675
H  H73  1  0.05920000  0.93660000  0.84100000  1.0 0.1203783537
H  H74  1  0.93660000  0.05920000  0.65900000  1.0 0.1203783537
H  H75  1  0.94080000  0.06340000  0.15900000  1.0 0.1203783537
H  H76  1  0.06340000  0.94080000  0.34100000  1.0 0.1203783537
H  H77  1  0.01630000  0.98550000  0.76800000  1.0 0.0782894347
H  H78  1  0.98550000  0.01630000  0.73200000  1.0 0.0782894347
H  H79  1  0.98370000  0.01450000  0.23200000  1.0 0.0782894347
H  H80  1  0.01450000  0.98370000  0.26800000  1.0 0.069840122
H  H81  1  0.10590000  0.97530000  0.95870000  1.0 0.103080396
H  H82  1  0.97530000  0.10590000  0.54130000  1.0 0.103080396
H  H83  1  0.89410000  0.02470000  0.04130000  1.0 0.103080396
H  H84  1  0.02470000  0.89410000  0.45870000  1.0 0.103080396
H  H85  1  0.94670000  0.09770000  0.93150000  1.0 0.1399565143
H  H86  1  0.09770000  0.94670000  0.56850000  1.0 0.1399565143
H  H87  1  0.05330000  0.90230000  0.06850000  1.0 0.1399565143
H  H88  1  0.90230000  0.05330000  0.43150000  1.0 0.1399565143
H  H89  1  0.94390000  0.05690000  0.81160000  1.0 0.1090898396
H  H90  1  0.05690000  0.94390000  0.68840000  1.0 0.1090898396
H  H91  1  0.05610000  0.94310000  0.18840000  1.0 0.1090898396
H  H92  1  0.94310000  0.05610000  0.31160000  1.0 0.1090898396
H  H93  1  0.02000000  0.09760000  0.02060000  1.0 0.1468417226
H  H94  1  0.09760000  0.02000000  0.47940000  1.0 0.1468417226
H  H95  1  0.98000000  0.90240000  0.97940000  1.0 0.1468417226
H  H96  1  0.90240000  0.98000000  0.52060000  1.0 0.1468417226
H  H97  1  0.08010000  0.04890000  0.06210000  1.0 0.1399565143
H  H98  1  0.04890000  0.08010000  0.43790000  1.0 0.1399565143
H  H99  1  0.91990000  0.95110000  0.93790000  1.0 0.1399565143
H  H100  1  0.95110000  0.91990000  0.56210000  1.0 0.1399565143
H  H101  1  0.07240000  0.09660000  0.99090000  1.0 0.1399565143
H  H102  1  0.09660000  0.07240000  0.50910000  1.0 0.1399565143
H  H103  1  0.92760000  0.90340000  0.00910000  1.0 0.1399565143
H  H104  1  0.90340000  0.92760000  0.49090000  1.0 0.1399565143
H  H105  1  0.44470000  0.87470000  0.80110000  1.0 0.1203783537
H  H106  1  0.87470000  0.44470000  0.69890000  1.0 0.1203783537
H  H107  1  0.55530000  0.12530000  0.19890000  1.0 0.1287855675
H  H108  1  0.12530000  0.55530000  0.30110000  1.0 0.1203783537
H  H109  1  0.50940000  0.77980000  0.05750000  1.0 0.1090898396
H  H110  1  0.77980000  0.50940000  0.44250000  1.0 0.1090898396
H  H111  1  0.49060000  0.22020000  0.94250000  1.0 0.1090898396
H  H112  1  0.22020000  0.49060000  0.55750000  1.0 0.1090898396
H  H113  1  0.43200000  0.77840000  0.98130000  1.0 0.1090898396
H  H114  1  0.77840000  0.43200000  0.51870000  1.0 0.1090898396
H  H115  1  0.56800000  0.22160000  0.01870000  1.0 0.1090898396
H  H116  1  0.22160000  0.56800000  0.48130000  1.0 0.1090898396
H  H117  1  0.62630000  0.77110000  0.97240000  1.0 0.1203783537
H  H118  1  0.77110000  0.62630000  0.52760000  1.0 0.1203783537
H  H119  1  0.37370000  0.22890000  0.02760000  1.0 0.1203783537
H  H120  1  0.22890000  0.37370000  0.47240000  1.0 0.1203783537
H  H121  1  0.70760000  0.77700000  0.04550000  1.0 0.1203783537
H  H122  1  0.77700000  0.70760000  0.45450000  1.0 0.1203783537
H  H123  1  0.29240000  0.22300000  0.95450000  1.0 0.1203783537
H  H124  1  0.22300000  0.29240000  0.54550000  1.0 0.1203783537
H  H125  1  0.61680000  0.86460000  0.16990000  1.0 0.0436182852
H  H126  1  0.86460000  0.61680000  0.33010000  1.0 0.0436182852
H  H127  1  0.38320000  0.13540000  0.83010000  1.0 0.0436182852
H  H128  1  0.13540000  0.38320000  0.66990000  1.0 0.0436182852
H  H129  1  0.53790000  0.86550000  0.09170000  1.0 0.103080396
H  H130  1  0.86550000  0.53790000  0.40830000  1.0 0.103080396
H  H131  1  0.46210000  0.13450000  0.90830000  1.0 0.103080396
H  H132  1  0.13450000  0.46210000  0.59170000  1.0 0.103080396
H  H133  1  0.53350000  0.89850000  0.83070000  1.0 0.1203783537
H  H134  1  0.89850000  0.53350000  0.66930000  1.0 0.1203783537
H  H135  1  0.46650000  0.10150000  0.16930000  1.0 0.1203783537
H  H136  1  0.10150000  0.46650000  0.33070000  1.0 0.1203783537
H  H137  1  0.53710000  0.90890000  0.91290000  1.0 0.1203783537
H  H138  1  0.90890000  0.53710000  0.58710000  1.0 0.1203783537
H  H139  1  0.46290000  0.09110000  0.08710000  1.0 0.1203783537
H  H140  1  0.09110000  0.46290000  0.41290000  1.0 0.1203783537
H  H141  1  0.42970000  0.98250000  0.93230000  1.0 0.1090898396
H  H142  1  0.98250000  0.42970000  0.56770000  1.0 0.1090898396
H  H143  1  0.57030000  0.01750000  0.06770000  1.0 0.1090898396
H  H144  1  0.01750000  0.57030000  0.43230000  1.0 0.1090898396
H  H145  1  0.41210000  0.08350000  0.71730000  1.0 0.1399565143
H  H146  1  0.08350000  0.41210000  0.78270000  1.0 0.1399565143
H  H147  1  0.58790000  0.91650000  0.28270000  1.0 0.1399565143
H  H148  1  0.91650000  0.58790000  0.21730000  1.0 0.1399565143
H  H149  1  0.49100000  0.98440000  0.73220000  1.0 0.1203783537
H  H150  1  0.98440000  0.49100000  0.76780000  1.0 0.1203783537
H  H151  1  0.50900000  0.01560000  0.26780000  1.0 0.1203783537
H  H152  1  0.01560000  0.50900000  0.23220000  1.0 0.1203783537
H  H153  1  0.35140000  0.11900000  0.79420000  1.0 0.1090898396
H  H154  1  0.11900000  0.35140000  0.70580000  1.0 0.1090898396
H  H155  1  0.64860000  0.88100000  0.20580000  1.0 0.1090898396
H  H156  1  0.88100000  0.64860000  0.29420000  1.0 0.1090898396
H  H157  1  0.33730000  0.09130000  0.86700000  1.0 0.1203783537
H  H158  1  0.09130000  0.33730000  0.63300000  1.0 0.1203783537
H  H159  1  0.66270000  0.90870000  0.13300000  1.0 0.1203783537
H  H160  1  0.90870000  0.66270000  0.36700000  1.0 0.1203783537
H  H161  1  0.39150000  0.10310000  0.87730000  1.0 0.069840122
H  H162  1  0.10310000  0.39150000  0.62270000  1.0 0.069840122
H  H163  1  0.60850000  0.89690000  0.12270000  1.0 0.069840122
H  H164  1  0.89690000  0.60850000  0.37730000  1.0 0.069840122
H  H165  1  0.43420000  0.61880000  0.84650000  1.0 0.1203783537
H  H166  1  0.61880000  0.43420000  0.65350000  1.0 0.1203783537
H  H167  1  0.56580000  0.38120000  0.15350000  1.0 0.1203783537
H  H168  1  0.38120000  0.56580000  0.34650000  1.0 0.1203783537
H  H169  1  0.52880000  0.62160000  0.66630000  1.0 0.1203783537
H  H170  1  0.62160000  0.52880000  0.83370000  1.0 0.1203783537
H  H171  1  0.47120000  0.37840000  0.33370000  1.0 0.1203783537
H  H172  1  0.37840000  0.47120000  0.16630000  1.0 0.1203783537
H  H173  1  0.45660000  0.70180000  0.66970000  1.0 0.1287855675
H  H174  1  0.70180000  0.45660000  0.83030000  1.0 0.1287855675
H  H175  1  0.54340000  0.29820000  0.33030000  1.0 0.1287855675
H  H176  1  0.29820000  0.54340000  0.16970000  1.0 0.1287855675
H  H177  1  0.53200000  0.48920000  0.79730000  1.0 0.0782894347
H  H178  1  0.48920000  0.53200000  0.70270000  1.0 0.0782894347
H  H179  1  0.46800000  0.51080000  0.20270000  1.0 0.0782894347
H  H180  1  0.51080000  0.46800000  0.29730000  1.0 0.0782894347
H  H181  1  0.46900000  0.50360000  0.79190000  1.0 0.103080396
H  H182  1  0.50360000  0.46900000  0.70810000  1.0 0.103080396
H  H183  1  0.53100000  0.49640000  0.20810000  1.0 0.103080396
H  H184  1  0.49640000  0.53100000  0.29190000  1.0 0.103080396
H  H185  1  0.45180000  0.43720000  0.87910000  1.0 0.1090898396
H  H186  1  0.43720000  0.45180000  0.62090000  1.0 0.1090898396
H  H187  1  0.54820000  0.56280000  0.12090000  1.0 0.1090898396
H  H188  1  0.56280000  0.54820000  0.37910000  1.0 0.1090898396
H  H189  1  0.59650000  0.39010000  0.05260000  1.0 0.1399565143
H  H190  1  0.39010000  0.59650000  0.44740000  1.0 0.1399565143
H  H191  1  0.40350000  0.60990000  0.94740000  1.0 0.1399565143
H  H192  1  0.60990000  0.40350000  0.55260000  1.0 0.1399565143
H  H193  1  0.58910000  0.47570000  0.95660000  1.0 0.1203783537
H  H194  1  0.47570000  0.58910000  0.54340000  1.0 0.1203783537
H  H195  1  0.41090000  0.52430000  0.04340000  1.0 0.1203783537
H  H196  1  0.52430000  0.41090000  0.45660000  1.0 0.1203783537
H  H197  1  0.53730000  0.34250000  0.07010000  1.0 0.1468417226
H  H198  1  0.34250000  0.53730000  0.42990000  1.0 0.1468417226
H  H199  1  0.46270000  0.65750000  0.92990000  1.0 0.1468417226
H  H200  1  0.65750000  0.46270000  0.57010000  1.0 0.1468417226
H  H201  1  0.47120000  0.36900000  0.03900000  1.0 0.1399565143
H  H202  1  0.36900000  0.47120000  0.46100000  1.0 0.1399565143
H  H203  1  0.52880000  0.63100000  0.96100000  1.0 0.1399565143
H  H204  1  0.63100000  0.52880000  0.53900000  1.0 0.1399565143
H  H205  1  0.50950000  0.32890000  0.99690000  1.0 0.1399565143
H  H206  1  0.32890000  0.50950000  0.50310000  1.0 0.1399565143
H  H207  1  0.49050000  0.67110000  0.00310000  1.0 0.1399565143
H  H208  1  0.67110000  0.49050000  0.49690000  1.0 0.1399565143
C  C1  1  0.23505000  0.78601000  0.67730000  1.0 0.5649144082
C  C2  1  0.78601000  0.23505000  0.82270000  1.0 0.5649144082
C  C3  1  0.76495000  0.21399000  0.32270000  1.0 0.5649144082
C  C4  1  0.21399000  0.76495000  0.17730000  1.0 0.5649144082
C  C5  1  0.18934000  0.77952000  0.62990000  1.0 -0.0446740472
C  C6  1  0.77952000  0.18934000  0.87010000  1.0 -0.0446740472
C  C7  1  0.81066000  0.22048000  0.37010000  1.0 -0.0446740472
C  C8  1  0.22048000  0.81066000  0.12990000  1.0 -0.0446740472
C  C9  1  0.15539000  0.75967000  0.66390000  1.0 -0.1023281585
C  C10  1  0.75967000  0.15539000  0.83610000  1.0 -0.1023281585
C  C11  1  0.84461000  0.24033000  0.33610000  1.0 -0.1023281585
C  C12  1  0.24033000  0.84461000  0.16390000  1.0 -0.1023281585
C  C13  1  0.10955000  0.75755000  0.61940000  1.0 -0.1721814405
C  C14  1  0.75755000  0.10955000  0.88060000  1.0 -0.1721814405
C  C15  1  0.89045000  0.24245000  0.38060000  1.0 -0.1721814405
C  C16  1  0.24245000  0.89045000  0.11940000  1.0 -0.1721814405
C  C17  1  0.09621000  0.77557000  0.54030000  1.0 0.0643258198
C  C18  1  0.77557000  0.09621000  0.95970000  1.0 0.0643258198
C  C19  1  0.90379000  0.22443000  0.45970000  1.0 0.0643258198
C  C20  1  0.22443000  0.90379000  0.04030000  1.0 0.0643258198
C  C21  1  0.13001000  0.79441000  0.50710000  1.0 -0.1721814405
C  C22  1  0.79441000  0.13001000  0.99290000  1.0 -0.1721814405
C  C23  1  0.86999000  0.20559000  0.49290000  1.0 -0.1721814405
C  C24  1  0.20559000  0.86999000  0.00710000  1.0 -0.1721814405
C  C25  1  0.17481000  0.79763000  0.55120000  1.0 -0.1023281585
C  C26  1  0.79763000  0.17481000  0.94880000  1.0 -0.1023281585
C  C27  1  0.82519000  0.20237000  0.44880000  1.0 -0.1023281585
C  C28  1  0.20237000  0.82519000  0.05120000  1.0 -0.1023281585
C  C29  1  0.04549000  0.77729000  0.49110000  1.0 0.0046633236
C  C30  1  0.77729000  0.04549000  0.00890000  1.0 0.0046633236
C  C31  1  0.95451000  0.22271000  0.50890000  1.0 0.0046633236
C  C32  1  0.22271000  0.95451000  0.99110000  1.0 0.0046633236
C  C33  1  0.04740000  0.74744000  0.43860000  1.0 0.0310302712
C  C34  1  0.74744000  0.04740000  0.06140000  1.0 0.0310302712
C  C35  1  0.95260000  0.25256000  0.56140000  1.0 0.0310302712
C  C36  1  0.25256000  0.95260000  0.93860000  1.0 0.0310302712
C  C37  1  0.99872000  0.75394000  0.38900000  1.0 -0.1721814405
C  C38  1  0.75394000  0.99872000  0.11100000  1.0 -0.1721814405
C  C39  1  0.00128000  0.24606000  0.61100000  1.0 -0.1721814405
C  C40  1  0.24606000  0.00128000  0.88900000  1.0 -0.1721814405
C  C41  1  0.94848000  0.78988000  0.39290000  1.0 -0.0091348482
C  C42  1  0.78988000  0.94848000  0.10710000  1.0 -0.0091348482
C  C43  1  0.05152000  0.21012000  0.60710000  1.0 -0.0091348482
C  C44  1  0.21012000  0.05152000  0.89290000  1.0 -0.0091348482
C  C45  1  0.94506000  0.81966000  0.44820000  1.0 -0.1190428343
C  C46  1  0.81966000  0.94506000  0.05180000  1.0 -0.1190428343
C  C47  1  0.05494000  0.18034000  0.55180000  1.0 -0.1190428343
C  C48  1  0.18034000  0.05494000  0.94820000  1.0 -0.1190428343
C  C49  1  0.99216000  0.81496000  0.49700000  1.0 -0.1814032558
C  C50  1  0.81496000  0.99216000  0.00300000  1.0 -0.1814032558
C  C51  1  0.00784000  0.18504000  0.50300000  1.0 -0.1814032558
C  C52  1  0.18504000  0.00784000  0.99700000  1.0 -0.1814032558
C  C53  1  0.89552000  0.79788000  0.33720000  1.0 0.5407597799
C  C54  1  0.79788000  0.89552000  0.16280000  1.0 0.5407597799
C  C55  1  0.10448000  0.20212000  0.66280000  1.0 0.5407597799
C  C56  1  0.20212000  0.10448000  0.83720000  1.0 0.5407597799
C  C57  1  0.09880000  0.70240000  0.43670000  1.0 -0.1891216309
C  C58  1  0.70240000  0.09880000  0.06330000  1.0 -0.1891216309
C  C59  1  0.90120000  0.29760000  0.56330000  1.0 -0.1891216309
C  C60  1  0.29760000  0.90120000  0.93670000  1.0 -0.1891216309
C  C61  1  0.11670000  0.63110000  0.55710000  1.0 0.0853287755
C  C62  1  0.63110000  0.11670000  0.94290000  1.0 0.0782894347
C  C63  1  0.88330000  0.36890000  0.44290000  1.0 0.0853287755
C  C64  1  0.36890000  0.88330000  0.05710000  1.0 0.0853287755
C  C65  1  0.21040000  0.62240000  0.60830000  1.0 -0.2699309149
C  C66  1  0.62240000  0.21040000  0.89170000  1.0 -0.2699309149
C  C67  1  0.78960000  0.37760000  0.39170000  1.0 -0.2699309149
C  C68  1  0.37760000  0.78960000  0.10830000  1.0 -0.2699309149
C  C69  1  0.19080000  0.66160000  0.53660000  1.0 -0.0702450508
C  C70  1  0.66160000  0.19080000  0.96340000  1.0 -0.0702450508
C  C71  1  0.80920000  0.33840000  0.46340000  1.0 -0.0702450508
C  C72  1  0.33840000  0.80920000  0.03660000  1.0 -0.0702450508
C  C73  1  0.16800000  0.56580000  0.68680000  1.0 -0.3675289811
C  C74  1  0.56580000  0.16800000  0.81320000  1.0 -0.3675289811
C  C75  1  0.83200000  0.43420000  0.31320000  1.0 -0.3675289811
C  C76  1  0.43420000  0.83200000  0.18680000  1.0 -0.3675289811
C  C77  1  0.23168000  0.89376000  0.75780000  1.0 0.5474774717
C  C78  1  0.89376000  0.23168000  0.74220000  1.0 0.5474774717
C  C79  1  0.76832000  0.10624000  0.24220000  1.0 0.5474774717
C  C80  1  0.10624000  0.76832000  0.25780000  1.0 0.5474774717
C  C81  1  0.18186000  0.94544000  0.75620000  1.0 -0.0091348482
C  C82  1  0.94544000  0.18186000  0.74380000  1.0 -0.0091348482
C  C83  1  0.81814000  0.05456000  0.24380000  1.0 -0.0091348482
C  C84  1  0.05456000  0.81814000  0.25620000  1.0 -0.0091348482
C  C85  1  0.14321000  0.93947000  0.79360000  1.0 -0.2076504574
C  C86  1  0.93947000  0.14321000  0.70640000  1.0 -0.2076504574
C  C87  1  0.85679000  0.06053000  0.20640000  1.0 -0.2076504574
C  C88  1  0.06053000  0.85679000  0.29360000  1.0 -0.2076504574
C  C89  1  0.09600000  0.98534000  0.79030000  1.0 0.0436182852
C  C90  1  0.98534000  0.09600000  0.70970000  1.0 0.0436182852
C  C91  1  0.90400000  0.01466000  0.20970000  1.0 0.0436182852
C  C92  1  0.01466000  0.90400000  0.29030000  1.0 0.0436182852
C  C93  1  0.08940000  0.03854000  0.75240000  1.0 0.0215022159
C  C94  1  0.03854000  0.08940000  0.74760000  1.0 0.0215022159
C  C95  1  0.91060000  0.96146000  0.24760000  1.0 0.0215022159
C  C96  1  0.96146000  0.91060000  0.25240000  1.0 0.0215022159
C  C97  1  0.12894000  0.04348000  0.71770000  1.0 -0.1436263257
C  C98  1  0.04348000  0.12894000  0.78230000  1.0 -0.1436263257
C  C99  1  0.87106000  0.95652000  0.28230000  1.0 -0.1436263257
C  C100  1  0.95652000  0.87106000  0.21770000  1.0 -0.1436263257
C  C101  1  0.17488000  0.99686000  0.71890000  1.0 -0.1110966445
C  C102  1  0.99686000  0.17488000  0.78110000  1.0 -0.1110966445
C  C103  1  0.82512000  0.00314000  0.28110000  1.0 -0.1110966445
C  C104  1  0.00314000  0.82512000  0.21890000  1.0 -0.1110966445
C  C105  1  0.04690000  0.97570000  0.81350000  1.0 -0.1814032558
C  C106  1  0.97570000  0.04690000  0.68650000  1.0 -0.1814032558
C  C107  1  0.95310000  0.02430000  0.18650000  1.0 -0.1814032558
C  C108  1  0.02430000  0.95310000  0.31350000  1.0 -0.1814032558
C  C109  1  0.06940000  0.00360000  0.93630000  1.0 0.0215022159
C  C110  1  0.00360000  0.06940000  0.56370000  1.0 0.0215022159
C  C111  1  0.93060000  0.99640000  0.06370000  1.0 0.0215022159
C  C112  1  0.99640000  0.93060000  0.43630000  1.0 0.0310302712
C  C113  1  0.97580000  0.07200000  0.91670000  1.0 -0.3278067232
C  C114  1  0.07200000  0.97580000  0.58330000  1.0 -0.3278067232
C  C115  1  0.02420000  0.92800000  0.08330000  1.0 -0.3278067232
C  C116  1  0.92800000  0.02420000  0.41670000  1.0 -0.3278067232
C  C117  1  0.97500000  0.04880000  0.85220000  1.0 -0.1190428343
C  C118  1  0.04880000  0.97500000  0.64780000  1.0 -0.1190428343
C  C119  1  0.02500000  0.95120000  0.14780000  1.0 -0.1110966445
C  C120  1  0.95120000  0.02500000  0.35220000  1.0 -0.1190428343
C  C121  1  0.05530000  0.07370000  0.01300000  1.0 -0.364503681
C  C122  1  0.07370000  0.05530000  0.48700000  1.0 -0.364503681
C  C123  1  0.94470000  0.92630000  0.98700000  1.0 -0.364503681
C  C124  1  0.92630000  0.94470000  0.51300000  1.0 -0.364503681
C  C125  1  0.38127000  0.82305000  0.83370000  1.0 0.5407597799
C  C126  1  0.82305000  0.38127000  0.66630000  1.0 0.5407597799
C  C127  1  0.61873000  0.17695000  0.16630000  1.0 0.5407597799
C  C128  1  0.17695000  0.61873000  0.33370000  1.0 0.5407597799
C  C129  1  0.42932000  0.82774000  0.88450000  1.0 -0.0208146217
C  C130  1  0.82774000  0.42932000  0.61550000  1.0 -0.0208146217
C  C131  1  0.57068000  0.17226000  0.11550000  1.0 -0.0208146217
C  C132  1  0.17226000  0.57068000  0.38450000  1.0 -0.0208146217
C  C133  1  0.45748000  0.85564000  0.85360000  1.0 -0.1601821453
C  C134  1  0.85564000  0.45748000  0.64640000  1.0 -0.1601821453
C  C135  1  0.54252000  0.14436000  0.14640000  1.0 -0.1601821453
C  C136  1  0.14436000  0.54252000  0.35360000  1.0 -0.1601821453
C  C137  1  0.50209000  0.85649000  0.89600000  1.0 0.052591932
C  C138  1  0.85649000  0.50209000  0.60400000  1.0 0.052591932
C  C139  1  0.49791000  0.14351000  0.10400000  1.0 0.052591932
C  C140  1  0.14351000  0.49791000  0.39600000  1.0 0.052591932
C  C141  1  0.52183000  0.82963000  0.97340000  1.0 0.010727901
C  C142  1  0.82963000  0.52183000  0.52660000  1.0 0.010727901
C  C143  1  0.47817000  0.17037000  0.02660000  1.0 0.010727901
C  C144  1  0.17037000  0.47817000  0.47340000  1.0 0.010727901
C  C145  1  0.49584000  0.79964000  0.00530000  1.0 -0.1721814405
C  C146  1  0.79964000  0.49584000  0.49470000  1.0 -0.1721814405
C  C147  1  0.50416000  0.20036000  0.99470000  1.0 -0.1721814405
C  C148  1  0.20036000  0.50416000  0.50530000  1.0 -0.1814032558
C  C149  1  0.44987000  0.79907000  0.95980000  1.0 -0.1453660474
C  C150  1  0.79907000  0.44987000  0.54020000  1.0 -0.1453660474
C  C151  1  0.55013000  0.20093000  0.04020000  1.0 -0.1453660474
C  C152  1  0.20093000  0.55013000  0.45980000  1.0 -0.1453660474
C  C153  1  0.57501000  0.82601000  0.02050000  1.0 0.069840122
C  C154  1  0.82601000  0.57501000  0.47950000  1.0 0.069840122
C  C155  1  0.42499000  0.17399000  0.97950000  1.0 0.069840122
C  C156  1  0.17399000  0.42499000  0.52050000  1.0 0.069840122
C  C157  1  0.62406000  0.79286000  0.00800000  1.0 -0.1891216309
C  C158  1  0.79286000  0.62406000  0.49200000  1.0 -0.1891216309
C  C159  1  0.37594000  0.20714000  0.99200000  1.0 -0.1891216309
C  C160  1  0.20714000  0.37594000  0.50800000  1.0 -0.1891216309
C  C161  1  0.67254000  0.79454000  0.05540000  1.0 -0.1023281585
C  C162  1  0.79454000  0.67254000  0.44460000  1.0 -0.1023281585
C  C163  1  0.32746000  0.20546000  0.94460000  1.0 -0.1023281585
C  C164  1  0.20546000  0.32746000  0.55540000  1.0 -0.1023281585
C  C165  1  0.66921000  0.82095000  0.11500000  1.0 -0.0596661288
C  C166  1  0.82095000  0.66921000  0.38500000  1.0 -0.0596661288
C  C167  1  0.33079000  0.17905000  0.88500000  1.0 -0.0596661288
C  C168  1  0.17905000  0.33079000  0.61500000  1.0 -0.0596661288
C  C169  1  0.61976000  0.84736000  0.12910000  1.0 -0.0469874565
C  C170  1  0.84736000  0.61976000  0.37090000  1.0 -0.0469874565
C  C171  1  0.38024000  0.15264000  0.87090000  1.0 -0.0469874565
C  C172  1  0.15264000  0.38024000  0.62910000  1.0 -0.0469874565
C  C173  1  0.57282000  0.84842000  0.08120000  1.0 -0.2699309149
C  C174  1  0.84842000  0.57282000  0.41880000  1.0 -0.2699309149
C  C175  1  0.42718000  0.15158000  0.91880000  1.0 -0.2699309149
C  C176  1  0.15158000  0.42718000  0.58120000  1.0 -0.2699309149
C  C177  1  0.72245000  0.81697000  0.16350000  1.0 0.5407597799
C  C178  1  0.81697000  0.72245000  0.33650000  1.0 0.5407597799
C  C179  1  0.27755000  0.18303000  0.83650000  1.0 0.5407597799
C  C180  1  0.18303000  0.27755000  0.66350000  1.0 0.5407597799
C  C181  1  0.51190000  0.90690000  0.86880000  1.0 -0.1814032558
C  C182  1  0.90690000  0.51190000  0.63120000  1.0 -0.1814032558
C  C183  1  0.48810000  0.09310000  0.13120000  1.0 -0.1814032558
C  C184  1  0.09310000  0.48810000  0.36880000  1.0 -0.1814032558
C  C185  1  0.42990000  0.99370000  0.88070000  1.0 -0.0469874565
C  C186  1  0.99370000  0.42990000  0.61930000  1.0 -0.0469874565
C  C187  1  0.57010000  0.00630000  0.11930000  1.0 -0.0469874565
C  C188  1  0.00630000  0.57010000  0.38070000  1.0 -0.0469874565
C  C189  1  0.42460000  0.04960000  0.75510000  1.0 -0.3278067232
C  C190  1  0.04960000  0.42460000  0.74490000  1.0 -0.3278067232
C  C191  1  0.57540000  0.95040000  0.24490000  1.0 -0.3278067232
C  C192  1  0.95040000  0.57540000  0.25510000  1.0 -0.336394024
C  C193  1  0.46770000  0.99610000  0.76490000  1.0 -0.0469874565
C  C194  1  0.99610000  0.46770000  0.73510000  1.0 -0.0469874565
C  C195  1  0.53230000  0.00390000  0.23510000  1.0 -0.0469874565
C  C196  1  0.00390000  0.53230000  0.26490000  1.0 -0.0469874565
C  C197  1  0.36730000  0.09210000  0.84420000  1.0 -0.301804942
C  C198  1  0.09210000  0.36730000  0.65580000  1.0 -0.301804942
C  C199  1  0.63270000  0.90790000  0.15580000  1.0 -0.301804942
C  C200  1  0.90790000  0.63270000  0.34420000  1.0 -0.301804942
C  C201  1  0.38398000  0.71728000  0.75160000  1.0 0.5685956804
C  C202  1  0.71728000  0.38398000  0.74840000  1.0 0.5685956804
C  C203  1  0.61602000  0.28272000  0.24840000  1.0 0.5685956804
C  C204  1  0.28272000  0.61602000  0.25160000  1.0 0.5685956804
C  C205  1  0.43129000  0.66545000  0.74960000  1.0 -0.0033926515
C  C206  1  0.66545000  0.43129000  0.75040000  1.0 -0.0033926515
C  C207  1  0.56871000  0.33455000  0.25040000  1.0 -0.0033926515
C  C208  1  0.33455000  0.56871000  0.24960000  1.0 -0.0033926515
C  C209  1  0.44882000  0.61854000  0.80320000  1.0 -0.1891216309
C  C210  1  0.61854000  0.44882000  0.69680000  1.0 -0.1891216309
C  C211  1  0.55118000  0.38146000  0.19680000  1.0 -0.1891216309
C  C212  1  0.38146000  0.55118000  0.30320000  1.0 -0.1891216309
C  C213  1  0.48780000  0.56928000  0.79760000  1.0 0.052591932
C  C214  1  0.56928000  0.48780000  0.70240000  1.0 0.052591932
C  C215  1  0.51220000  0.43072000  0.20240000  1.0 0.052591932
C  C216  1  0.43072000  0.51220000  0.29760000  1.0 0.052591932
C  C217  1  0.52037000  0.56997000  0.74970000  1.0 -0.0091348482
C  C218  1  0.56997000  0.52037000  0.75030000  1.0 -0.0091348482
C  C219  1  0.47963000  0.43003000  0.25030000  1.0 -0.0091348482
C  C220  1  0.43003000  0.47963000  0.24970000  1.0 -0.0091348482
C  C221  1  0.50736000  0.61954000  0.70160000  1.0 -0.1601821453
C  C222  1  0.61954000  0.50736000  0.79840000  1.0 -0.1601821453
C  C223  1  0.49264000  0.38046000  0.29840000  1.0 -0.1601821453
C  C224  1  0.38046000  0.49264000  0.20160000  1.0 -0.1601821453
C  C225  1  0.46367000  0.66731000  0.70260000  1.0 -0.1267430884
C  C226  1  0.66731000  0.46367000  0.79740000  1.0 -0.1267430884
C  C227  1  0.53633000  0.33269000  0.29740000  1.0 -0.1267430884
C  C228  1  0.33269000  0.53633000  0.20260000  1.0 -0.1267430884
C  C229  1  0.50170000  0.50670000  0.82070000  1.0 -0.2231589192
C  C230  1  0.50670000  0.50170000  0.67930000  1.0 -0.2231589192
C  C231  1  0.49830000  0.49330000  0.17930000  1.0 -0.2231589192
C  C232  1  0.49330000  0.49830000  0.32070000  1.0 -0.2231589192
C  C233  1  0.48410000  0.43570000  0.91120000  1.0 0.0782894347
C  C234  1  0.43570000  0.48410000  0.58880000  1.0 0.0782894347
C  C235  1  0.51590000  0.56430000  0.08880000  1.0 0.0782894347
C  C236  1  0.56430000  0.51590000  0.41120000  1.0 0.0782894347
C  C237  1  0.56810000  0.41270000  0.00760000  1.0 -0.301804942
C  C238  1  0.41270000  0.56810000  0.49240000  1.0 -0.301804942
C  C239  1  0.43190000  0.58730000  0.99240000  1.0 -0.301804942
C  C240  1  0.58730000  0.43190000  0.50760000  1.0 -0.301804942
C  C241  1  0.56530000  0.45750000  0.95400000  1.0 -0.0926393763
C  C242  1  0.45750000  0.56530000  0.54600000  1.0 -0.0926393763
C  C243  1  0.43470000  0.54250000  0.04600000  1.0 -0.0926393763
C  C244  1  0.54250000  0.43470000  0.45400000  1.0 -0.0926393763
C  C245  1  0.50630000  0.35750000  0.02440000  1.0 -0.364503681
C  C246  1  0.35750000  0.50630000  0.47560000  1.0 -0.364503681
C  C247  1  0.49370000  0.64250000  0.97560000  1.0 -0.3675289811
C  C248  1  0.64250000  0.49370000  0.52440000  1.0 -0.364503681
N  N1  1  0.13550000  0.66750000  0.50950000  1.0 0.010727901
N  N2  1  0.66750000  0.13550000  0.99050000  1.0 0.010727901
N  N3  1  0.86450000  0.33250000  0.49050000  1.0 0.010727901
N  N4  1  0.33250000  0.86450000  0.00950000  1.0 0.010727901
N  N5  1  0.15520000  0.60680000  0.60840000  1.0 0.1287855675
N  N6  1  0.60680000  0.15520000  0.89160000  1.0 0.1287855675
N  N7  1  0.84480000  0.39320000  0.39160000  1.0 0.1287855675
N  N8  1  0.39320000  0.84480000  0.10840000  1.0 0.1287855675
N  N9  1  0.02960000  0.01180000  0.86220000  1.0 -0.0091348482
N  N10  1  0.01180000  0.02960000  0.63780000  1.0 -0.0091348482
N  N11  1  0.97040000  0.98820000  0.13780000  1.0 -0.0091348482
N  N12  1  0.98820000  0.97040000  0.36220000  1.0 -0.0091348482
N  N13  1  0.04540000  0.03900000  0.95840000  1.0 0.1399565143
N  N14  1  0.03900000  0.04540000  0.54160000  1.0 0.1399565143
N  N15  1  0.95460000  0.96100000  0.04160000  1.0 0.1399565143
N  N16  1  0.96100000  0.95460000  0.45840000  1.0 0.1399565143
N  N17  1  0.46790000  0.96430000  0.83520000  1.0 0.0310302712
N  N18  1  0.96430000  0.46790000  0.66480000  1.0 0.0310302712
N  N19  1  0.53210000  0.03570000  0.16480000  1.0 0.0310302712
N  N20  1  0.03570000  0.53210000  0.33520000  1.0 0.0310302712
N  N21  1  0.40210000  0.03270000  0.83500000  1.0 0.1399565143
N  N22  1  0.03270000  0.40210000  0.66500000  1.0 0.1399565143
N  N23  1  0.59790000  0.96730000  0.16500000  1.0 0.1399565143
N  N24  1  0.96730000  0.59790000  0.33500000  1.0 0.1399565143
N  N25  1  0.51690000  0.46910000  0.89440000  1.0 0.010727901
N  N26  1  0.46910000  0.51690000  0.60560000  1.0 0.010727901
N  N27  1  0.48310000  0.53090000  0.10560000  1.0 0.010727901
N  N28  1  0.53090000  0.48310000  0.39440000  1.0 0.010727901
N  N29  1  0.50760000  0.40820000  0.97200000  1.0 0.1203783537
N  N30  1  0.40820000  0.50760000  0.52800000  1.0 0.1203783537
N  N31  1  0.49240000  0.59180000  0.02800000  1.0 0.1203783537
N  N32  1  0.59180000  0.49240000  0.47200000  1.0 0.1203783537
O  O1  1  0.24790000  0.76472000  0.74754000  1.0 -0.5001301542
O  O2  1  0.76472000  0.24790000  0.75246000  1.0 -0.5001301542
O  O3  1  0.75210000  0.23528000  0.25246000  1.0 -0.5001301542
O  O4  1  0.23528000  0.75210000  0.24754000  1.0 -0.5001301542
O  O5  1  0.25669000  0.81301000  0.64357000  1.0 -0.5203425111
O  O6  1  0.81301000  0.25669000  0.85643000  1.0 -0.5203425111
O  O7  1  0.74331000  0.18699000  0.35643000  1.0 -0.5203425111
O  O8  1  0.18699000  0.74331000  0.14357000  1.0 -0.5203425111
O  O9  1  0.35733000  0.79817000  0.86920000  1.0 -0.5389544786
O  O10  1  0.79817000  0.35733000  0.63080000  1.0 -0.5389544786
O  O11  1  0.64267000  0.20183000  0.13080000  1.0 -0.5389544786
O  O12  1  0.20183000  0.64267000  0.36920000  1.0 -0.5389544786
O  O13  1  0.37036000  0.84300000  0.76366000  1.0 -0.5001301542
O  O14  1  0.84300000  0.37036000  0.73634000  1.0 -0.5001301542
O  O15  1  0.62964000  0.15700000  0.23634000  1.0 -0.5001301542
O  O16  1  0.15700000  0.62964000  0.26366000  1.0 -0.5001301542
O  O17  1  0.24252000  0.85086000  0.80762000  1.0 -0.5099711911
O  O18  1  0.85086000  0.24252000  0.69238000  1.0 -0.5099711911
O  O19  1  0.75748000  0.14914000  0.19238000  1.0 -0.5099711911
O  O20  1  0.14914000  0.75748000  0.30762000  1.0 -0.5099711911
O  O21  1  0.25598000  0.89792000  0.70691000  1.0 -0.5001301542
O  O22  1  0.89792000  0.25598000  0.79309000  1.0 -0.5001301542
O  O23  1  0.74402000  0.10208000  0.29309000  1.0 -0.5001301542
O  O24  1  0.10208000  0.74402000  0.20691000  1.0 -0.5001301542
O  O25  1  0.36111000  0.71401000  0.80497000  1.0 -0.5001301542
O  O26  1  0.71401000  0.36111000  0.69503000  1.0 -0.5001301542
O  O27  1  0.63889000  0.28599000  0.19503000  1.0 -0.5001301542
O  O28  1  0.28599000  0.63889000  0.30497000  1.0 -0.5001301542
O  O29  1  0.37173000  0.75963000  0.69915000  1.0 -0.5001301542
O  O30  1  0.75963000  0.37173000  0.80085000  1.0 -0.5001301542
O  O31  1  0.62827000  0.24037000  0.30085000  1.0 -0.5001301542
O  O32  1  0.24037000  0.62827000  0.19915000  1.0 -0.5001301542
O  O33  1  0.90175000  0.77237000  0.28820000  1.0 -0.493985665
O  O34  1  0.77237000  0.90175000  0.21180000  1.0 -0.5001301542
O  O35  1  0.09825000  0.22763000  0.71180000  1.0 -0.493985665
O  O36  1  0.22763000  0.09825000  0.78820000  1.0 -0.5001301542
O  O37  1  0.85073000  0.83103000  0.34613000  1.0 -0.5203425111
O  O38  1  0.83103000  0.85073000  0.15387000  1.0 -0.5203425111
O  O39  1  0.14927000  0.16897000  0.65387000  1.0 -0.5203425111
O  O40  1  0.16897000  0.14927000  0.84613000  1.0 -0.5203425111
O  O41  1  0.76659000  0.79315000  0.14623000  1.0 -0.5001301542
O  O42  1  0.79315000  0.76659000  0.35377000  1.0 -0.5001301542
O  O43  1  0.23341000  0.20685000  0.85377000  1.0 -0.5001301542
O  O44  1  0.20685000  0.23341000  0.64623000  1.0 -0.5001301542
O  O45  1  0.71601000  0.83583000  0.22310000  1.0 -0.5099711911
O  O46  1  0.83583000  0.71601000  0.27690000  1.0 -0.5099711911
O  O47  1  0.28399000  0.16417000  0.77690000  1.0 -0.5099711911
O  O48  1  0.16417000  0.28399000  0.72310000  1.0 -0.5099711911
