# DDEC6 charges by PACMAN v1.1 (https://github.com/mtap-research/PACMAN-charge/)
data_PALTUU02_ASR_pacman
_symmetry_space_group_name_H-M   'P 1'
_cell_length_a   8.86380000
_cell_length_b   11.10970000
_cell_length_c   11.54410000
_cell_angle_alpha   90.00000000
_cell_angle_beta   107.87800000
_cell_angle_gamma   90.00000000
_symmetry_Int_Tables_number   1
_chemical_formula_structural   U2Cr3O9
_chemical_formula_sum   'U4 Cr6 O18'
_cell_volume   1081.90235249
_cell_formula_units_Z   2
loop_
 _symmetry_equiv_pos_site_id
 _symmetry_equiv_pos_as_xyz
  1  'x, y, z'
loop_
 _atom_site_type_symbol
 _atom_site_label
 _atom_site_symmetry_multiplicity
 _atom_site_fract_x
 _atom_site_fract_y
 _atom_site_fract_z
 _atom_site_occupancy
 _atom_site_charge
U  U1  1  0.51469000  0.08188000  0.39080000  1.0 2.2612848367
U  U2  1  0.43295000  0.49506000  0.08408000  1.0 2.3914356317
U  U3  1  0.48531000  0.58188000  0.60920000  1.0 2.245314845
U  U4  1  0.56705000  0.99506000  0.91592000  1.0 2.3826286878
Cr  Cr1  1  0.28754000  0.16405000  0.06709000  1.0 1.4964137759
Cr  Cr2  1  0.29662000  0.38849000  0.34541000  1.0 1.4964137759
Cr  Cr3  1  0.57743000  0.81625000  0.21557000  1.0 1.4520461644
Cr  Cr4  1  0.71246000  0.66405000  0.93291000  1.0 1.48950673
Cr  Cr5  1  0.70338000  0.88849000  0.65459000  1.0 1.48950673
Cr  Cr6  1  0.42257000  0.31625000  0.78443000  1.0 1.4191238965
O  O1  1  0.32600000  0.49100000  0.24890000  1.0 -0.999863467
O  O2  1  0.49130000  0.88970000  0.30730000  1.0 -1.0336279784
O  O3  1  0.70990000  0.96390000  0.53000000  1.0 -1.0569189702
O  O4  1  0.50370000  0.67850000  0.19620000  1.0 -0.9490326955
O  O5  1  0.28710000  0.31530000  0.06970000  1.0 -1.1056630526
O  O6  1  0.44090000  0.28900000  0.38120000  1.0 -0.999863467
O  O7  1  0.31850000  0.10760000  0.20500000  1.0 -1.0196039989
O  O8  1  0.46350000  0.38780000  0.91570000  1.0 -0.9690260802
O  O9  1  0.57690000  0.61710000  0.98910000  1.0 -0.9490326955
O  O10  1  0.67400000  0.99100000  0.75110000  1.0 -0.999863467
O  O11  1  0.50870000  0.38970000  0.69270000  1.0 -1.0196039989
O  O12  1  0.29010000  0.46390000  0.47000000  1.0 -1.0569189702
O  O13  1  0.49630000  0.17850000  0.80380000  1.0 -0.9423992549
O  O14  1  0.71290000  0.81530000  0.93030000  1.0 -1.0847307358
O  O15  1  0.55910000  0.78900000  0.61880000  1.0 -0.999863467
O  O16  1  0.68150000  0.60760000  0.79500000  1.0 -1.0196039989
O  O17  1  0.53650000  0.88780000  0.08430000  1.0 -0.9690260802
O  O18  1  0.42310000  0.11710000  0.01090000  1.0 -0.9490326955
