# DDEC6 charges by PACMAN v1.1 (https://github.com/mtap-research/PACMAN-charge/)
data_PALTUU02_FSR_pacman
_symmetry_space_group_name_H-M   'P 1'
_cell_length_a   8.86380000
_cell_length_b   11.10970000
_cell_length_c   11.54410000
_cell_angle_alpha   90.00000000
_cell_angle_beta   107.87800000
_cell_angle_gamma   90.00000000
_symmetry_Int_Tables_number   1
_chemical_formula_structural   U2Cr3O17
_chemical_formula_sum   'U4 Cr6 O34'
_cell_volume   1081.90235249
_cell_formula_units_Z   2
loop_
 _symmetry_equiv_pos_site_id
 _symmetry_equiv_pos_as_xyz
  1  'x, y, z'
loop_
 _atom_site_type_symbol
 _atom_site_label
 _atom_site_symmetry_multiplicity
 _atom_site_fract_x
 _atom_site_fract_y
 _atom_site_fract_z
 _atom_site_occupancy
 _atom_site_charge
U  U1  1  0.51469000  0.08188000  0.39080000  1.0 2.4555875029
U  U2  1  0.43295000  0.49506000  0.08408000  1.0 2.5786565508
U  U3  1  0.48531000  0.58188000  0.60920000  1.0 2.4776886668
U  U4  1  0.56705000  0.99506000  0.91592000  1.0 2.5786565508
Cr  Cr1  1  0.28754000  0.16405000  0.06709000  1.0 1.6008346047
Cr  Cr2  1  0.29662000  0.38849000  0.34541000  1.0 1.6504801478
Cr  Cr3  1  0.57743000  0.81625000  0.21557000  1.0 1.6063395705
Cr  Cr4  1  0.71246000  0.66405000  0.93291000  1.0 1.6008346047
Cr  Cr5  1  0.70338000  0.88849000  0.65459000  1.0 1.6504801478
Cr  Cr6  1  0.42257000  0.31625000  0.78443000  1.0 1.6008346047
O  O1  1  0.32600000  0.49100000  0.24890000  1.0 -0.7804813816
O  O2  1  0.25280000  0.55940000  0.99050000  1.0 -0.4835568998
O  O3  1  0.49130000  0.88970000  0.30730000  1.0 -0.7600391839
O  O4  1  0.36450000  0.04020000  0.45440000  1.0 -0.5405904883
O  O5  1  0.70990000  0.96390000  0.53000000  1.0 -0.7698119466
O  O6  1  0.66740000  0.12330000  0.33050000  1.0 -0.5405904883
O  O7  1  0.50370000  0.67850000  0.19620000  1.0 -0.7202310596
O  O8  1  0.28710000  0.31530000  0.06970000  1.0 -0.7997897898
O  O9  1  0.63820000  0.19220000  0.59100000  1.0 0.3624362912
O  O10  1  0.60900000  0.42740000  0.17600000  1.0 -0.4941881929
O  O11  1  0.44090000  0.28900000  0.38120000  1.0 -0.7600391839
O  O12  1  0.31850000  0.10760000  0.20500000  1.0 -0.7698119466
O  O13  1  0.11800000  0.12200000  0.98550000  1.0 -0.4024467651
O  O14  1  0.13010000  0.32220000  0.28930000  1.0 -0.4432159398
O  O15  1  0.46350000  0.38780000  0.91570000  1.0 -0.7600391839
O  O16  1  0.57690000  0.61710000  0.98910000  1.0 -0.74449015
O  O17  1  0.76360000  0.81190000  0.27910000  1.0 -0.4835568998
O  O18  1  0.67400000  0.99100000  0.75110000  1.0 -0.7804813816
O  O19  1  0.74720000  0.05940000  0.00950000  1.0 -0.4835568998
O  O20  1  0.50870000  0.38970000  0.69270000  1.0 -0.753424171
O  O21  1  0.63550000  0.54020000  0.54560000  1.0 -0.5462698374
O  O22  1  0.29010000  0.46390000  0.47000000  1.0 -0.7804813816
O  O23  1  0.33260000  0.62330000  0.66950000  1.0 -0.5405904883
O  O24  1  0.49630000  0.17850000  0.80380000  1.0 -0.7202310596
O  O25  1  0.71290000  0.81530000  0.93030000  1.0 -0.7997897898
O  O26  1  0.36180000  0.69220000  0.40900000  1.0 0.3624362912
O  O27  1  0.39100000  0.92740000  0.82400000  1.0 -0.4941881929
O  O28  1  0.55910000  0.78900000  0.61880000  1.0 -0.7600391839
O  O29  1  0.68150000  0.60760000  0.79500000  1.0 -0.7698119466
O  O30  1  0.88200000  0.62200000  0.01450000  1.0 -0.4024467651
O  O31  1  0.86990000  0.82220000  0.71070000  1.0 -0.4432159398
O  O32  1  0.53650000  0.88780000  0.08430000  1.0 -0.7698119466
O  O33  1  0.42310000  0.11710000  0.01090000  1.0 -0.74449015
O  O34  1  0.23640000  0.31190000  0.72090000  1.0 -0.4835568998
