# DDEC6 charges by PACMAN v1.1 (https://github.com/mtap-research/PACMAN-charge/)
data_PALTON_ASR_pacman
_symmetry_space_group_name_H-M   'P 1'
_cell_length_a   24.99590000
_cell_length_b   24.99590000
_cell_length_c   24.99590000
_cell_angle_alpha   117.12800000
_cell_angle_beta   117.12800000
_cell_angle_gamma   117.12800000
_symmetry_Int_Tables_number   1
_chemical_formula_structural   CuH36C33(N2O)4
_chemical_formula_sum   'Cu6 H216 C198 N48 O24'
_cell_volume   6746.86869918
_cell_formula_units_Z   6
loop_
 _symmetry_equiv_pos_site_id
 _symmetry_equiv_pos_as_xyz
  1  'x, y, z'
loop_
 _atom_site_type_symbol
 _atom_site_label
 _atom_site_symmetry_multiplicity
 _atom_site_fract_x
 _atom_site_fract_y
 _atom_site_fract_z
 _atom_site_occupancy
 _atom_site_charge
Cu  Cu1  1  0.45320000  0.45320000  0.91009000  1.0 0.8003259928
Cu  Cu2  1  0.45320000  0.91009000  0.45320000  1.0 0.8003259928
Cu  Cu3  1  0.91009000  0.45320000  0.45320000  1.0 0.8003259928
Cu  Cu4  1  0.54680000  0.08991000  0.54680000  1.0 0.8003259928
Cu  Cu5  1  0.54680000  0.54680000  0.08991000  1.0 0.8003259928
Cu  Cu6  1  0.08991000  0.54680000  0.54680000  1.0 0.8003259928
H  H1  1  0.57630000  0.71170000  0.00530000  1.0 0.1389709277
H  H2  1  0.71170000  0.00530000  0.57630000  1.0 0.1389709277
H  H3  1  0.00530000  0.57630000  0.71170000  1.0 0.1389709277
H  H4  1  0.42370000  0.99470000  0.28830000  1.0 0.1389709277
H  H5  1  0.28830000  0.42370000  0.99470000  1.0 0.1389709277
H  H6  1  0.99470000  0.28830000  0.42370000  1.0 0.1389709277
H  H7  1  0.42370000  0.28830000  0.99470000  1.0 0.1389709277
H  H8  1  0.28830000  0.99470000  0.42370000  1.0 0.1389709277
H  H9  1  0.99470000  0.42370000  0.28830000  1.0 0.1389709277
H  H10  1  0.57630000  0.00530000  0.71170000  1.0 0.1389709277
H  H11  1  0.71170000  0.57630000  0.00530000  1.0 0.1389709277
H  H12  1  0.00530000  0.71170000  0.57630000  1.0 0.1389709277
H  H13  1  0.71410000  0.85150000  0.27790000  1.0 0.1312660954
H  H14  1  0.85150000  0.27790000  0.71410000  1.0 0.1312660954
H  H15  1  0.27790000  0.71410000  0.85150000  1.0 0.1312660954
H  H16  1  0.28590000  0.72210000  0.14850000  1.0 0.1312660954
H  H17  1  0.14850000  0.28590000  0.72210000  1.0 0.1312660954
H  H18  1  0.72210000  0.14850000  0.28590000  1.0 0.1312660954
H  H19  1  0.28590000  0.14850000  0.72210000  1.0 0.1312660954
H  H20  1  0.14850000  0.72210000  0.28590000  1.0 0.1312660954
H  H21  1  0.72210000  0.28590000  0.14850000  1.0 0.1312660954
H  H22  1  0.71410000  0.27790000  0.85150000  1.0 0.1312660954
H  H23  1  0.85150000  0.71410000  0.27790000  1.0 0.1312660954
H  H24  1  0.27790000  0.85150000  0.71410000  1.0 0.1312660954
H  H25  1  0.35290000  0.57120000  0.68310000  1.0 0.1312660954
H  H26  1  0.57120000  0.68310000  0.35290000  1.0 0.1312660954
H  H27  1  0.68310000  0.35290000  0.57120000  1.0 0.1312660954
H  H28  1  0.64710000  0.31690000  0.42880000  1.0 0.1312660954
H  H29  1  0.42880000  0.64710000  0.31690000  1.0 0.1312660954
H  H30  1  0.31690000  0.42880000  0.64710000  1.0 0.1312660954
H  H31  1  0.64710000  0.42880000  0.31690000  1.0 0.1312660954
H  H32  1  0.42880000  0.31690000  0.64710000  1.0 0.1312660954
H  H33  1  0.31690000  0.64710000  0.42880000  1.0 0.1312660954
H  H34  1  0.35290000  0.68310000  0.57120000  1.0 0.1312660954
H  H35  1  0.57120000  0.35290000  0.68310000  1.0 0.1312660954
H  H36  1  0.68310000  0.57120000  0.35290000  1.0 0.1312660954
H  H37  1  0.55110000  0.72400000  0.85650000  1.0 0.1312660954
H  H38  1  0.72400000  0.85650000  0.55110000  1.0 0.1312660954
H  H39  1  0.85650000  0.55110000  0.72400000  1.0 0.1312660954
H  H40  1  0.44890000  0.14350000  0.27600000  1.0 0.1312660954
H  H41  1  0.27600000  0.44890000  0.14350000  1.0 0.1312660954
H  H42  1  0.14350000  0.27600000  0.44890000  1.0 0.1312660954
H  H43  1  0.44890000  0.27600000  0.14350000  1.0 0.1312660954
H  H44  1  0.27600000  0.14350000  0.44890000  1.0 0.1312660954
H  H45  1  0.14350000  0.44890000  0.27600000  1.0 0.1312660954
H  H46  1  0.55110000  0.85650000  0.72400000  1.0 0.1312660954
H  H47  1  0.72400000  0.55110000  0.85650000  1.0 0.1312660954
H  H48  1  0.85650000  0.72400000  0.55110000  1.0 0.1312660954
H  H49  1  0.18450000  0.48090000  0.63670000  1.0 0.1389709277
H  H50  1  0.48090000  0.63670000  0.18450000  1.0 0.1389709277
H  H51  1  0.63670000  0.18450000  0.48090000  1.0 0.1389709277
H  H52  1  0.81550000  0.36330000  0.51910000  1.0 0.1389709277
H  H53  1  0.51910000  0.81550000  0.36330000  1.0 0.1389709277
H  H54  1  0.36330000  0.51910000  0.81550000  1.0 0.1389709277
H  H55  1  0.81550000  0.51910000  0.36330000  1.0 0.1389709277
H  H56  1  0.51910000  0.36330000  0.81550000  1.0 0.1389709277
H  H57  1  0.36330000  0.81550000  0.51910000  1.0 0.1389709277
H  H58  1  0.18450000  0.63670000  0.48090000  1.0 0.1389709277
H  H59  1  0.48090000  0.18450000  0.63670000  1.0 0.1389709277
H  H60  1  0.63670000  0.48090000  0.18450000  1.0 0.1389709277
H  H61  1  0.23660000  0.53680000  0.74380000  1.0 0.1312660954
H  H62  1  0.53680000  0.74380000  0.23660000  1.0 0.1312660954
H  H63  1  0.74380000  0.23660000  0.53680000  1.0 0.1312660954
H  H64  1  0.76340000  0.25620000  0.46320000  1.0 0.1312660954
H  H65  1  0.46320000  0.76340000  0.25620000  1.0 0.1312660954
H  H66  1  0.25620000  0.46320000  0.76340000  1.0 0.1312660954
H  H67  1  0.76340000  0.46320000  0.25620000  1.0 0.1312660954
H  H68  1  0.46320000  0.25620000  0.76340000  1.0 0.1312660954
H  H69  1  0.25620000  0.76340000  0.46320000  1.0 0.1312660954
H  H70  1  0.23660000  0.74380000  0.53680000  1.0 0.1312660954
H  H71  1  0.53680000  0.23660000  0.74380000  1.0 0.1312660954
H  H72  1  0.74380000  0.53680000  0.23660000  1.0 0.1312660954
H  H73  1  0.24460000  0.59380000  0.72770000  1.0 0.1312660954
H  H74  1  0.59380000  0.72770000  0.24460000  1.0 0.1312660954
H  H75  1  0.72770000  0.24460000  0.59380000  1.0 0.1312660954
H  H76  1  0.75540000  0.27230000  0.40620000  1.0 0.1312660954
H  H77  1  0.40620000  0.75540000  0.27230000  1.0 0.1312660954
H  H78  1  0.27230000  0.40620000  0.75540000  1.0 0.1312660954
H  H79  1  0.75540000  0.40620000  0.27230000  1.0 0.1312660954
H  H80  1  0.40620000  0.27230000  0.75540000  1.0 0.1312660954
H  H81  1  0.27230000  0.75540000  0.40620000  1.0 0.1312660954
H  H82  1  0.24460000  0.72770000  0.59380000  1.0 0.1312660954
H  H83  1  0.59380000  0.24460000  0.72770000  1.0 0.1312660954
H  H84  1  0.72770000  0.59380000  0.24460000  1.0 0.1312660954
H  H85  1  0.69870000  0.88450000  0.06500000  1.0 0.115347771
H  H86  1  0.88450000  0.06500000  0.69870000  1.0 0.115347771
H  H87  1  0.06500000  0.69870000  0.88450000  1.0 0.115347771
H  H88  1  0.30130000  0.93500000  0.11550000  1.0 0.115347771
H  H89  1  0.11550000  0.30130000  0.93500000  1.0 0.115347771
H  H90  1  0.93500000  0.11550000  0.30130000  1.0 0.115347771
H  H91  1  0.30130000  0.11550000  0.93500000  1.0 0.115347771
H  H92  1  0.11550000  0.93500000  0.30130000  1.0 0.115347771
H  H93  1  0.93500000  0.30130000  0.11550000  1.0 0.115347771
H  H94  1  0.69870000  0.06500000  0.88450000  1.0 0.115347771
H  H95  1  0.88450000  0.69870000  0.06500000  1.0 0.115347771
H  H96  1  0.06500000  0.88450000  0.69870000  1.0 0.115347771
H  H97  1  0.67020000  0.92830000  0.08870000  1.0 0.110236175
H  H98  1  0.92830000  0.08870000  0.67020000  1.0 0.110236175
H  H99  1  0.08870000  0.67020000  0.92830000  1.0 0.110236175
H  H100  1  0.32980000  0.91130000  0.07170000  1.0 0.110236175
H  H101  1  0.07170000  0.32980000  0.91130000  1.0 0.110236175
H  H102  1  0.91130000  0.07170000  0.32980000  1.0 0.110236175
H  H103  1  0.32980000  0.07170000  0.91130000  1.0 0.110236175
H  H104  1  0.07170000  0.91130000  0.32980000  1.0 0.110236175
H  H105  1  0.91130000  0.32980000  0.07170000  1.0 0.110236175
H  H106  1  0.67020000  0.08870000  0.92830000  1.0 0.110236175
H  H107  1  0.92830000  0.67020000  0.08870000  1.0 0.110236175
H  H108  1  0.08870000  0.92830000  0.67020000  1.0 0.110236175
H  H109  1  0.64410000  0.86110000  0.07370000  1.0 0.0814189893
H  H110  1  0.86110000  0.07370000  0.64410000  1.0 0.0814189893
H  H111  1  0.07370000  0.64410000  0.86110000  1.0 0.0814189893
H  H112  1  0.35590000  0.92630000  0.13890000  1.0 0.0814189893
H  H113  1  0.13890000  0.35590000  0.92630000  1.0 0.0814189893
H  H114  1  0.92630000  0.13890000  0.35590000  1.0 0.0814189893
H  H115  1  0.35590000  0.13890000  0.92630000  1.0 0.0814189893
H  H116  1  0.13890000  0.92630000  0.35590000  1.0 0.0814189893
H  H117  1  0.92630000  0.35590000  0.13890000  1.0 0.0814189893
H  H118  1  0.64410000  0.07370000  0.86110000  1.0 0.0814189893
H  H119  1  0.86110000  0.64410000  0.07370000  1.0 0.0814189893
H  H120  1  0.07370000  0.86110000  0.64410000  1.0 0.0814189893
H  H121  1  0.80350000  0.00490000  0.41610000  1.0 0.110236175
H  H122  1  0.00490000  0.41610000  0.80350000  1.0 0.110236175
H  H123  1  0.41610000  0.80350000  0.00490000  1.0 0.110236175
H  H124  1  0.19650000  0.58390000  0.99510000  1.0 0.110236175
H  H125  1  0.99510000  0.19650000  0.58390000  1.0 0.110236175
H  H126  1  0.58390000  0.99510000  0.19650000  1.0 0.110236175
H  H127  1  0.19650000  0.99510000  0.58390000  1.0 0.110236175
H  H128  1  0.99510000  0.58390000  0.19650000  1.0 0.110236175
H  H129  1  0.58390000  0.19650000  0.99510000  1.0 0.110236175
H  H130  1  0.80350000  0.41610000  0.00490000  1.0 0.110236175
H  H131  1  0.00490000  0.80350000  0.41610000  1.0 0.110236175
H  H132  1  0.41610000  0.00490000  0.80350000  1.0 0.110236175
H  H133  1  0.84350000  0.09230000  0.43660000  1.0 0.1005979862
H  H134  1  0.09230000  0.43660000  0.84350000  1.0 0.1005979862
H  H135  1  0.43660000  0.84350000  0.09230000  1.0 0.1005979862
H  H136  1  0.15650000  0.56340000  0.90770000  1.0 0.1005979862
H  H137  1  0.90770000  0.15650000  0.56340000  1.0 0.1005979862
H  H138  1  0.56340000  0.90770000  0.15650000  1.0 0.1005979862
H  H139  1  0.15650000  0.90770000  0.56340000  1.0 0.1005979862
H  H140  1  0.90770000  0.56340000  0.15650000  1.0 0.1005979862
H  H141  1  0.56340000  0.15650000  0.90770000  1.0 0.1005979862
H  H142  1  0.84350000  0.43660000  0.09230000  1.0 0.1005979862
H  H143  1  0.09230000  0.84350000  0.43660000  1.0 0.1005979862
H  H144  1  0.43660000  0.09230000  0.84350000  1.0 0.1005979862
H  H145  1  0.18630000  0.29380000  0.64230000  1.0 0.110236175
H  H146  1  0.29380000  0.64230000  0.18630000  1.0 0.110236175
H  H147  1  0.64230000  0.18630000  0.29380000  1.0 0.110236175
H  H148  1  0.81370000  0.35770000  0.70620000  1.0 0.110236175
H  H149  1  0.70620000  0.81370000  0.35770000  1.0 0.110236175
H  H150  1  0.35770000  0.70620000  0.81370000  1.0 0.110236175
H  H151  1  0.81370000  0.70620000  0.35770000  1.0 0.110236175
H  H152  1  0.70620000  0.35770000  0.81370000  1.0 0.110236175
H  H153  1  0.35770000  0.81370000  0.70620000  1.0 0.110236175
H  H154  1  0.18630000  0.64230000  0.29380000  1.0 0.110236175
H  H155  1  0.29380000  0.18630000  0.64230000  1.0 0.110236175
H  H156  1  0.64230000  0.29380000  0.18630000  1.0 0.110236175
H  H157  1  0.04680000  0.25520000  0.57080000  1.0 0.110236175
H  H158  1  0.25520000  0.57080000  0.04680000  1.0 0.110236175
H  H159  1  0.57080000  0.04680000  0.25520000  1.0 0.110236175
H  H160  1  0.95320000  0.42920000  0.74480000  1.0 0.110236175
H  H161  1  0.74480000  0.95320000  0.42920000  1.0 0.110236175
H  H162  1  0.42920000  0.74480000  0.95320000  1.0 0.110236175
H  H163  1  0.95320000  0.74480000  0.42920000  1.0 0.110236175
H  H164  1  0.74480000  0.42920000  0.95320000  1.0 0.110236175
H  H165  1  0.42920000  0.95320000  0.74480000  1.0 0.110236175
H  H166  1  0.04680000  0.57080000  0.25520000  1.0 0.110236175
H  H167  1  0.25520000  0.04680000  0.57080000  1.0 0.110236175
H  H168  1  0.57080000  0.25520000  0.04680000  1.0 0.110236175
H  H169  1  0.18380000  0.16480000  0.61480000  1.0 0.110236175
H  H170  1  0.16480000  0.61480000  0.18380000  1.0 0.110236175
H  H171  1  0.61480000  0.18380000  0.16480000  1.0 0.110236175
H  H172  1  0.81620000  0.38520000  0.83520000  1.0 0.110236175
H  H173  1  0.83520000  0.81620000  0.38520000  1.0 0.110236175
H  H174  1  0.38520000  0.83520000  0.81620000  1.0 0.110236175
H  H175  1  0.81620000  0.83520000  0.38520000  1.0 0.110236175
H  H176  1  0.83520000  0.38520000  0.81620000  1.0 0.110236175
H  H177  1  0.38520000  0.81620000  0.83520000  1.0 0.110236175
H  H178  1  0.18380000  0.61480000  0.16480000  1.0 0.110236175
H  H179  1  0.16480000  0.18380000  0.61480000  1.0 0.110236175
H  H180  1  0.61480000  0.16480000  0.18380000  1.0 0.110236175
H  H181  1  0.11620000  0.11030000  0.61420000  1.0 0.115347771
H  H182  1  0.11030000  0.61420000  0.11620000  1.0 0.115347771
H  H183  1  0.61420000  0.11620000  0.11030000  1.0 0.115347771
H  H184  1  0.88380000  0.38580000  0.88970000  1.0 0.115347771
H  H185  1  0.88970000  0.88380000  0.38580000  1.0 0.115347771
H  H186  1  0.38580000  0.88970000  0.88380000  1.0 0.115347771
H  H187  1  0.88380000  0.88970000  0.38580000  1.0 0.115347771
H  H188  1  0.88970000  0.38580000  0.88380000  1.0 0.115347771
H  H189  1  0.38580000  0.88380000  0.88970000  1.0 0.115347771
H  H190  1  0.11620000  0.61420000  0.11030000  1.0 0.115347771
H  H191  1  0.11030000  0.11620000  0.61420000  1.0 0.115347771
H  H192  1  0.61420000  0.11030000  0.11620000  1.0 0.115347771
H  H193  1  0.05790000  0.03790000  0.50100000  1.0 0.1005979862
H  H194  1  0.03790000  0.50100000  0.05790000  1.0 0.1005979862
H  H195  1  0.50100000  0.05790000  0.03790000  1.0 0.1005979862
H  H196  1  0.94210000  0.49900000  0.96210000  1.0 0.1005979862
H  H197  1  0.96210000  0.94210000  0.49900000  1.0 0.1005979862
H  H198  1  0.49900000  0.96210000  0.94210000  1.0 0.1005979862
H  H199  1  0.94210000  0.96210000  0.49900000  1.0 0.1005979862
H  H200  1  0.96210000  0.49900000  0.94210000  1.0 0.1005979862
H  H201  1  0.49900000  0.94210000  0.96210000  1.0 0.1005979862
H  H202  1  0.05790000  0.50100000  0.03790000  1.0 0.1005979862
H  H203  1  0.03790000  0.05790000  0.50100000  1.0 0.1005979862
H  H204  1  0.50100000  0.03790000  0.05790000  1.0 0.1005979862
H  H205  1  0.79220000  0.01060000  0.35990000  1.0 0.1005979862
H  H206  1  0.01060000  0.35990000  0.79220000  1.0 0.1005979862
H  H207  1  0.35990000  0.79220000  0.01060000  1.0 0.1005979862
H  H208  1  0.20780000  0.64010000  0.98940000  1.0 0.1005979862
H  H209  1  0.98940000  0.20780000  0.64010000  1.0 0.1005979862
H  H210  1  0.64010000  0.98940000  0.20780000  1.0 0.1005979862
H  H211  1  0.20780000  0.98940000  0.64010000  1.0 0.1005979862
H  H212  1  0.98940000  0.64010000  0.20780000  1.0 0.1005979862
H  H213  1  0.64010000  0.20780000  0.98940000  1.0 0.1005979862
H  H214  1  0.79220000  0.35990000  0.01060000  1.0 0.1005979862
H  H215  1  0.01060000  0.79220000  0.35990000  1.0 0.1005979862
H  H216  1  0.35990000  0.01060000  0.79220000  1.0 0.1005979862
C  C1  1  0.58342000  0.66545000  0.08253000  1.0 0.5504993033
C  C2  1  0.66545000  0.08253000  0.58342000  1.0 0.5504993033
C  C3  1  0.08253000  0.58342000  0.66545000  1.0 0.5504993033
C  C4  1  0.41658000  0.91747000  0.33455000  1.0 0.5504993033
C  C5  1  0.33455000  0.41658000  0.91747000  1.0 0.5504993033
C  C6  1  0.91747000  0.33455000  0.41658000  1.0 0.5504993033
C  C7  1  0.41658000  0.33455000  0.91747000  1.0 0.5504993033
C  C8  1  0.33455000  0.91747000  0.41658000  1.0 0.5504993033
C  C9  1  0.91747000  0.41658000  0.33455000  1.0 0.5504993033
C  C10  1  0.58342000  0.08253000  0.66545000  1.0 0.5504993033
C  C11  1  0.66545000  0.58342000  0.08253000  1.0 0.5504993033
C  C12  1  0.08253000  0.66545000  0.58342000  1.0 0.5504993033
C  C13  1  0.63399000  0.76587000  0.13104000  1.0 0.0223565435
C  C14  1  0.76587000  0.13104000  0.63399000  1.0 0.0223565435
C  C15  1  0.13104000  0.63399000  0.76587000  1.0 0.0223565435
C  C16  1  0.36601000  0.86896000  0.23413000  1.0 0.0223565435
C  C17  1  0.23413000  0.36601000  0.86896000  1.0 0.0223565435
C  C18  1  0.86896000  0.23413000  0.36601000  1.0 0.0223565435
C  C19  1  0.36601000  0.23413000  0.86896000  1.0 0.0223565435
C  C20  1  0.23413000  0.86896000  0.36601000  1.0 0.0223565435
C  C21  1  0.86896000  0.36601000  0.23413000  1.0 0.0223565435
C  C22  1  0.63399000  0.13104000  0.76587000  1.0 0.0223565435
C  C23  1  0.76587000  0.63399000  0.13104000  1.0 0.0223565435
C  C24  1  0.13104000  0.76587000  0.63399000  1.0 0.0223565435
C  C25  1  0.61774000  0.77113000  0.07483000  1.0 -0.1688709372
C  C26  1  0.77113000  0.07483000  0.61774000  1.0 -0.1688709372
C  C27  1  0.07483000  0.61774000  0.77113000  1.0 -0.1688709372
C  C28  1  0.38226000  0.92517000  0.22887000  1.0 -0.1688709372
C  C29  1  0.22887000  0.38226000  0.92517000  1.0 -0.1688709372
C  C30  1  0.92517000  0.22887000  0.38226000  1.0 -0.1688709372
C  C31  1  0.38226000  0.22887000  0.92517000  1.0 -0.1688709372
C  C32  1  0.22887000  0.92517000  0.38226000  1.0 -0.1688709372
C  C33  1  0.92517000  0.38226000  0.22887000  1.0 -0.1688709372
C  C34  1  0.61774000  0.07483000  0.77113000  1.0 -0.1688709372
C  C35  1  0.77113000  0.61774000  0.07483000  1.0 -0.1688709372
C  C36  1  0.07483000  0.77113000  0.61774000  1.0 -0.1688709372
C  C37  1  0.65975000  0.86045000  0.11570000  1.0 0.0078545063
C  C38  1  0.86045000  0.11570000  0.65975000  1.0 0.0078545063
C  C39  1  0.11570000  0.65975000  0.86045000  1.0 0.0078545063
C  C40  1  0.34025000  0.88430000  0.13955000  1.0 0.0078545063
C  C41  1  0.13955000  0.34025000  0.88430000  1.0 0.0078545063
C  C42  1  0.88430000  0.13955000  0.34025000  1.0 0.0078545063
C  C43  1  0.34025000  0.13955000  0.88430000  1.0 0.0078545063
C  C44  1  0.13955000  0.88430000  0.34025000  1.0 0.0078545063
C  C45  1  0.88430000  0.34025000  0.13955000  1.0 0.0078545063
C  C46  1  0.65975000  0.11570000  0.86045000  1.0 0.0078545063
C  C47  1  0.86045000  0.65975000  0.11570000  1.0 0.0078545063
C  C48  1  0.11570000  0.86045000  0.65975000  1.0 0.0078545063
C  C49  1  0.72720000  0.95100000  0.22350000  1.0 -0.0974778098
C  C50  1  0.95100000  0.22350000  0.72720000  1.0 -0.0974778098
C  C51  1  0.22350000  0.72720000  0.95100000  1.0 -0.0974778098
C  C52  1  0.27280000  0.77650000  0.04900000  1.0 -0.0974778098
C  C53  1  0.04900000  0.27280000  0.77650000  1.0 -0.0974778098
C  C54  1  0.77650000  0.04900000  0.27280000  1.0 -0.0974778098
C  C55  1  0.27280000  0.04900000  0.77650000  1.0 -0.0974778098
C  C56  1  0.04900000  0.77650000  0.27280000  1.0 -0.0974778098
C  C57  1  0.77650000  0.27280000  0.04900000  1.0 -0.0974778098
C  C58  1  0.72720000  0.22350000  0.95100000  1.0 -0.0974778098
C  C59  1  0.95100000  0.72720000  0.22350000  1.0 -0.0974778098
C  C60  1  0.22350000  0.95100000  0.72720000  1.0 -0.0974778098
C  C61  1  0.74910000  0.95100000  0.28920000  1.0 -0.0065840462
C  C62  1  0.95100000  0.28920000  0.74910000  1.0 -0.0065840462
C  C63  1  0.28920000  0.74910000  0.95100000  1.0 -0.0065840462
C  C64  1  0.25090000  0.71080000  0.04900000  1.0 -0.0065840462
C  C65  1  0.04900000  0.25090000  0.71080000  1.0 -0.0065840462
C  C66  1  0.71080000  0.04900000  0.25090000  1.0 -0.0065840462
C  C67  1  0.25090000  0.04900000  0.71080000  1.0 -0.0065840462
C  C68  1  0.04900000  0.71080000  0.25090000  1.0 -0.0065840462
C  C69  1  0.71080000  0.25090000  0.04900000  1.0 -0.0065840462
C  C70  1  0.74910000  0.28920000  0.95100000  1.0 -0.0065840462
C  C71  1  0.95100000  0.74910000  0.28920000  1.0 -0.0065840462
C  C72  1  0.28920000  0.95100000  0.74910000  1.0 -0.0065840462
C  C73  1  0.70140000  0.85604000  0.23926000  1.0 -0.2545760143
C  C74  1  0.85604000  0.23926000  0.70140000  1.0 -0.256609315
C  C75  1  0.23926000  0.70140000  0.85604000  1.0 -0.256609315
C  C76  1  0.29860000  0.76074000  0.14396000  1.0 -0.2545760143
C  C77  1  0.14396000  0.29860000  0.76074000  1.0 -0.256609315
C  C78  1  0.76074000  0.14396000  0.29860000  1.0 -0.2545760143
C  C79  1  0.29860000  0.14396000  0.76074000  1.0 -0.256609315
C  C80  1  0.14396000  0.76074000  0.29860000  1.0 -0.2545760143
C  C81  1  0.76074000  0.29860000  0.14396000  1.0 -0.2545760143
C  C82  1  0.70140000  0.23926000  0.85604000  1.0 -0.256609315
C  C83  1  0.85604000  0.70140000  0.23926000  1.0 -0.2545760143
C  C84  1  0.23926000  0.85604000  0.70140000  1.0 -0.256609315
C  C85  1  0.39400000  0.62020000  0.75380000  1.0 -0.1368679348
C  C86  1  0.62020000  0.75380000  0.39400000  1.0 -0.1368679348
C  C87  1  0.75380000  0.39400000  0.62020000  1.0 -0.1368679348
C  C88  1  0.60600000  0.24620000  0.37980000  1.0 -0.1368679348
C  C89  1  0.37980000  0.60600000  0.24620000  1.0 -0.1368679348
C  C90  1  0.24620000  0.37980000  0.60600000  1.0 -0.1368679348
C  C91  1  0.60600000  0.37980000  0.24620000  1.0 -0.1368679348
C  C92  1  0.37980000  0.24620000  0.60600000  1.0 -0.1368679348
C  C93  1  0.24620000  0.60600000  0.37980000  1.0 -0.1368679348
C  C94  1  0.39400000  0.75380000  0.62020000  1.0 -0.1368679348
C  C95  1  0.62020000  0.39400000  0.75380000  1.0 -0.1368679348
C  C96  1  0.75380000  0.62020000  0.39400000  1.0 -0.1368679348
C  C97  1  0.50340000  0.70660000  0.84930000  1.0 -0.1368679348
C  C98  1  0.70660000  0.84930000  0.50340000  1.0 -0.1368679348
C  C99  1  0.84930000  0.50340000  0.70660000  1.0 -0.1368679348
C  C100  1  0.49660000  0.15070000  0.29340000  1.0 -0.1368679348
C  C101  1  0.29340000  0.49660000  0.15070000  1.0 -0.1368679348
C  C102  1  0.15070000  0.29340000  0.49660000  1.0 -0.1368679348
C  C103  1  0.49660000  0.29340000  0.15070000  1.0 -0.1368679348
C  C104  1  0.29340000  0.15070000  0.49660000  1.0 -0.1368679348
C  C105  1  0.15070000  0.49660000  0.29340000  1.0 -0.1368679348
C  C106  1  0.50340000  0.84930000  0.70660000  1.0 -0.1368679348
C  C107  1  0.70660000  0.50340000  0.84930000  1.0 -0.1368679348
C  C108  1  0.84930000  0.70660000  0.50340000  1.0 -0.1368679348
C  C109  1  0.24530000  0.55110000  0.71570000  1.0 -0.3578201625
C  C110  1  0.55110000  0.71570000  0.24530000  1.0 -0.3578201625
C  C111  1  0.71570000  0.24530000  0.55110000  1.0 -0.3578201625
C  C112  1  0.75470000  0.28430000  0.44890000  1.0 -0.3578201625
C  C113  1  0.44890000  0.75470000  0.28430000  1.0 -0.3578201625
C  C114  1  0.28430000  0.44890000  0.75470000  1.0 -0.3578201625
C  C115  1  0.75470000  0.44890000  0.28430000  1.0 -0.3578201625
C  C116  1  0.44890000  0.28430000  0.75470000  1.0 -0.3578201625
C  C117  1  0.28430000  0.75470000  0.44890000  1.0 -0.3578201625
C  C118  1  0.24530000  0.71570000  0.55110000  1.0 -0.3578201625
C  C119  1  0.55110000  0.24530000  0.71570000  1.0 -0.3578201625
C  C120  1  0.71570000  0.55110000  0.24530000  1.0 -0.3578201625
C  C121  1  0.64720000  0.86660000  0.05460000  1.0 -0.1688709372
C  C122  1  0.86660000  0.05460000  0.64720000  1.0 -0.1688709372
C  C123  1  0.05460000  0.64720000  0.86660000  1.0 -0.1688709372
C  C124  1  0.35280000  0.94540000  0.13340000  1.0 -0.1688709372
C  C125  1  0.13340000  0.35280000  0.94540000  1.0 -0.1688709372
C  C126  1  0.94540000  0.13340000  0.35280000  1.0 -0.1688709372
C  C127  1  0.35280000  0.13340000  0.94540000  1.0 -0.1688709372
C  C128  1  0.13340000  0.94540000  0.35280000  1.0 -0.1688709372
C  C129  1  0.94540000  0.35280000  0.13340000  1.0 -0.1688709372
C  C130  1  0.64720000  0.05460000  0.86660000  1.0 -0.1688709372
C  C131  1  0.86660000  0.64720000  0.05460000  1.0 -0.1688709372
C  C132  1  0.05460000  0.86660000  0.64720000  1.0 -0.1688709372
C  C133  1  0.44040000  0.70740000  0.88330000  1.0 0.0542164247
C  C134  1  0.70740000  0.88330000  0.44040000  1.0 0.0542164247
C  C135  1  0.88330000  0.44040000  0.70740000  1.0 0.0542164247
C  C136  1  0.55960000  0.11670000  0.29260000  1.0 0.0542164247
C  C137  1  0.29260000  0.55960000  0.11670000  1.0 0.0542164247
C  C138  1  0.11670000  0.29260000  0.55960000  1.0 0.0552590546
C  C139  1  0.55960000  0.29260000  0.11670000  1.0 0.0542164247
C  C140  1  0.29260000  0.11670000  0.55960000  1.0 0.0542164247
C  C141  1  0.11670000  0.55960000  0.29260000  1.0 0.0542164247
C  C142  1  0.44040000  0.88330000  0.70740000  1.0 0.0542164247
C  C143  1  0.70740000  0.44040000  0.88330000  1.0 0.0542164247
C  C144  1  0.88330000  0.70740000  0.44040000  1.0 0.0542164247
C  C145  1  0.83300000  0.03940000  0.40940000  1.0 -0.1688709372
C  C146  1  0.03940000  0.40940000  0.83300000  1.0 -0.1688709372
C  C147  1  0.40940000  0.83300000  0.03940000  1.0 -0.1688709372
C  C148  1  0.16700000  0.59060000  0.96060000  1.0 -0.1688709372
C  C149  1  0.96060000  0.16700000  0.59060000  1.0 -0.1688709372
C  C150  1  0.59060000  0.96060000  0.16700000  1.0 -0.1688709372
C  C151  1  0.16700000  0.96060000  0.59060000  1.0 -0.1688709372
C  C152  1  0.96060000  0.59060000  0.16700000  1.0 -0.1688709372
C  C153  1  0.59060000  0.16700000  0.96060000  1.0 -0.1688709372
C  C154  1  0.83300000  0.40940000  0.03940000  1.0 -0.1688709372
C  C155  1  0.03940000  0.83300000  0.40940000  1.0 -0.1688709372
C  C156  1  0.40940000  0.03940000  0.83300000  1.0 -0.1688709372
C  C157  1  0.97120000  0.06900000  0.48820000  1.0 0.0078545063
C  C158  1  0.06900000  0.48820000  0.97120000  1.0 0.0078545063
C  C159  1  0.48820000  0.97120000  0.06900000  1.0 0.0078545063
C  C160  1  0.02880000  0.51180000  0.93100000  1.0 0.0078545063
C  C161  1  0.93100000  0.02880000  0.51180000  1.0 0.0078545063
C  C162  1  0.51180000  0.93100000  0.02880000  1.0 0.0078545063
C  C163  1  0.02880000  0.93100000  0.51180000  1.0 0.0078545063
C  C164  1  0.93100000  0.51180000  0.02880000  1.0 0.0078545063
C  C165  1  0.51180000  0.02880000  0.93100000  1.0 0.0078545063
C  C166  1  0.97120000  0.48820000  0.06900000  1.0 0.0078545063
C  C167  1  0.06900000  0.97120000  0.48820000  1.0 0.0078545063
C  C168  1  0.48820000  0.06900000  0.97120000  1.0 0.0078545063
C  C169  1  0.11550000  0.22900000  0.59550000  1.0 -0.2109828796
C  C170  1  0.22900000  0.59550000  0.11550000  1.0 -0.2109828796
C  C171  1  0.59550000  0.11550000  0.22900000  1.0 -0.2109828796
C  C172  1  0.88450000  0.40450000  0.77100000  1.0 -0.2109828796
C  C173  1  0.77100000  0.88450000  0.40450000  1.0 -0.2109828796
C  C174  1  0.40450000  0.77100000  0.88450000  1.0 -0.2109828796
C  C175  1  0.88450000  0.77100000  0.40450000  1.0 -0.2109828796
C  C176  1  0.77100000  0.40450000  0.88450000  1.0 -0.2109828796
C  C177  1  0.40450000  0.88450000  0.77100000  1.0 -0.2109828796
C  C178  1  0.11550000  0.59550000  0.22900000  1.0 -0.2109828796
C  C179  1  0.22900000  0.11550000  0.59550000  1.0 -0.2109828796
C  C180  1  0.59550000  0.22900000  0.11550000  1.0 -0.2109828796
C  C181  1  0.03710000  0.20590000  0.55300000  1.0 -0.1595118325
C  C182  1  0.20590000  0.55300000  0.03710000  1.0 -0.1595118325
C  C183  1  0.55300000  0.03710000  0.20590000  1.0 -0.1595118325
C  C184  1  0.96290000  0.44700000  0.79410000  1.0 -0.1595118325
C  C185  1  0.79410000  0.96290000  0.44700000  1.0 -0.1595118325
C  C186  1  0.44700000  0.79410000  0.96290000  1.0 -0.1595118325
C  C187  1  0.96290000  0.79410000  0.44700000  1.0 -0.1595118325
C  C188  1  0.79410000  0.44700000  0.96290000  1.0 -0.1595118325
C  C189  1  0.44700000  0.96290000  0.79410000  1.0 -0.1595118325
C  C190  1  0.03710000  0.55300000  0.20590000  1.0 -0.1595118325
C  C191  1  0.20590000  0.03710000  0.55300000  1.0 -0.1595118325
C  C192  1  0.55300000  0.20590000  0.03710000  1.0 -0.1595118325
C  C193  1  0.11125000  0.11125000  0.57350000  1.0 -0.256609315
C  C194  1  0.11125000  0.57350000  0.11125000  1.0 -0.256609315
C  C195  1  0.57350000  0.11125000  0.11125000  1.0 -0.256609315
C  C196  1  0.88875000  0.42650000  0.88875000  1.0 -0.256609315
C  C197  1  0.88875000  0.88875000  0.42650000  1.0 -0.256609315
C  C198  1  0.42650000  0.88875000  0.88875000  1.0 -0.256609315
N  N1  1  0.53560000  0.76590000  0.93510000  1.0 -0.0042898612
N  N2  1  0.76590000  0.93510000  0.53560000  1.0 -0.0042898612
N  N3  1  0.93510000  0.53560000  0.76590000  1.0 -0.0042898612
N  N4  1  0.46440000  0.06490000  0.23410000  1.0 -0.0042898612
N  N5  1  0.23410000  0.46440000  0.06490000  1.0 -0.0042898612
N  N6  1  0.06490000  0.23410000  0.46440000  1.0 -0.0042898612
N  N7  1  0.46440000  0.23410000  0.06490000  1.0 -0.0042898612
N  N8  1  0.23410000  0.06490000  0.46440000  1.0 -0.0042898612
N  N9  1  0.06490000  0.46440000  0.23410000  1.0 -0.0042898612
N  N10  1  0.53560000  0.93510000  0.76590000  1.0 -0.0042898612
N  N11  1  0.76590000  0.53560000  0.93510000  1.0 -0.0042898612
N  N12  1  0.93510000  0.76590000  0.53560000  1.0 -0.0042898612
N  N13  1  0.35060000  0.61370000  0.77430000  1.0 0.0329973851
N  N14  1  0.61370000  0.77430000  0.35060000  1.0 0.0329973851
N  N15  1  0.77430000  0.35060000  0.61370000  1.0 0.0329973851
N  N16  1  0.64940000  0.22570000  0.38630000  1.0 0.0329973851
N  N17  1  0.38630000  0.64940000  0.22570000  1.0 0.0329973851
N  N18  1  0.22570000  0.38630000  0.64940000  1.0 0.0329973851
N  N19  1  0.64940000  0.38630000  0.22570000  1.0 0.0329973851
N  N20  1  0.38630000  0.22570000  0.64940000  1.0 0.0329973851
N  N21  1  0.22570000  0.64940000  0.38630000  1.0 0.0329973851
N  N22  1  0.35060000  0.77430000  0.61370000  1.0 0.0329973851
N  N23  1  0.61370000  0.35060000  0.77430000  1.0 0.0329973851
N  N24  1  0.77430000  0.61370000  0.35060000  1.0 0.0329973851
N  N25  1  0.94140000  0.10080000  0.48050000  1.0 -0.0871230457
N  N26  1  0.10080000  0.48050000  0.94140000  1.0 -0.0871230457
N  N27  1  0.48050000  0.94140000  0.10080000  1.0 -0.0871230457
N  N28  1  0.05860000  0.51950000  0.89920000  1.0 -0.0871230457
N  N29  1  0.89920000  0.05860000  0.51950000  1.0 -0.0871230457
N  N30  1  0.51950000  0.89920000  0.05860000  1.0 -0.0871230457
N  N31  1  0.05860000  0.89920000  0.51950000  1.0 -0.0871230457
N  N32  1  0.89920000  0.51950000  0.05860000  1.0 -0.0871230457
N  N33  1  0.51950000  0.05860000  0.89920000  1.0 -0.0871230457
N  N34  1  0.94140000  0.48050000  0.10080000  1.0 -0.0871230457
N  N35  1  0.10080000  0.94140000  0.48050000  1.0 -0.0871230457
N  N36  1  0.48050000  0.10080000  0.94140000  1.0 -0.0871230457
N  N37  1  0.07560000  0.14300000  0.55940000  1.0 -0.047205323
N  N38  1  0.14300000  0.55940000  0.07560000  1.0 -0.047205323
N  N39  1  0.55940000  0.07560000  0.14300000  1.0 -0.047205323
N  N40  1  0.92440000  0.44060000  0.85700000  1.0 -0.047205323
N  N41  1  0.85700000  0.92440000  0.44060000  1.0 -0.047205323
N  N42  1  0.44060000  0.85700000  0.92440000  1.0 -0.047205323
N  N43  1  0.92440000  0.85700000  0.44060000  1.0 -0.047205323
N  N44  1  0.85700000  0.44060000  0.92440000  1.0 -0.047205323
N  N45  1  0.44060000  0.92440000  0.85700000  1.0 -0.047205323
N  N46  1  0.07560000  0.55940000  0.14300000  1.0 -0.047205323
N  N47  1  0.14300000  0.07560000  0.55940000  1.0 -0.047205323
N  N48  1  0.55940000  0.14300000  0.07560000  1.0 -0.047205323
O  O1  1  0.52465000  0.58815000  0.98610000  1.0 -0.5285133986
O  O2  1  0.58815000  0.98610000  0.52465000  1.0 -0.5285133986
O  O3  1  0.98610000  0.52465000  0.58815000  1.0 -0.5285133986
O  O4  1  0.47535000  0.01390000  0.41185000  1.0 -0.5285133986
O  O5  1  0.41185000  0.47535000  0.01390000  1.0 -0.5285133986
O  O6  1  0.01390000  0.41185000  0.47535000  1.0 -0.5285133986
O  O7  1  0.47535000  0.41185000  0.01390000  1.0 -0.5285133986
O  O8  1  0.41185000  0.01390000  0.47535000  1.0 -0.5285133986
O  O9  1  0.01390000  0.47535000  0.41185000  1.0 -0.5285133986
O  O10  1  0.52465000  0.98610000  0.58815000  1.0 -0.5285133986
O  O11  1  0.58815000  0.52465000  0.98610000  1.0 -0.5285133986
O  O12  1  0.98610000  0.58815000  0.52465000  1.0 -0.5285133986
O  O13  1  0.60570000  0.66944000  0.14176000  1.0 -0.5116358865
O  O14  1  0.66944000  0.14176000  0.60570000  1.0 -0.5116358865
O  O15  1  0.14176000  0.60570000  0.66944000  1.0 -0.5116358865
O  O16  1  0.39430000  0.85824000  0.33056000  1.0 -0.5116358865
O  O17  1  0.33056000  0.39430000  0.85824000  1.0 -0.5116358865
O  O18  1  0.85824000  0.33056000  0.39430000  1.0 -0.5116358865
O  O19  1  0.39430000  0.33056000  0.85824000  1.0 -0.5116358865
O  O20  1  0.33056000  0.85824000  0.39430000  1.0 -0.5116358865
O  O21  1  0.85824000  0.39430000  0.33056000  1.0 -0.5116358865
O  O22  1  0.60570000  0.14176000  0.66944000  1.0 -0.5116358865
O  O23  1  0.66944000  0.60570000  0.14176000  1.0 -0.5116358865
O  O24  1  0.14176000  0.66944000  0.60570000  1.0 -0.5116358865
