# DDEC6 charges by PACMAN v1.1 (https://github.com/mtap-research/PACMAN-charge/)
data_PALVAC02_FSR_pacman
_symmetry_space_group_name_H-M   'P 1'
_cell_length_a   11.43340000
_cell_length_b   11.52500000
_cell_length_c   18.79000000
_cell_angle_alpha   90.00000000
_cell_angle_beta   92.42700000
_cell_angle_gamma   90.00000000
_symmetry_Int_Tables_number   1
_chemical_formula_structural   U2Cr3O17
_chemical_formula_sum   'U8 Cr12 O68'
_cell_volume   2473.73610981
_cell_formula_units_Z   4
loop_
 _symmetry_equiv_pos_site_id
 _symmetry_equiv_pos_as_xyz
  1  'x, y, z'
loop_
 _atom_site_type_symbol
 _atom_site_label
 _atom_site_symmetry_multiplicity
 _atom_site_fract_x
 _atom_site_fract_y
 _atom_site_fract_z
 _atom_site_occupancy
 _atom_site_charge
U  U1  1  0.37884000  0.53968000  0.22896000  1.0 2.4542352964
U  U2  1  0.09219000  0.10740000  0.21220000  1.0 2.5664750148
U  U3  1  0.62116000  0.03968000  0.27104000  1.0 2.4542352964
U  U4  1  0.90781000  0.60740000  0.28780000  1.0 2.5629348565
U  U5  1  0.62116000  0.46032000  0.77104000  1.0 2.4542352964
U  U6  1  0.90781000  0.89260000  0.78780000  1.0 2.5851778794
U  U7  1  0.37884000  0.96032000  0.72896000  1.0 2.4542352964
U  U8  1  0.09219000  0.39260000  0.71220000  1.0 2.5664750148
Cr  Cr1  1  0.09064000  0.43573000  0.15777000  1.0 1.6202904989
Cr  Cr2  1  0.16220000  0.78500000  0.20288000  1.0 1.6514285613
Cr  Cr3  1  0.38933000  0.22594000  0.17230000  1.0 1.5960192193
Cr  Cr4  1  0.90936000  0.93573000  0.34223000  1.0 1.6145126034
Cr  Cr5  1  0.83780000  0.28500000  0.29712000  1.0 1.6514285613
Cr  Cr6  1  0.61067000  0.72594000  0.32770000  1.0 1.5960192193
Cr  Cr7  1  0.90936000  0.56427000  0.84223000  1.0 1.6145126034
Cr  Cr8  1  0.83780000  0.21500000  0.79712000  1.0 1.6514285613
Cr  Cr9  1  0.61067000  0.77406000  0.82770000  1.0 1.5960192193
Cr  Cr10  1  0.09064000  0.06427000  0.65777000  1.0 1.6202904989
Cr  Cr11  1  0.16220000  0.71500000  0.70288000  1.0 1.6514285613
Cr  Cr12  1  0.38933000  0.27406000  0.67230000  1.0 1.5960192193
O  O1  1  0.22040000  0.50100000  0.14620000  1.0 -0.7898858081
O  O2  1  0.03090000  0.06020000  0.12860000  1.0 -0.4984886155
O  O3  1  0.18220000  0.92320000  0.22560000  1.0 -0.7012037825
O  O4  1  0.29280000  0.72090000  0.20320000  1.0 -0.7012037825
O  O5  1  0.51310000  0.17070000  0.20230000  1.0 -0.7492020618
O  O6  1  0.00450000  0.47020000  0.09130000  1.0 -0.4074920754
O  O7  1  0.03860000  0.48130000  0.23370000  1.0 -0.7492020618
O  O8  1  0.07710000  0.71880000  0.25910000  1.0 -0.7381904553
O  O9  1  0.14920000  0.15090000  0.29730000  1.0 -0.4882440235
O  O10  1  0.28360000  0.12540000  0.17200000  1.0 -0.7681784819
O  O11  1  0.10780000  0.29370000  0.16190000  1.0 -0.7381904553
O  O12  1  0.28640000  0.52640000  0.30340000  1.0 -0.5372865787
O  O13  1  0.55120000  0.43710000  0.29160000  1.0 0.3045886863
O  O14  1  0.10060000  0.77920000  0.12430000  1.0 -0.4882440235
O  O15  1  0.35810000  0.33730000  0.22420000  1.0 -0.7681784819
O  O16  1  0.46890000  0.55400000  0.15660000  1.0 -0.5507536869
O  O17  1  0.40050000  0.27550000  0.09470000  1.0 -0.4984886155
O  O18  1  0.77960000  0.00100000  0.35380000  1.0 -0.7898858081
O  O19  1  0.96910000  0.56020000  0.37140000  1.0 -0.4984886155
O  O20  1  0.81780000  0.42320000  0.27440000  1.0 -0.7012037825
O  O21  1  0.70720000  0.22090000  0.29680000  1.0 -0.7012037825
O  O22  1  0.48690000  0.67070000  0.29770000  1.0 -0.7492020618
O  O23  1  0.99550000  0.97020000  0.40870000  1.0 -0.4074920754
O  O24  1  0.96140000  0.98130000  0.26630000  1.0 -0.7492020618
O  O25  1  0.92290000  0.21880000  0.24090000  1.0 -0.7492020618
O  O26  1  0.85080000  0.65090000  0.20270000  1.0 -0.4882440235
O  O27  1  0.71640000  0.62540000  0.32800000  1.0 -0.7681784819
O  O28  1  0.89220000  0.79370000  0.33810000  1.0 -0.7381904553
O  O29  1  0.71360000  0.02640000  0.19660000  1.0 -0.5372865787
O  O30  1  0.44880000  0.93710000  0.20840000  1.0 0.2912927676
O  O31  1  0.89940000  0.27920000  0.37570000  1.0 -0.4882440235
O  O32  1  0.64190000  0.83730000  0.27580000  1.0 -0.7681784819
O  O33  1  0.53110000  0.05400000  0.34340000  1.0 -0.5507536869
O  O34  1  0.59950000  0.77550000  0.40530000  1.0 -0.4984886155
O  O35  1  0.77960000  0.49900000  0.85380000  1.0 -0.7898858081
O  O36  1  0.96910000  0.93980000  0.87140000  1.0 -0.509809811
O  O37  1  0.81780000  0.07680000  0.77440000  1.0 -0.7012037825
O  O38  1  0.70720000  0.27910000  0.79680000  1.0 -0.6946925711
O  O39  1  0.48690000  0.82930000  0.79770000  1.0 -0.7492020618
O  O40  1  0.99550000  0.52980000  0.90870000  1.0 -0.4074920754
O  O41  1  0.96140000  0.51870000  0.76630000  1.0 -0.755069692
O  O42  1  0.92290000  0.28120000  0.74090000  1.0 -0.7492020618
O  O43  1  0.85080000  0.84910000  0.70270000  1.0 -0.4882440235
O  O44  1  0.71640000  0.87460000  0.82800000  1.0 -0.7775512527
O  O45  1  0.89220000  0.70630000  0.83810000  1.0 -0.7381904553
O  O46  1  0.71360000  0.47360000  0.69660000  1.0 -0.5372865787
O  O47  1  0.44880000  0.56290000  0.70840000  1.0 0.2912927676
O  O48  1  0.89940000  0.22080000  0.87570000  1.0 -0.4882440235
O  O49  1  0.64190000  0.66270000  0.77580000  1.0 -0.7681784819
O  O50  1  0.53110000  0.44600000  0.84340000  1.0 -0.5507536869
O  O51  1  0.59950000  0.72450000  0.90530000  1.0 -0.4984886155
O  O52  1  0.22040000  0.99900000  0.64620000  1.0 -0.7898858081
O  O53  1  0.03090000  0.43980000  0.62860000  1.0 -0.4984886155
O  O54  1  0.18220000  0.57680000  0.72560000  1.0 -0.7012037825
O  O55  1  0.29280000  0.77910000  0.70320000  1.0 -0.7012037825
O  O56  1  0.51310000  0.32930000  0.70230000  1.0 -0.7492020618
O  O57  1  0.00450000  0.02980000  0.59130000  1.0 -0.4074920754
O  O58  1  0.03860000  0.01870000  0.73370000  1.0 -0.7492020618
O  O59  1  0.07710000  0.78120000  0.75910000  1.0 -0.7492020618
O  O60  1  0.14920000  0.34910000  0.79730000  1.0 -0.4882440235
O  O61  1  0.28360000  0.37460000  0.67200000  1.0 -0.7775512527
O  O62  1  0.10780000  0.20630000  0.66190000  1.0 -0.7381904553
O  O63  1  0.28640000  0.97360000  0.80340000  1.0 -0.5342608284
O  O64  1  0.55120000  0.06290000  0.79160000  1.0 0.3045886863
O  O65  1  0.10060000  0.72080000  0.62430000  1.0 -0.4882440235
O  O66  1  0.35810000  0.16270000  0.72420000  1.0 -0.7681784819
O  O67  1  0.46890000  0.94600000  0.65660000  1.0 -0.5507536869
O  O68  1  0.40050000  0.22450000  0.59470000  1.0 -0.4984886155
