# DDEC6 charges by PACMAN v1.1 (https://github.com/mtap-research/PACMAN-charge/)
data_PALVAC_FSR_pacman
_symmetry_space_group_name_H-M   'P 1'
_cell_length_a   11.43340000
_cell_length_b   11.52500000
_cell_length_c   18.79000000
_cell_angle_alpha   90.00000000
_cell_angle_beta   92.42700000
_cell_angle_gamma   90.00000000
_symmetry_Int_Tables_number   1
_chemical_formula_structural   U2Cr3O17
_chemical_formula_sum   'U8 Cr12 O68'
_cell_volume   2473.73610981
_cell_formula_units_Z   4
loop_
 _symmetry_equiv_pos_site_id
 _symmetry_equiv_pos_as_xyz
  1  'x, y, z'
loop_
 _atom_site_type_symbol
 _atom_site_label
 _atom_site_symmetry_multiplicity
 _atom_site_fract_x
 _atom_site_fract_y
 _atom_site_fract_z
 _atom_site_occupancy
 _atom_site_charge
U  U1  1  0.62117000  0.53968000  0.77104000  1.0 2.4565927224
U  U2  1  0.90781000  0.10740000  0.78780000  1.0 2.5906371312
U  U3  1  0.37883000  0.03968000  0.72896000  1.0 2.4565927224
U  U4  1  0.09219000  0.60740000  0.71220000  1.0 2.5679756042
U  U5  1  0.37883000  0.46032000  0.22896000  1.0 2.4565927224
U  U6  1  0.09219000  0.89260000  0.21220000  1.0 2.5679756042
U  U7  1  0.62117000  0.96032000  0.27104000  1.0 2.4565927224
U  U8  1  0.90781000  0.39260000  0.28780000  1.0 2.5679756042
Cr  Cr1  1  0.90936000  0.43573000  0.84222000  1.0 1.6108476357
Cr  Cr2  1  0.61066000  0.22594000  0.82770000  1.0 1.5933794813
Cr  Cr3  1  0.83778000  0.78500000  0.79712000  1.0 1.6510675685
Cr  Cr4  1  0.09064000  0.93573000  0.65778000  1.0 1.6192375855
Cr  Cr5  1  0.38934000  0.72594000  0.67230000  1.0 1.5933794813
Cr  Cr6  1  0.16222000  0.28500000  0.70288000  1.0 1.6510675685
Cr  Cr7  1  0.09064000  0.56427000  0.15778000  1.0 1.6192375855
Cr  Cr8  1  0.38934000  0.77406000  0.17230000  1.0 1.5933794813
Cr  Cr9  1  0.16222000  0.21500000  0.20288000  1.0 1.6510675685
Cr  Cr10  1  0.90936000  0.06427000  0.34222000  1.0 1.6108476357
Cr  Cr11  1  0.61066000  0.27406000  0.32770000  1.0 1.5933794813
Cr  Cr12  1  0.83778000  0.71500000  0.29712000  1.0 1.6510675685
O  O1  1  0.48700000  0.17080000  0.79770000  1.0 -0.7501702273
O  O2  1  0.77950000  0.50110000  0.85370000  1.0 -0.7957200571
O  O3  1  0.71360000  0.52630000  0.69660000  1.0 -0.5375730359
O  O4  1  0.53130000  0.55400000  0.84350000  1.0 -0.5520635112
O  O5  1  0.89230000  0.29380000  0.83810000  1.0 -0.7408062283
O  O6  1  0.96140000  0.48120000  0.76630000  1.0 -0.7501702273
O  O7  1  0.71640000  0.12530000  0.82800000  1.0 -0.778786437
O  O8  1  0.64180000  0.33730000  0.77590000  1.0 -0.7646218254
O  O9  1  0.59940000  0.27540000  0.90540000  1.0 -0.4980915096
O  O10  1  0.99550000  0.47020000  0.90870000  1.0 -0.4050258859
O  O11  1  0.44880000  0.43720000  0.70840000  1.0 0.2949926095
O  O12  1  0.96910000  0.06010000  0.87140000  1.0 -0.5093620582
O  O13  1  0.70720000  0.72090000  0.79680000  1.0 -0.7009140118
O  O14  1  0.85080000  0.15090000  0.70260000  1.0 -0.4896786226
O  O15  1  0.81770000  0.92320000  0.77430000  1.0 -0.7009140118
O  O16  1  0.92290000  0.71880000  0.74090000  1.0 -0.7408062283
O  O17  1  0.89950000  0.77920000  0.87580000  1.0 -0.4896786226
O  O18  1  0.51300000  0.67080000  0.70230000  1.0 -0.7501702273
O  O19  1  0.22050000  0.00110000  0.64630000  1.0 -0.7957200571
O  O20  1  0.28640000  0.02630000  0.80340000  1.0 -0.5347936316
O  O21  1  0.46870000  0.05400000  0.65650000  1.0 -0.5520635112
O  O22  1  0.10770000  0.79380000  0.66190000  1.0 -0.7347063585
O  O23  1  0.03860000  0.98120000  0.73370000  1.0 -0.7501702273
O  O24  1  0.28360000  0.62530000  0.67200000  1.0 -0.778786437
O  O25  1  0.35820000  0.83730000  0.72410000  1.0 -0.7646218254
O  O26  1  0.40060000  0.77540000  0.59460000  1.0 -0.4980915096
O  O27  1  0.00450000  0.97020000  0.59130000  1.0 -0.4029959305
O  O28  1  0.55120000  0.93720000  0.79160000  1.0 0.3091504263
O  O29  1  0.03090000  0.56010000  0.62860000  1.0 -0.4980915096
O  O30  1  0.29280000  0.22090000  0.70320000  1.0 -0.7009140118
O  O31  1  0.14920000  0.65090000  0.79740000  1.0 -0.4896786226
O  O32  1  0.18230000  0.42320000  0.72570000  1.0 -0.7009140118
O  O33  1  0.07710000  0.21880000  0.75910000  1.0 -0.7501702273
O  O34  1  0.10050000  0.27920000  0.62420000  1.0 -0.4896786226
O  O35  1  0.51300000  0.82920000  0.20230000  1.0 -0.7501702273
O  O36  1  0.22050000  0.49890000  0.14630000  1.0 -0.7957200571
O  O37  1  0.28640000  0.47370000  0.30340000  1.0 -0.5375730359
O  O38  1  0.46870000  0.44600000  0.15650000  1.0 -0.5520635112
O  O39  1  0.10770000  0.70620000  0.16190000  1.0 -0.7408062283
O  O40  1  0.03860000  0.51880000  0.23370000  1.0 -0.7501702273
O  O41  1  0.28360000  0.87470000  0.17200000  1.0 -0.7726698084
O  O42  1  0.35820000  0.66270000  0.22410000  1.0 -0.7646218254
O  O43  1  0.40060000  0.72460000  0.09460000  1.0 -0.4980915096
O  O44  1  0.00450000  0.52980000  0.09130000  1.0 -0.4050258859
O  O45  1  0.55120000  0.56280000  0.29160000  1.0 0.3091504263
O  O46  1  0.03090000  0.93990000  0.12860000  1.0 -0.4980915096
O  O47  1  0.29280000  0.27910000  0.20320000  1.0 -0.7009140118
O  O48  1  0.14920000  0.84910000  0.29740000  1.0 -0.4896786226
O  O49  1  0.18230000  0.07680000  0.22570000  1.0 -0.7009140118
O  O50  1  0.07710000  0.28120000  0.25910000  1.0 -0.7408062283
O  O51  1  0.10050000  0.22080000  0.12420000  1.0 -0.4896786226
O  O52  1  0.48700000  0.32920000  0.29770000  1.0 -0.7501702273
O  O53  1  0.77950000  0.99890000  0.35370000  1.0 -0.7957200571
O  O54  1  0.71360000  0.97370000  0.19660000  1.0 -0.5375730359
O  O55  1  0.53130000  0.94600000  0.34350000  1.0 -0.5520635112
O  O56  1  0.89230000  0.20620000  0.33810000  1.0 -0.7408062283
O  O57  1  0.96140000  0.01880000  0.26630000  1.0 -0.7501702273
O  O58  1  0.71640000  0.37470000  0.32800000  1.0 -0.7726698084
O  O59  1  0.64180000  0.16270000  0.27590000  1.0 -0.7646218254
O  O60  1  0.59940000  0.22460000  0.40540000  1.0 -0.4980915096
O  O61  1  0.99550000  0.02980000  0.40870000  1.0 -0.4050258859
O  O62  1  0.44880000  0.06280000  0.20840000  1.0 0.2977529304
O  O63  1  0.96910000  0.43990000  0.37140000  1.0 -0.4980915096
O  O64  1  0.70720000  0.77910000  0.29680000  1.0 -0.7009140118
O  O65  1  0.85080000  0.34910000  0.20260000  1.0 -0.4896786226
O  O66  1  0.81770000  0.57680000  0.27430000  1.0 -0.7009140118
O  O67  1  0.92290000  0.78120000  0.24090000  1.0 -0.7408062283
O  O68  1  0.89950000  0.72080000  0.37580000  1.0 -0.4896786226
