# DDEC6 charges by PACMAN v1.1 (https://github.com/mtap-research/PACMAN-charge/)
data_PALVEG_ion_pacman
_symmetry_space_group_name_H-M   'P 1'
_cell_length_a   11.12810000
_cell_length_b   11.15200000
_cell_length_c   32.85000000
_cell_angle_alpha   90.00000000
_cell_angle_beta   90.00000000
_cell_angle_gamma   90.00000000
_symmetry_Int_Tables_number   1
_chemical_formula_structural   U2Cr3H18C4N2O17
_chemical_formula_sum   'U16 Cr24 H144 C32 N16 O136'
_cell_volume   4076.70376392
_cell_formula_units_Z   8
loop_
 _symmetry_equiv_pos_site_id
 _symmetry_equiv_pos_as_xyz
  1  'x, y, z'
loop_
 _atom_site_type_symbol
 _atom_site_label
 _atom_site_symmetry_multiplicity
 _atom_site_fract_x
 _atom_site_fract_y
 _atom_site_fract_z
 _atom_site_occupancy
 _atom_site_charge
U  U1  1  0.45113000  0.11194000  0.71643000  1.0 2.6206850317
U  U2  1  0.96409000  0.31493000  0.76907000  1.0 2.6052116658
U  U3  1  0.54887000  0.61194000  0.78357000  1.0 2.6206850317
U  U4  1  0.03591000  0.81493000  0.73093000  1.0 2.6052116658
U  U5  1  0.70727000  0.65815000  0.52681000  1.0 2.6430725362
U  U6  1  0.62714000  0.13310000  0.49950000  1.0 2.5764006879
U  U7  1  0.20727000  0.84185000  0.47319000  1.0 2.6430725362
U  U8  1  0.12714000  0.36690000  0.50050000  1.0 2.5764006879
U  U9  1  0.04887000  0.88806000  0.21643000  1.0 2.6206850317
U  U10  1  0.53591000  0.68507000  0.26907000  1.0 2.6044556405
U  U11  1  0.95113000  0.38806000  0.28357000  1.0 2.6206850317
U  U12  1  0.46409000  0.18507000  0.23093000  1.0 2.6052116658
U  U13  1  0.79273000  0.34185000  0.02681000  1.0 2.6430725362
U  U14  1  0.87286000  0.86690000  0.99950000  1.0 2.5764006879
U  U15  1  0.29273000  0.15815000  0.97319000  1.0 2.6430725362
U  U16  1  0.37286000  0.63310000  0.00050000  1.0 2.5764006879
Cr  Cr1  1  0.29960000  0.37410000  0.76527000  1.0 1.8596575678
Cr  Cr2  1  0.88350000  0.61410000  0.81398000  1.0 1.8359004762
Cr  Cr3  1  0.62630000  0.28480000  0.79780000  1.0 1.8596575678
Cr  Cr4  1  0.70040000  0.87410000  0.73473000  1.0 1.8596575678
Cr  Cr5  1  0.11650000  0.11410000  0.68602000  1.0 1.8318907526
Cr  Cr6  1  0.37370000  0.78480000  0.70220000  1.0 1.8596575678
Cr  Cr7  1  0.82750000  0.35510000  0.55160000  1.0 1.850706568
Cr  Cr8  1  0.54260000  0.84840000  0.44928000  1.0 1.8596575678
Cr  Cr9  1  0.87830000  0.92870000  0.47908000  1.0 1.8596575678
Cr  Cr10  1  0.32750000  0.14490000  0.44840000  1.0 1.850706568
Cr  Cr11  1  0.04260000  0.65160000  0.55072000  1.0 1.8596575678
Cr  Cr12  1  0.37830000  0.57130000  0.52092000  1.0 1.8596575678
Cr  Cr13  1  0.20040000  0.62590000  0.26527000  1.0 1.8596575678
Cr  Cr14  1  0.61650000  0.38590000  0.31398000  1.0 1.8359004762
Cr  Cr15  1  0.87370000  0.71520000  0.29780000  1.0 1.8596575678
Cr  Cr16  1  0.79960000  0.12590000  0.23473000  1.0 1.850706568
Cr  Cr17  1  0.38350000  0.88590000  0.18602000  1.0 1.8318907526
Cr  Cr18  1  0.12630000  0.21520000  0.20220000  1.0 1.850706568
Cr  Cr19  1  0.67250000  0.64490000  0.05160000  1.0 1.850706568
Cr  Cr20  1  0.95740000  0.15160000  0.94928000  1.0 1.8596575678
Cr  Cr21  1  0.62170000  0.07130000  0.97908000  1.0 1.8596575678
Cr  Cr22  1  0.17250000  0.85510000  0.94840000  1.0 1.850706568
Cr  Cr23  1  0.45740000  0.34840000  0.05072000  1.0 1.8596575678
Cr  Cr24  1  0.12170000  0.42870000  0.02092000  1.0 1.8596575678
H  H1  1  0.86220000  0.15000000  0.70680000  1.0 0.3942254688
H  H2  1  0.86770000  0.07350000  0.74870000  1.0 0.4190486576
H  H3  1  0.13780000  0.65000000  0.79320000  1.0 0.3942254688
H  H4  1  0.13230000  0.57350000  0.75130000  1.0 0.4190486576
H  H5  1  0.51950000  0.27240000  0.56900000  1.0 0.4307234791
H  H6  1  0.43780000  0.30430000  0.52970000  1.0 0.4307234791
H  H7  1  0.01950000  0.22760000  0.43100000  1.0 0.4307234791
H  H8  1  0.93780000  0.19570000  0.47030000  1.0 0.4307234791
H  H9  1  0.63780000  0.85000000  0.20680000  1.0 0.3942254688
H  H10  1  0.63230000  0.92650000  0.24870000  1.0 0.4190486576
H  H11  1  0.36220000  0.35000000  0.29320000  1.0 0.3942254688
H  H12  1  0.36770000  0.42650000  0.25130000  1.0 0.4190486576
H  H13  1  0.98050000  0.72760000  0.06900000  1.0 0.4307234791
H  H14  1  0.06220000  0.69570000  0.02970000  1.0 0.4307234791
H  H15  1  0.48050000  0.77240000  0.93100000  1.0 0.4307234791
H  H16  1  0.56220000  0.80430000  0.97030000  1.0 0.4307234791
H  H17  1  0.16980000  0.56770000  0.10270000  1.0 0.1397552854
H  H18  1  0.19760000  0.69960000  0.12220000  1.0 0.1193773595
H  H19  1  0.17230000  0.58520000  0.15210000  1.0 0.1397552854
H  H20  1  0.32550000  0.50530000  0.18170000  1.0 0.1397552854
H  H21  1  0.46490000  0.51370000  0.16640000  1.0 0.1397552854
H  H22  1  0.37490000  0.41350000  0.14670000  1.0 0.1525199648
H  H23  1  0.36920000  0.55100000  0.09880000  1.0 0.2824950162
H  H24  1  0.38670000  0.66050000  0.13070000  1.0 0.2824950162
H  H25  1  0.29660000  0.54080000  0.86190000  1.0 0.1525199648
H  H26  1  0.24160000  0.66150000  0.88310000  1.0 0.1397552854
H  H27  1  0.20480000  0.62680000  0.83640000  1.0 0.1397552854
H  H28  1  0.23800000  0.36970000  0.86540000  1.0 0.1525199648
H  H29  1  0.12080000  0.33500000  0.89290000  1.0 0.1525199648
H  H30  1  0.23600000  0.40130000  0.91390000  1.0 0.1397552854
H  H31  1  0.05200000  0.54860000  0.86290000  1.0 0.2879759874
H  H32  1  0.11190000  0.54610000  0.90790000  1.0 0.2824950162
H  H33  1  0.80840000  0.55610000  0.68020000  1.0 0.1525199648
H  H34  1  0.80550000  0.64960000  0.64190000  1.0 0.1287443731
H  H35  1  0.81350000  0.50540000  0.63360000  1.0 0.1193773595
H  H36  1  0.66680000  0.38080000  0.64700000  1.0 0.1287443731
H  H37  1  0.53220000  0.42590000  0.63450000  1.0 0.1193773595
H  H38  1  0.57220000  0.42200000  0.68240000  1.0 0.1600621324
H  H39  1  0.60340000  0.60370000  0.62790000  1.0 0.2712120321
H  H40  1  0.73290000  0.56150000  0.64530000  1.0 0.0436396636
H  H41  1  0.00500000  0.07550000  0.08070000  1.0 0.1600621324
H  H42  1  0.09070000  0.19340000  0.07550000  1.0 0.1783918347
H  H43  1  0.03340000  0.16100000  0.11990000  1.0 0.1193773595
H  H44  1  0.07690000  0.89560000  0.09570000  1.0 0.1193773595
H  H45  1  0.21590000  0.86720000  0.10840000  1.0 0.1193773595
H  H46  1  0.18420000  0.91050000  0.06220000  1.0 0.1600621324
H  H47  1  0.24990000  0.05650000  0.12290000  1.0 0.2824950162
H  H48  1  0.10630000  0.07780000  0.11930000  1.0 0.1193773595
H  H49  1  0.33020000  0.43230000  0.60270000  1.0 0.1397552854
H  H50  1  0.30240000  0.30040000  0.62220000  1.0 0.1193773595
H  H51  1  0.32770000  0.41480000  0.65210000  1.0 0.1397552854
H  H52  1  0.17450000  0.49470000  0.68170000  1.0 0.1397552854
H  H53  1  0.03510000  0.48630000  0.66640000  1.0 0.1397552854
H  H54  1  0.12510000  0.58650000  0.64670000  1.0 0.1525199648
H  H55  1  0.13080000  0.44900000  0.59880000  1.0 0.2824950162
H  H56  1  0.11330000  0.33950000  0.63070000  1.0 0.2824950162
H  H57  1  0.20340000  0.45920000  0.36190000  1.0 0.1525199648
H  H58  1  0.25840000  0.33850000  0.38310000  1.0 0.1397552854
H  H59  1  0.29520000  0.37320000  0.33640000  1.0 0.1397552854
H  H60  1  0.26200000  0.63030000  0.36540000  1.0 0.1525199648
H  H61  1  0.37920000  0.66500000  0.39290000  1.0 0.1525199648
H  H62  1  0.26400000  0.59870000  0.41390000  1.0 0.1397552854
H  H63  1  0.44800000  0.45140000  0.36290000  1.0 0.2879759874
H  H64  1  0.38810000  0.45390000  0.40790000  1.0 0.2824950162
H  H65  1  0.69160000  0.44390000  0.18020000  1.0 0.1525199648
H  H66  1  0.69450000  0.35040000  0.14190000  1.0 0.1287443731
H  H67  1  0.68650000  0.49460000  0.13360000  1.0 0.1193773595
H  H68  1  0.83320000  0.61920000  0.14700000  1.0 0.1287443731
H  H69  1  0.96780000  0.57410000  0.13450000  1.0 0.1193773595
H  H70  1  0.92780000  0.57800000  0.18240000  1.0 0.1600621324
H  H71  1  0.89660000  0.39630000  0.12790000  1.0 0.2712120321
H  H72  1  0.76710000  0.43850000  0.14530000  1.0 0.0436396636
H  H73  1  0.49500000  0.92450000  0.58070000  1.0 0.1600621324
H  H74  1  0.40930000  0.80660000  0.57550000  1.0 0.1783918347
H  H75  1  0.46660000  0.83900000  0.61990000  1.0 0.1193773595
H  H76  1  0.42310000  0.10440000  0.59570000  1.0 0.1193773595
H  H77  1  0.28410000  0.13280000  0.60840000  1.0 0.1193773595
H  H78  1  0.31580000  0.08950000  0.56220000  1.0 0.1600621324
H  H79  1  0.25010000  0.94350000  0.62290000  1.0 0.2824950162
H  H80  1  0.39370000  0.92220000  0.61930000  1.0 0.1193773595
H  H81  1  0.83020000  0.06770000  0.39730000  1.0 0.1397552854
H  H82  1  0.80240000  0.19960000  0.37780000  1.0 0.1193773595
H  H83  1  0.82770000  0.08520000  0.34790000  1.0 0.1397552854
H  H84  1  0.67450000  0.00530000  0.31830000  1.0 0.1397552854
H  H85  1  0.53510000  0.01370000  0.33360000  1.0 0.1397552854
H  H86  1  0.62510000  0.91350000  0.35330000  1.0 0.1525199648
H  H87  1  0.63080000  0.05100000  0.40120000  1.0 0.2824950162
H  H88  1  0.61330000  0.16050000  0.36930000  1.0 0.2824950162
H  H89  1  0.70340000  0.04080000  0.63810000  1.0 0.1525199648
H  H90  1  0.75840000  0.16150000  0.61690000  1.0 0.1397552854
H  H91  1  0.79520000  0.12680000  0.66360000  1.0 0.1397552854
H  H92  1  0.76200000  0.86970000  0.63460000  1.0 0.1525199648
H  H93  1  0.87920000  0.83500000  0.60710000  1.0 0.1525199648
H  H94  1  0.76400000  0.90130000  0.58610000  1.0 0.1397552854
H  H95  1  0.94800000  0.04860000  0.63710000  1.0 0.2879759874
H  H96  1  0.88810000  0.04610000  0.59210000  1.0 0.2824950162
H  H97  1  0.19160000  0.05610000  0.81980000  1.0 0.1525199648
H  H98  1  0.19450000  0.14960000  0.85810000  1.0 0.1287443731
H  H99  1  0.18650000  0.00540000  0.86640000  1.0 0.1193773595
H  H100  1  0.33320000  0.88080000  0.85300000  1.0 0.1287443731
H  H101  1  0.46780000  0.92590000  0.86550000  1.0 0.1193773595
H  H102  1  0.42780000  0.92200000  0.81760000  1.0 0.1600621324
H  H103  1  0.39660000  0.10370000  0.87210000  1.0 0.2712120321
H  H104  1  0.26710000  0.06150000  0.85470000  1.0 0.0459242705
H  H105  1  0.99500000  0.57550000  0.41930000  1.0 0.1600621324
H  H106  1  0.90930000  0.69340000  0.42450000  1.0 0.1783918347
H  H107  1  0.96660000  0.66100000  0.38010000  1.0 0.1193773595
H  H108  1  0.92310000  0.39560000  0.40430000  1.0 0.1193773595
H  H109  1  0.78410000  0.36720000  0.39160000  1.0 0.1193773595
H  H110  1  0.81580000  0.41050000  0.43780000  1.0 0.1600621324
H  H111  1  0.75010000  0.55650000  0.37710000  1.0 0.2824950162
H  H112  1  0.89370000  0.57780000  0.38070000  1.0 0.1193773595
H  H113  1  0.66980000  0.93230000  0.89730000  1.0 0.1397552854
H  H114  1  0.69760000  0.80040000  0.87780000  1.0 0.1193773595
H  H115  1  0.67230000  0.91480000  0.84790000  1.0 0.1397552854
H  H116  1  0.82550000  0.99470000  0.81830000  1.0 0.1397552854
H  H117  1  0.96490000  0.98630000  0.83360000  1.0 0.1397552854
H  H118  1  0.87490000  0.08650000  0.85330000  1.0 0.1525199648
H  H119  1  0.86920000  0.94900000  0.90120000  1.0 0.2824950162
H  H120  1  0.88670000  0.83950000  0.86930000  1.0 0.2824950162
H  H121  1  0.79660000  0.95920000  0.13810000  1.0 0.1525199648
H  H122  1  0.74160000  0.83850000  0.11690000  1.0 0.1397552854
H  H123  1  0.70480000  0.87320000  0.16360000  1.0 0.1397552854
H  H124  1  0.73800000  0.13030000  0.13460000  1.0 0.1525199648
H  H125  1  0.62080000  0.16500000  0.10710000  1.0 0.1525199648
H  H126  1  0.73600000  0.09870000  0.08610000  1.0 0.1397552854
H  H127  1  0.55200000  0.95140000  0.13710000  1.0 0.2879759874
H  H128  1  0.61190000  0.95390000  0.09210000  1.0 0.2824950162
H  H129  1  0.30840000  0.94390000  0.31980000  1.0 0.1525199648
H  H130  1  0.30550000  0.85040000  0.35810000  1.0 0.1287443731
H  H131  1  0.31350000  0.99460000  0.36640000  1.0 0.1193773595
H  H132  1  0.16680000  0.11920000  0.35300000  1.0 0.1287443731
H  H133  1  0.03220000  0.07410000  0.36550000  1.0 0.1193773595
H  H134  1  0.07220000  0.07800000  0.31760000  1.0 0.1600621324
H  H135  1  0.10340000  0.89630000  0.37210000  1.0 0.2712120321
H  H136  1  0.23290000  0.93850000  0.35470000  1.0 0.0459242705
H  H137  1  0.50500000  0.42450000  0.91930000  1.0 0.1600621324
H  H138  1  0.59070000  0.30660000  0.92450000  1.0 0.1783918347
H  H139  1  0.53340000  0.33900000  0.88010000  1.0 0.1193773595
H  H140  1  0.57690000  0.60440000  0.90430000  1.0 0.1193773595
H  H141  1  0.71590000  0.63280000  0.89160000  1.0 0.1193773595
H  H142  1  0.68420000  0.58950000  0.93780000  1.0 0.1600621324
H  H143  1  0.74990000  0.44350000  0.87710000  1.0 0.2824950162
H  H144  1  0.60630000  0.42220000  0.88070000  1.0 0.1193773595
C  C1  1  0.20900000  0.61100000  0.12580000  1.0 -0.3074597735
C  C2  1  0.38000000  0.49700000  0.15770000  1.0 -0.2796001602
C  C3  1  0.22400000  0.59400000  0.86390000  1.0 -0.2691966537
C  C4  1  0.18600000  0.39500000  0.88870000  1.0 -0.3487089966
C  C5  1  0.77900000  0.56900000  0.65170000  1.0 -0.2209721673
C  C6  1  0.60000000  0.43800000  0.65400000  1.0 -0.2610967178
C  C7  1  0.06710000  0.12670000  0.09420000  1.0 -0.3220289666
C  C8  1  0.16300000  0.92000000  0.09160000  1.0 -0.3001967166
C  C9  1  0.29100000  0.38900000  0.62580000  1.0 -0.3074597735
C  C10  1  0.12000000  0.50300000  0.65770000  1.0 -0.2796001602
C  C11  1  0.27600000  0.40600000  0.36390000  1.0 -0.2691966537
C  C12  1  0.31400000  0.60500000  0.38870000  1.0 -0.3487089966
C  C13  1  0.72100000  0.43100000  0.15170000  1.0 -0.2209721673
C  C14  1  0.90000000  0.56200000  0.15400000  1.0 -0.2610967178
C  C15  1  0.43290000  0.87330000  0.59420000  1.0 -0.3220289666
C  C16  1  0.33700000  0.08000000  0.59160000  1.0 -0.3001967166
C  C17  1  0.79100000  0.11100000  0.37420000  1.0 -0.3074597735
C  C18  1  0.62000000  0.99700000  0.34230000  1.0 -0.2796001602
C  C19  1  0.77600000  0.09400000  0.63610000  1.0 -0.2691966537
C  C20  1  0.81400000  0.89500000  0.61130000  1.0 -0.3487089966
C  C21  1  0.22100000  0.06900000  0.84830000  1.0 -0.2209721673
C  C22  1  0.40000000  0.93800000  0.84600000  1.0 -0.2610967178
C  C23  1  0.93290000  0.62670000  0.40580000  1.0 -0.3220289666
C  C24  1  0.83700000  0.42000000  0.40840000  1.0 -0.3001967166
C  C25  1  0.70900000  0.88900000  0.87420000  1.0 -0.3074597735
C  C26  1  0.88000000  0.00300000  0.84230000  1.0 -0.2796001602
C  C27  1  0.72400000  0.90600000  0.13610000  1.0 -0.2691966537
C  C28  1  0.68600000  0.10500000  0.11130000  1.0 -0.3487089966
C  C29  1  0.27900000  0.93100000  0.34830000  1.0 -0.2209721673
C  C30  1  0.10000000  0.06200000  0.34600000  1.0 -0.2610967178
C  C31  1  0.56710000  0.37330000  0.90580000  1.0 -0.3220289666
C  C32  1  0.66300000  0.58000000  0.90840000  1.0 -0.3001967166
N  N1  1  0.34500000  0.58220000  0.12620000  1.0 -0.1071542464
N  N2  1  0.12600000  0.52700000  0.87850000  1.0 -0.1035474595
N  N3  1  0.64460000  0.56170000  0.65090000  1.0 -0.0374692799
N  N4  1  0.17900000  0.05000000  0.10430000  1.0 -0.0327179553
N  N5  1  0.15500000  0.41780000  0.62620000  1.0 -0.1071542464
N  N6  1  0.37400000  0.47300000  0.37850000  1.0 -0.1035474595
N  N7  1  0.85540000  0.43830000  0.15090000  1.0 -0.0374692799
N  N8  1  0.32100000  0.95000000  0.60430000  1.0 -0.0327179553
N  N9  1  0.65500000  0.08220000  0.37380000  1.0 -0.1071542464
N  N10  1  0.87400000  0.02700000  0.62150000  1.0 -0.1035474595
N  N11  1  0.35540000  0.06170000  0.84910000  1.0 -0.0374692799
N  N12  1  0.82100000  0.55000000  0.39570000  1.0 -0.0327179553
N  N13  1  0.84500000  0.91780000  0.87380000  1.0 -0.1071542464
N  N14  1  0.62600000  0.97300000  0.12150000  1.0 -0.1035474595
N  N15  1  0.14460000  0.93830000  0.34910000  1.0 -0.0374692799
N  N16  1  0.67900000  0.45000000  0.89570000  1.0 -0.0327179553
O  O1  1  0.43600000  0.91610000  0.68940000  1.0 -0.8398750875
O  O2  1  0.37060000  0.50340000  0.76820000  1.0 -0.7975469474
O  O3  1  0.39000000  0.06330000  0.76320000  1.0 -0.6505634319
O  O4  1  0.34750000  0.29830000  0.72550000  1.0 -0.8223350473
O  O5  1  0.32100000  0.29870000  0.80560000  1.0 -0.6393522078
O  O6  1  0.51400000  0.16200000  0.67010000  1.0 -0.670028974
O  O7  1  0.26470000  0.08860000  0.68290000  1.0 -0.860469748
O  O8  1  0.15180000  0.40810000  0.76170000  1.0 -0.8760996256
O  O9  1  0.08590000  0.19310000  0.72620000  1.0 -0.8398750875
O  O10  1  0.58820000  0.24310000  0.75200000  1.0 -0.7975469474
O  O11  1  0.84490000  0.15260000  0.73670000  1.0 -0.809756631
O  O12  1  0.95620000  0.48290000  0.81200000  1.0 -0.8723531086
O  O13  1  0.90930000  0.40380000  0.72860000  1.0 -0.670028974
O  O14  1  0.92780000  0.68350000  0.85370000  1.0 -0.6838376913
O  O15  1  0.01820000  0.22760000  0.80970000  1.0 -0.6348037217
O  O16  1  0.77480000  0.30260000  0.79890000  1.0 -0.8298205707
O  O17  1  0.58510000  0.18370000  0.83010000  1.0 -0.6099457983
O  O18  1  0.56400000  0.41610000  0.81060000  1.0 -0.8398750875
O  O19  1  0.62940000  0.00340000  0.73180000  1.0 -0.7975469474
O  O20  1  0.61000000  0.56330000  0.73680000  1.0 -0.6505634319
O  O21  1  0.65250000  0.79830000  0.77450000  1.0 -0.8223350473
O  O22  1  0.67900000  0.79870000  0.69440000  1.0 -0.6393522078
O  O23  1  0.48600000  0.66200000  0.82990000  1.0 -0.670028974
O  O24  1  0.73530000  0.58860000  0.81710000  1.0 -0.860469748
O  O25  1  0.84820000  0.90810000  0.73830000  1.0 -0.8760996256
O  O26  1  0.91410000  0.69310000  0.77380000  1.0 -0.8398750875
O  O27  1  0.41180000  0.74310000  0.74800000  1.0 -0.7975469474
O  O28  1  0.15510000  0.65260000  0.76330000  1.0 -0.809756631
O  O29  1  0.04380000  0.98290000  0.68800000  1.0 -0.8723531086
O  O30  1  0.09070000  0.90380000  0.77140000  1.0 -0.670028974
O  O31  1  0.07220000  0.18350000  0.64630000  1.0 -0.6838376913
O  O32  1  0.98180000  0.72760000  0.69030000  1.0 -0.6393522078
O  O33  1  0.22520000  0.80260000  0.70110000  1.0 -0.8398750875
O  O34  1  0.41490000  0.68370000  0.66990000  1.0 -0.6099457983
O  O35  1  0.76150000  0.60600000  0.47880000  1.0 -0.6505634319
O  O36  1  0.72040000  0.45930000  0.55360000  1.0 -0.8298205707
O  O37  1  0.64790000  0.70710000  0.57440000  1.0 -0.670028974
O  O38  1  0.89490000  0.64390000  0.55890000  1.0 -0.8498957027
O  O39  1  0.57180000  0.78670000  0.49310000  1.0 -0.8223350473
O  O40  1  0.52590000  0.55840000  0.51240000  1.0 -0.809756631
O  O41  1  0.81340000  0.83830000  0.51230000  1.0 -0.860469748
O  O42  1  0.75780000  0.22420000  0.54660000  1.0 -0.8498957027
O  O43  1  0.91700000  0.37490000  0.51210000  1.0 -0.860469748
O  O44  1  0.90490000  0.35460000  0.59310000  1.0 -0.6505634319
O  O45  1  0.60030000  0.99070000  0.44850000  1.0 -0.9160124902
O  O46  1  0.64650000  0.24270000  0.46180000  1.0 -0.6393522078
O  O47  1  0.60940000  0.02660000  0.53770000  1.0 -0.6505634319
O  O48  1  0.82250000  0.06830000  0.48240000  1.0 -0.8723531086
O  O49  1  0.52230000  0.29520000  0.53960000  1.0 -0.7938395087
O  O50  1  0.60390000  0.77260000  0.41380000  1.0 -0.5989764426
O  O51  1  0.85820000  0.87990000  0.43420000  1.0 -0.6393522078
O  O52  1  0.26150000  0.89400000  0.52120000  1.0 -0.6505634319
O  O53  1  0.22040000  0.04070000  0.44640000  1.0 -0.8223350473
O  O54  1  0.14790000  0.79290000  0.42560000  1.0 -0.670028974
O  O55  1  0.39490000  0.85610000  0.44110000  1.0 -0.8498957027
O  O56  1  0.07180000  0.71330000  0.50690000  1.0 -0.8223350473
O  O57  1  0.02590000  0.94160000  0.48760000  1.0 -0.809756631
O  O58  1  0.31340000  0.66170000  0.48770000  1.0 -0.860469748
O  O59  1  0.25780000  0.27580000  0.45340000  1.0 -0.8498957027
O  O60  1  0.41700000  0.12510000  0.48790000  1.0 -0.860469748
O  O61  1  0.40490000  0.14540000  0.40690000  1.0 -0.6505634319
O  O62  1  0.10030000  0.50930000  0.55150000  1.0 -0.9160124902
O  O63  1  0.14650000  0.25730000  0.53820000  1.0 -0.6393522078
O  O64  1  0.10940000  0.47340000  0.46230000  1.0 -0.6505634319
O  O65  1  0.32250000  0.43170000  0.51760000  1.0 -0.8723531086
O  O66  1  0.02230000  0.20480000  0.46040000  1.0 -0.7938395087
O  O67  1  0.10390000  0.72740000  0.58620000  1.0 -0.5989764426
O  O68  1  0.35820000  0.62010000  0.56580000  1.0 -0.6393522078
O  O69  1  0.06400000  0.08390000  0.18940000  1.0 -0.8398750875
O  O70  1  0.12940000  0.49660000  0.26820000  1.0 -0.7975469474
O  O71  1  0.11000000  0.93670000  0.26320000  1.0 -0.6505634319
O  O72  1  0.15250000  0.70170000  0.22550000  1.0 -0.8223350473
O  O73  1  0.17900000  0.70130000  0.30560000  1.0 -0.6393522078
O  O74  1  0.98600000  0.83800000  0.17010000  1.0 -0.670028974
O  O75  1  0.23530000  0.91140000  0.18290000  1.0 -0.860469748
O  O76  1  0.34820000  0.59190000  0.26170000  1.0 -0.8760996256
O  O77  1  0.41410000  0.80690000  0.22620000  1.0 -0.8398750875
O  O78  1  0.91180000  0.75690000  0.25200000  1.0 -0.7975469474
O  O79  1  0.65510000  0.84740000  0.23670000  1.0 -0.809756631
O  O80  1  0.54380000  0.51710000  0.31200000  1.0 -0.8723531086
O  O81  1  0.59070000  0.59620000  0.22860000  1.0 -0.670028974
O  O82  1  0.57220000  0.31650000  0.35370000  1.0 -0.6838376913
O  O83  1  0.48180000  0.77240000  0.30970000  1.0 -0.6393522078
O  O84  1  0.72520000  0.69740000  0.29890000  1.0 -0.8398750875
O  O85  1  0.91490000  0.81630000  0.33010000  1.0 -0.6099457983
O  O86  1  0.93600000  0.58390000  0.31060000  1.0 -0.8398750875
O  O87  1  0.87060000  0.99660000  0.23180000  1.0 -0.7975469474
O  O88  1  0.89000000  0.43670000  0.23680000  1.0 -0.6505634319
O  O89  1  0.84750000  0.20170000  0.27450000  1.0 -0.8223350473
O  O90  1  0.82100000  0.20130000  0.19440000  1.0 -0.6393522078
O  O91  1  0.01400000  0.33800000  0.32990000  1.0 -0.670028974
O  O92  1  0.76470000  0.41140000  0.31710000  1.0 -0.860469748
O  O93  1  0.65180000  0.09190000  0.23830000  1.0 -0.8760996256
O  O94  1  0.58590000  0.30690000  0.27380000  1.0 -0.8398750875
O  O95  1  0.08820000  0.25690000  0.24800000  1.0 -0.7975469474
O  O96  1  0.34490000  0.34740000  0.26330000  1.0 -0.809756631
O  O97  1  0.45620000  0.01710000  0.18800000  1.0 -0.8723531086
O  O98  1  0.40930000  0.09620000  0.27140000  1.0 -0.670028974
O  O99  1  0.42780000  0.81650000  0.14630000  1.0 -0.6838376913
O  O100  1  0.51820000  0.27240000  0.19030000  1.0 -0.6393522078
O  O101  1  0.27480000  0.19740000  0.20110000  1.0 -0.8298205707
O  O102  1  0.08510000  0.31630000  0.16990000  1.0 -0.6099457983
O  O103  1  0.73850000  0.39400000  0.97880000  1.0 -0.6505634319
O  O104  1  0.77960000  0.54070000  0.05360000  1.0 -0.8298205707
O  O105  1  0.85210000  0.29290000  0.07440000  1.0 -0.670028974
O  O106  1  0.60510000  0.35610000  0.05890000  1.0 -0.8498957027
O  O107  1  0.92820000  0.21330000  0.99310000  1.0 -0.8223350473
O  O108  1  0.97410000  0.44160000  0.01240000  1.0 -0.809756631
O  O109  1  0.68660000  0.16170000  0.01230000  1.0 -0.860469748
O  O110  1  0.74220000  0.77580000  0.04660000  1.0 -0.8498957027
O  O111  1  0.58300000  0.62510000  0.01210000  1.0 -0.860469748
O  O112  1  0.59510000  0.64540000  0.09310000  1.0 -0.6505634319
O  O113  1  0.89970000  0.00930000  0.94850000  1.0 -0.9160124902
O  O114  1  0.85350000  0.75730000  0.96180000  1.0 -0.6393522078
O  O115  1  0.89060000  0.97340000  0.03770000  1.0 -0.6505634319
O  O116  1  0.67750000  0.93170000  0.98240000  1.0 -0.8723531086
O  O117  1  0.97770000  0.70480000  0.03960000  1.0 -0.7938395087
O  O118  1  0.89610000  0.22740000  0.91380000  1.0 -0.5989764426
O  O119  1  0.64180000  0.12010000  0.93420000  1.0 -0.6393522078
O  O120  1  0.23850000  0.10600000  0.02120000  1.0 -0.6505634319
O  O121  1  0.27960000  0.95930000  0.94640000  1.0 -0.8298205707
O  O122  1  0.35210000  0.20710000  0.92560000  1.0 -0.670028974
O  O123  1  0.10510000  0.14390000  0.94110000  1.0 -0.8498957027
O  O124  1  0.42820000  0.28670000  0.00690000  1.0 -0.8223350473
O  O125  1  0.47410000  0.05840000  0.98760000  1.0 -0.809756631
O  O126  1  0.18660000  0.33830000  0.98770000  1.0 -0.860469748
O  O127  1  0.24220000  0.72420000  0.95340000  1.0 -0.8498957027
O  O128  1  0.08300000  0.87490000  0.98790000  1.0 -0.860469748
O  O129  1  0.09510000  0.85460000  0.90690000  1.0 -0.6505634319
O  O130  1  0.39970000  0.49070000  0.05150000  1.0 -0.9160124902
O  O131  1  0.35350000  0.74270000  0.03820000  1.0 -0.6393522078
O  O132  1  0.39060000  0.52660000  0.96230000  1.0 -0.6505634319
O  O133  1  0.17750000  0.56830000  0.01760000  1.0 -0.8723531086
O  O134  1  0.47770000  0.79520000  0.96040000  1.0 -0.7938395087
O  O135  1  0.39610000  0.27260000  0.08620000  1.0 -0.5989764426
O  O136  1  0.14180000  0.37990000  0.06580000  1.0 -0.6393522078
