# DDEC6 charges by PACMAN v1.1 (https://github.com/mtap-research/PACMAN-charge/)
data_PAMTUU_ASR_pacman
_symmetry_space_group_name_H-M   'P 1'
_cell_length_a   19.01200000
_cell_length_b   19.01200000
_cell_length_c   19.01200000
_cell_angle_alpha   62.95870000
_cell_angle_beta   62.95870000
_cell_angle_gamma   62.95870000
_symmetry_Int_Tables_number   1
_chemical_formula_structural   TbH11C17O12
_chemical_formula_sum   'Tb6 H66 C102 O72'
_cell_volume   5178.52047339
_cell_formula_units_Z   6
loop_
 _symmetry_equiv_pos_site_id
 _symmetry_equiv_pos_as_xyz
  1  'x, y, z'
loop_
 _atom_site_type_symbol
 _atom_site_label
 _atom_site_symmetry_multiplicity
 _atom_site_fract_x
 _atom_site_fract_y
 _atom_site_fract_z
 _atom_site_occupancy
 _atom_site_charge
Tb  Tb1  1  0.05947000  0.49565000  0.06695000  1.0 1.8497370674
Tb  Tb2  1  0.49565000  0.06695000  0.05947000  1.0 1.8497370674
Tb  Tb3  1  0.06695000  0.05947000  0.49565000  1.0 1.8497370674
Tb  Tb4  1  0.94053000  0.50435000  0.93305000  1.0 1.8497370674
Tb  Tb5  1  0.50435000  0.93305000  0.94053000  1.0 1.8497370674
Tb  Tb6  1  0.93305000  0.94053000  0.50435000  1.0 1.8497370674
H  H1  1  0.01650000  0.72660000  0.73740000  1.0 0.1208268696
H  H2  1  0.72660000  0.73740000  0.01650000  1.0 0.1208268696
H  H3  1  0.73740000  0.01650000  0.72660000  1.0 0.1208268696
H  H4  1  0.98350000  0.27340000  0.26260000  1.0 0.1208268696
H  H5  1  0.27340000  0.26260000  0.98350000  1.0 0.1208268696
H  H6  1  0.26260000  0.98350000  0.27340000  1.0 0.1208268696
H  H7  1  0.13280000  0.89200000  0.65760000  1.0 0.0907586441
H  H8  1  0.89200000  0.65760000  0.13280000  1.0 0.0907586441
H  H9  1  0.65760000  0.13280000  0.89200000  1.0 0.0907586441
H  H10  1  0.86720000  0.10800000  0.34240000  1.0 0.0907586441
H  H11  1  0.10800000  0.34240000  0.86720000  1.0 0.0907586441
H  H12  1  0.34240000  0.86720000  0.10800000  1.0 0.0907586441
H  H13  1  0.15230000  0.69800000  0.86600000  1.0 0.1493093117
H  H14  1  0.69800000  0.86600000  0.15230000  1.0 0.1493093117
H  H15  1  0.86600000  0.15230000  0.69800000  1.0 0.1493093117
H  H16  1  0.84770000  0.30200000  0.13400000  1.0 0.1493093117
H  H17  1  0.30200000  0.13400000  0.84770000  1.0 0.1493093117
H  H18  1  0.13400000  0.84770000  0.30200000  1.0 0.1493093117
H  H19  1  0.37300000  0.89290000  0.66940000  1.0 0.1110266863
H  H20  1  0.89290000  0.66940000  0.37300000  1.0 0.1110266863
H  H21  1  0.66940000  0.37300000  0.89290000  1.0 0.1110266863
H  H22  1  0.62700000  0.10710000  0.33060000  1.0 0.1110266863
H  H23  1  0.10710000  0.33060000  0.62700000  1.0 0.1110266863
H  H24  1  0.33060000  0.62700000  0.10710000  1.0 0.1110266863
H  H25  1  0.44840000  0.91510000  0.72390000  1.0 0.1208268696
H  H26  1  0.91510000  0.72390000  0.44840000  1.0 0.1208268696
H  H27  1  0.72390000  0.44840000  0.91510000  1.0 0.1208268696
H  H28  1  0.55160000  0.08490000  0.27610000  1.0 0.1208268696
H  H29  1  0.08490000  0.27610000  0.55160000  1.0 0.1208268696
H  H30  1  0.27610000  0.55160000  0.08490000  1.0 0.1208268696
H  H31  1  0.25100000  0.94220000  0.91880000  1.0 0.0982474356
H  H32  1  0.94220000  0.91880000  0.25100000  1.0 0.0982474356
H  H33  1  0.91880000  0.25100000  0.94220000  1.0 0.0982474356
H  H34  1  0.74900000  0.05780000  0.08120000  1.0 0.0982474356
H  H35  1  0.05780000  0.08120000  0.74900000  1.0 0.0982474356
H  H36  1  0.08120000  0.74900000  0.05780000  1.0 0.0982474356
H  H37  1  0.17460000  0.93250000  0.86000000  1.0 0.0982474356
H  H38  1  0.93250000  0.86000000  0.17460000  1.0 0.0982474356
H  H39  1  0.86000000  0.17460000  0.93250000  1.0 0.0982474356
H  H40  1  0.82540000  0.06750000  0.14000000  1.0 0.0982474356
H  H41  1  0.06750000  0.14000000  0.82540000  1.0 0.0982474356
H  H42  1  0.14000000  0.82540000  0.06750000  1.0 0.0982474356
H  H43  1  0.19110000  0.93990000  0.69150000  1.0 0.1290316476
H  H44  1  0.93990000  0.69150000  0.19110000  1.0 0.1290316476
H  H45  1  0.69150000  0.19110000  0.93990000  1.0 0.1290316476
H  H46  1  0.80890000  0.06010000  0.30850000  1.0 0.1290316476
H  H47  1  0.06010000  0.30850000  0.80890000  1.0 0.1290316476
H  H48  1  0.30850000  0.80890000  0.06010000  1.0 0.1290316476
H  H49  1  0.27210000  0.86340000  0.67680000  1.0 0.07988331
H  H50  1  0.86340000  0.67680000  0.27210000  1.0 0.07988331
H  H51  1  0.67680000  0.27210000  0.86340000  1.0 0.07988331
H  H52  1  0.72790000  0.13660000  0.32320000  1.0 0.07988331
H  H53  1  0.13660000  0.32320000  0.72790000  1.0 0.07988331
H  H54  1  0.32320000  0.72790000  0.13660000  1.0 0.07988331
H  H55  1  0.05480000  0.31350000  0.81150000  1.0 0.1110266863
H  H56  1  0.31350000  0.81150000  0.05480000  1.0 0.1110266863
H  H57  1  0.81150000  0.05480000  0.31350000  1.0 0.1110266863
H  H58  1  0.94520000  0.68650000  0.18850000  1.0 0.1110266863
H  H59  1  0.68650000  0.18850000  0.94520000  1.0 0.1110266863
H  H60  1  0.18850000  0.94520000  0.68650000  1.0 0.1110266863
H  H61  1  0.06390000  0.21840000  0.86570000  1.0 0.0982474356
H  H62  1  0.21840000  0.86570000  0.06390000  1.0 0.0982474356
H  H63  1  0.86570000  0.06390000  0.21840000  1.0 0.0982474356
H  H64  1  0.93610000  0.78160000  0.13430000  1.0 0.0982474356
H  H65  1  0.78160000  0.13430000  0.93610000  1.0 0.0982474356
H  H66  1  0.13430000  0.93610000  0.78160000  1.0 0.0982474356
C  C1  1  0.06020000  0.62060000  0.87530000  1.0 0.6397861832
C  C2  1  0.62060000  0.87530000  0.06020000  1.0 0.6397861832
C  C3  1  0.87530000  0.06020000  0.62060000  1.0 0.6397861832
C  C4  1  0.93980000  0.37940000  0.12470000  1.0 0.6397861832
C  C5  1  0.37940000  0.12470000  0.93980000  1.0 0.6397861832
C  C6  1  0.12470000  0.93980000  0.37940000  1.0 0.6397861832
C  C7  1  0.08346000  0.69856000  0.81056000  1.0 0.0105685603
C  C8  1  0.69856000  0.81056000  0.08346000  1.0 0.0105685603
C  C9  1  0.81056000  0.08346000  0.69856000  1.0 0.0105685603
C  C10  1  0.91654000  0.30144000  0.18944000  1.0 0.0105685603
C  C11  1  0.30144000  0.18944000  0.91654000  1.0 0.0105685603
C  C12  1  0.18944000  0.91654000  0.30144000  1.0 0.0105685603
C  C13  1  0.05090000  0.74430000  0.74350000  1.0 -0.1602761165
C  C14  1  0.74430000  0.74350000  0.05090000  1.0 -0.1537666762
C  C15  1  0.74350000  0.05090000  0.74430000  1.0 -0.1602761165
C  C16  1  0.94910000  0.25570000  0.25650000  1.0 -0.1537666762
C  C17  1  0.25570000  0.25650000  0.94910000  1.0 -0.1537666762
C  C18  1  0.25650000  0.94910000  0.25570000  1.0 -0.1537666762
C  C19  1  0.07051000  0.81561000  0.68711000  1.0 -0.0183114231
C  C20  1  0.81561000  0.68711000  0.07051000  1.0 -0.0183114231
C  C21  1  0.68711000  0.07051000  0.81561000  1.0 -0.0183114231
C  C22  1  0.92949000  0.18439000  0.31289000  1.0 -0.0183114231
C  C23  1  0.18439000  0.31289000  0.92949000  1.0 -0.0183114231
C  C24  1  0.31289000  0.92949000  0.18439000  1.0 -0.0183114231
C  C25  1  0.12020000  0.84360000  0.69580000  1.0 -0.3059526937
C  C26  1  0.84360000  0.69580000  0.12020000  1.0 -0.3059526937
C  C27  1  0.69580000  0.12020000  0.84360000  1.0 -0.3059526937
C  C28  1  0.87980000  0.15640000  0.30420000  1.0 -0.3039332883
C  C29  1  0.15640000  0.30420000  0.87980000  1.0 -0.3039332883
C  C30  1  0.30420000  0.87980000  0.15640000  1.0 -0.3059526937
C  C31  1  0.15130000  0.79790000  0.76320000  1.0 0.247486407
C  C32  1  0.79790000  0.76320000  0.15130000  1.0 0.247486407
C  C33  1  0.76320000  0.15130000  0.79790000  1.0 0.247486407
C  C34  1  0.84870000  0.20210000  0.23680000  1.0 0.247486407
C  C35  1  0.20210000  0.23680000  0.84870000  1.0 0.247486407
C  C36  1  0.23680000  0.84870000  0.20210000  1.0 0.247486407
C  C37  1  0.13230000  0.72670000  0.82070000  1.0 -0.2729093439
C  C38  1  0.72670000  0.82070000  0.13230000  1.0 -0.2729093439
C  C39  1  0.82070000  0.13230000  0.72670000  1.0 -0.2729093439
C  C40  1  0.86770000  0.27330000  0.17930000  1.0 -0.2729093439
C  C41  1  0.27330000  0.17930000  0.86770000  1.0 -0.2729093439
C  C42  1  0.17930000  0.86770000  0.27330000  1.0 -0.2729093439
C  C43  1  0.26540000  0.90910000  0.76230000  1.0 0.07988331
C  C44  1  0.90910000  0.76230000  0.26540000  1.0 0.07988331
C  C45  1  0.76230000  0.26540000  0.90910000  1.0 0.07988331
C  C46  1  0.73460000  0.09090000  0.23770000  1.0 0.07988331
C  C47  1  0.09090000  0.23770000  0.73460000  1.0 0.07988331
C  C48  1  0.23770000  0.73460000  0.09090000  1.0 0.07988331
C  C49  1  0.34760000  0.90370000  0.72000000  1.0 -0.2375639087
C  C50  1  0.90370000  0.72000000  0.34760000  1.0 -0.2375639087
C  C51  1  0.72000000  0.34760000  0.90370000  1.0 -0.2375639087
C  C52  1  0.65240000  0.09630000  0.28000000  1.0 -0.2375639087
C  C53  1  0.09630000  0.28000000  0.65240000  1.0 -0.2375639087
C  C54  1  0.28000000  0.65240000  0.09630000  1.0 -0.2375639087
C  C55  1  0.39400000  0.91440000  0.75410000  1.0 -0.1053728492
C  C56  1  0.91440000  0.75410000  0.39400000  1.0 -0.1043006883
C  C57  1  0.75410000  0.39400000  0.91440000  1.0 -0.1043006883
C  C58  1  0.60600000  0.08560000  0.24590000  1.0 -0.1043006883
C  C59  1  0.08560000  0.24590000  0.60600000  1.0 -0.1053728492
C  C60  1  0.24590000  0.60600000  0.08560000  1.0 -0.1053728492
C  C61  1  0.35790000  0.92350000  0.83090000  1.0 -0.0252722346
C  C62  1  0.92350000  0.83090000  0.35790000  1.0 -0.0252722346
C  C63  1  0.83090000  0.35790000  0.92350000  1.0 -0.0252722346
C  C64  1  0.64210000  0.07650000  0.16910000  1.0 -0.0252722346
C  C65  1  0.07650000  0.16910000  0.64210000  1.0 -0.0183114231
C  C66  1  0.16910000  0.64210000  0.07650000  1.0 -0.0252722346
C  C67  1  0.27720000  0.93170000  0.86800000  1.0 -0.1655767615
C  C68  1  0.93170000  0.86800000  0.27720000  1.0 -0.1602761165
C  C69  1  0.86800000  0.27720000  0.93170000  1.0 -0.1602761165
C  C70  1  0.72280000  0.06830000  0.13200000  1.0 -0.1655767615
C  C71  1  0.06830000  0.13200000  0.72280000  1.0 -0.1602761165
C  C72  1  0.13200000  0.72280000  0.06830000  1.0 -0.1655767615
C  C73  1  0.23100000  0.92530000  0.83270000  1.0 -0.2516893055
C  C74  1  0.92530000  0.83270000  0.23100000  1.0 -0.2516893055
C  C75  1  0.83270000  0.23100000  0.92530000  1.0 -0.2516893055
C  C76  1  0.76900000  0.07470000  0.16730000  1.0 -0.2516893055
C  C77  1  0.07470000  0.16730000  0.76900000  1.0 -0.2516893055
C  C78  1  0.16730000  0.76900000  0.07470000  1.0 -0.2516893055
C  C79  1  0.03461000  0.86281000  0.61791000  1.0 0.6285786424
C  C80  1  0.86281000  0.61791000  0.03461000  1.0 0.6285786424
C  C81  1  0.61791000  0.03461000  0.86281000  1.0 0.6285786424
C  C82  1  0.96539000  0.13719000  0.38209000  1.0 0.6285786424
C  C83  1  0.13719000  0.38209000  0.96539000  1.0 0.6285786424
C  C84  1  0.38209000  0.96539000  0.13719000  1.0 0.6285786424
C  C85  1  0.40920000  0.92880000  0.86850000  1.0 0.5369627867
C  C86  1  0.92880000  0.86850000  0.40920000  1.0 0.5369627867
C  C87  1  0.86850000  0.40920000  0.92880000  1.0 0.5369627867
C  C88  1  0.59080000  0.07120000  0.13150000  1.0 0.5369627867
C  C89  1  0.07120000  0.13150000  0.59080000  1.0 0.5369627867
C  C90  1  0.13150000  0.59080000  0.07120000  1.0 0.5369627867
C  C91  1  0.22890000  0.89010000  0.71790000  1.0 -0.0082919744
C  C92  1  0.89010000  0.71790000  0.22890000  1.0 -0.0082919744
C  C93  1  0.71790000  0.22890000  0.89010000  1.0 -0.0082919744
C  C94  1  0.77110000  0.10990000  0.28210000  1.0 -0.0082919744
C  C95  1  0.10990000  0.28210000  0.77110000  1.0 -0.0082919744
C  C96  1  0.28210000  0.77110000  0.10990000  1.0 -0.0082919744
C  C97  1  0.08530000  0.25620000  0.81220000  1.0 -0.0522468108
C  C98  1  0.25620000  0.81220000  0.08530000  1.0 -0.0522468108
C  C99  1  0.81220000  0.08530000  0.25620000  1.0 -0.0522468108
C  C100  1  0.91470000  0.74380000  0.18780000  1.0 -0.0522468108
C  C101  1  0.74380000  0.18780000  0.91470000  1.0 -0.0522468108
C  C102  1  0.18780000  0.91470000  0.74380000  1.0 -0.0522468108
O  O1  1  0.09457000  0.58017000  0.92987000  1.0 -0.6211930227
O  O2  1  0.58017000  0.92987000  0.09457000  1.0 -0.6211930227
O  O3  1  0.92987000  0.09457000  0.58017000  1.0 -0.6211930227
O  O4  1  0.90543000  0.41983000  0.07013000  1.0 -0.6211930227
O  O5  1  0.41983000  0.07013000  0.90543000  1.0 -0.6211930227
O  O6  1  0.07013000  0.90543000  0.41983000  1.0 -0.6211930227
O  O7  1  0.00725000  0.60455000  0.86765000  1.0 -0.6832922505
O  O8  1  0.60455000  0.86765000  0.00725000  1.0 -0.6832922505
O  O9  1  0.86765000  0.00725000  0.60455000  1.0 -0.6832922505
O  O10  1  0.99275000  0.39545000  0.13235000  1.0 -0.6832922505
O  O11  1  0.39545000  0.13235000  0.99275000  1.0 -0.6832922505
O  O12  1  0.13235000  0.99275000  0.39545000  1.0 -0.685396056
O  O13  1  0.96590000  0.50840000  0.20960000  1.0 0.0704784192
O  O14  1  0.50840000  0.20960000  0.96590000  1.0 0.0704784192
O  O15  1  0.20960000  0.96590000  0.50840000  1.0 0.0704784192
O  O16  1  0.03410000  0.49160000  0.79040000  1.0 0.0704784192
O  O17  1  0.49160000  0.79040000  0.03410000  1.0 0.0621713033
O  O18  1  0.79040000  0.03410000  0.49160000  1.0 0.0621713033
O  O19  1  0.99265000  0.83485000  0.60725000  1.0 -0.6211930227
O  O20  1  0.83485000  0.60725000  0.99265000  1.0 -0.6211930227
O  O21  1  0.60725000  0.99265000  0.83485000  1.0 -0.6211930227
O  O22  1  0.00735000  0.16515000  0.39275000  1.0 -0.6211930227
O  O23  1  0.16515000  0.39275000  0.00735000  1.0 -0.6211930227
O  O24  1  0.39275000  0.00735000  0.16515000  1.0 -0.6211930227
O  O25  1  0.13720000  0.37660000  0.16380000  1.0 0.0704784192
O  O26  1  0.37660000  0.16380000  0.13720000  1.0 0.0704784192
O  O27  1  0.16380000  0.13720000  0.37660000  1.0 0.07988331
O  O28  1  0.86280000  0.62340000  0.83620000  1.0 0.0704784192
O  O29  1  0.62340000  0.83620000  0.86280000  1.0 0.0907586441
O  O30  1  0.83620000  0.86280000  0.62340000  1.0 0.07988331
O  O31  1  0.04542000  0.93202000  0.57122000  1.0 -0.7169274595
O  O32  1  0.93202000  0.57122000  0.04542000  1.0 -0.7169274595
O  O33  1  0.57122000  0.04542000  0.93202000  1.0 -0.7169274595
O  O34  1  0.95458000  0.06798000  0.42878000  1.0 -0.7169274595
O  O35  1  0.06798000  0.42878000  0.95458000  1.0 -0.7169274595
O  O36  1  0.42878000  0.95458000  0.06798000  1.0 -0.7169274595
O  O37  1  0.38142000  0.92192000  0.94342000  1.0 -0.6211930227
O  O38  1  0.92192000  0.94342000  0.38142000  1.0 -0.6211930227
O  O39  1  0.94342000  0.38142000  0.92192000  1.0 -0.6211930227
O  O40  1  0.61858000  0.07808000  0.05658000  1.0 -0.6211930227
O  O41  1  0.07808000  0.05658000  0.61858000  1.0 -0.6211930227
O  O42  1  0.05658000  0.61858000  0.07808000  1.0 -0.6211930227
O  O43  1  0.47969000  0.93859000  0.82479000  1.0 -0.6138889955
O  O44  1  0.93859000  0.82479000  0.47969000  1.0 -0.6138889955
O  O45  1  0.82479000  0.47969000  0.93859000  1.0 -0.6138889955
O  O46  1  0.52031000  0.06141000  0.17521000  1.0 -0.6138889955
O  O47  1  0.06141000  0.17521000  0.52031000  1.0 -0.6211930227
O  O48  1  0.17521000  0.52031000  0.06141000  1.0 -0.6138889955
O  O49  1  0.18290000  0.83080000  0.79170000  1.0 0.0105685603
O  O50  1  0.83080000  0.79170000  0.18290000  1.0 0.0105685603
O  O51  1  0.79170000  0.18290000  0.83080000  1.0 0.0105685603
O  O52  1  0.81710000  0.16920000  0.20830000  1.0 0.0105685603
O  O53  1  0.16920000  0.20830000  0.81710000  1.0 0.0105685603
O  O54  1  0.20830000  0.81710000  0.16920000  1.0 0.0105685603
O  O55  1  0.60880000  0.81550000  0.88570000  1.0 0.1643928631
O  O56  1  0.81550000  0.88570000  0.60880000  1.0 0.1797062947
O  O57  1  0.88570000  0.60880000  0.81550000  1.0 0.1797062947
O  O58  1  0.39120000  0.18450000  0.11430000  1.0 0.1797062947
O  O59  1  0.18450000  0.11430000  0.39120000  1.0 0.1797062947
O  O60  1  0.11430000  0.39120000  0.18450000  1.0 0.1694139882
O  O61  1  0.51920000  0.79240000  0.98790000  1.0 -0.0819518572
O  O62  1  0.79240000  0.98790000  0.51920000  1.0 -0.0819518572
O  O63  1  0.98790000  0.51920000  0.79240000  1.0 -0.0916649259
O  O64  1  0.48080000  0.20760000  0.01210000  1.0 -0.0916649259
O  O65  1  0.20760000  0.01210000  0.48080000  1.0 -0.0819518572
O  O66  1  0.01210000  0.48080000  0.20760000  1.0 -0.0916649259
O  O67  1  0.19120000  0.23390000  0.78080000  1.0 0.029022937
O  O68  1  0.23390000  0.78080000  0.19120000  1.0 0.029022937
O  O69  1  0.78080000  0.19120000  0.23390000  1.0 0.029022937
O  O70  1  0.80880000  0.76610000  0.21920000  1.0 0.029022937
O  O71  1  0.76610000  0.21920000  0.80880000  1.0 0.029022937
O  O72  1  0.21920000  0.80880000  0.76610000  1.0 0.029022937
