# DDEC6 charges by PACMAN v1.1 (https://github.com/mtap-research/PACMAN-charge/)
data_PAMTOO_ASR_pacman
_symmetry_space_group_name_H-M   'P 1'
_cell_length_a   18.95840000
_cell_length_b   18.95840000
_cell_length_c   18.95840000
_cell_angle_alpha   62.93120000
_cell_angle_beta   62.93120000
_cell_angle_gamma   62.93120000
_symmetry_Int_Tables_number   1
_chemical_formula_structural   DyH11C17O11
_chemical_formula_sum   'Dy6 H66 C102 O66'
_cell_volume   5131.96887479
_cell_formula_units_Z   6
loop_
 _symmetry_equiv_pos_site_id
 _symmetry_equiv_pos_as_xyz
  1  'x, y, z'
loop_
 _atom_site_type_symbol
 _atom_site_label
 _atom_site_symmetry_multiplicity
 _atom_site_fract_x
 _atom_site_fract_y
 _atom_site_fract_z
 _atom_site_occupancy
 _atom_site_charge
Dy  Dy1  1  0.43362000  0.00432000  0.44054000  1.0 1.9226102197
Dy  Dy2  1  0.00432000  0.44054000  0.43362000  1.0 1.9226102197
Dy  Dy3  1  0.44054000  0.43362000  0.00432000  1.0 1.9226102197
Dy  Dy4  1  0.56638000  0.99568000  0.55946000  1.0 1.9226102197
Dy  Dy5  1  0.99568000  0.55946000  0.56638000  1.0 1.9226102197
Dy  Dy6  1  0.55946000  0.56638000  0.99568000  1.0 1.9226102197
H  H1  1  0.23740000  0.22740000  0.51610000  1.0 0.14798014
H  H2  1  0.22740000  0.51610000  0.23740000  1.0 0.14798014
H  H3  1  0.51610000  0.23740000  0.22740000  1.0 0.14798014
H  H4  1  0.76260000  0.77260000  0.48390000  1.0 0.14798014
H  H5  1  0.77260000  0.48390000  0.76260000  1.0 0.14798014
H  H6  1  0.48390000  0.76260000  0.77260000  1.0 0.14798014
H  H7  1  0.16050000  0.39380000  0.63030000  1.0 0.1105551001
H  H8  1  0.39380000  0.63030000  0.16050000  1.0 0.1105551001
H  H9  1  0.63030000  0.16050000  0.39380000  1.0 0.1105551001
H  H10  1  0.83950000  0.60620000  0.36970000  1.0 0.1105551001
H  H11  1  0.60620000  0.36970000  0.83950000  1.0 0.1105551001
H  H12  1  0.36970000  0.83950000  0.60620000  1.0 0.1105551001
H  H13  1  0.36710000  0.19710000  0.65160000  1.0 0.1587738408
H  H14  1  0.19710000  0.65160000  0.36710000  1.0 0.1587738408
H  H15  1  0.65160000  0.36710000  0.19710000  1.0 0.1587738408
H  H16  1  0.63290000  0.80290000  0.34840000  1.0 0.1587738408
H  H17  1  0.80290000  0.34840000  0.63290000  1.0 0.1587738408
H  H18  1  0.34840000  0.63290000  0.80290000  1.0 0.1587738408
H  H19  1  0.42080000  0.67880000  0.36680000  1.0 0.1105551001
H  H20  1  0.67880000  0.36680000  0.42080000  1.0 0.1105551001
H  H21  1  0.36680000  0.42080000  0.67880000  1.0 0.1105551001
H  H22  1  0.57920000  0.32120000  0.63320000  1.0 0.1105551001
H  H23  1  0.32120000  0.63320000  0.57920000  1.0 0.1105551001
H  H24  1  0.63320000  0.57920000  0.32120000  1.0 0.1105551001
H  H25  1  0.44100000  0.75130000  0.42050000  1.0 0.1105551001
H  H26  1  0.75130000  0.42050000  0.44100000  1.0 0.1105551001
H  H27  1  0.42050000  0.44100000  0.75130000  1.0 0.1105551001
H  H28  1  0.55900000  0.24870000  0.57950000  1.0 0.1105551001
H  H29  1  0.24870000  0.57950000  0.55900000  1.0 0.1105551001
H  H30  1  0.57950000  0.55900000  0.24870000  1.0 0.1105551001
H  H31  1  0.41730000  0.94630000  0.22310000  1.0 0.1394711672
H  H32  1  0.94630000  0.22310000  0.41730000  1.0 0.1394711672
H  H33  1  0.22310000  0.41730000  0.94630000  1.0 0.1394711672
H  H34  1  0.58270000  0.05370000  0.77690000  1.0 0.1394711672
H  H35  1  0.05370000  0.77690000  0.58270000  1.0 0.1394711672
H  H36  1  0.77690000  0.58270000  0.05370000  1.0 0.1394711672
H  H37  1  0.39300000  0.86950000  0.17180000  1.0 0.11852628
H  H38  1  0.86950000  0.17180000  0.39300000  1.0 0.11852628
H  H39  1  0.17180000  0.39300000  0.86950000  1.0 0.11852628
H  H40  1  0.60700000  0.13050000  0.82820000  1.0 0.11852628
H  H41  1  0.13050000  0.82820000  0.60700000  1.0 0.11852628
H  H42  1  0.82820000  0.60700000  0.13050000  1.0 0.11852628
H  H43  1  0.35720000  0.77840000  0.17810000  1.0 0.0897741803
H  H44  1  0.77840000  0.17810000  0.35720000  1.0 0.0897741803
H  H45  1  0.17810000  0.35720000  0.77840000  1.0 0.096357193
H  H46  1  0.64280000  0.22160000  0.82190000  1.0 0.096357193
H  H47  1  0.22160000  0.82190000  0.64280000  1.0 0.0897741803
H  H48  1  0.82190000  0.64280000  0.22160000  1.0 0.096357193
H  H49  1  0.43720000  0.69870000  0.18620000  1.0 0.1394711672
H  H50  1  0.69870000  0.18620000  0.43720000  1.0 0.1394711672
H  H51  1  0.18620000  0.43720000  0.69870000  1.0 0.1394711672
H  H52  1  0.56280000  0.30130000  0.81380000  1.0 0.1394711672
H  H53  1  0.30130000  0.81380000  0.56280000  1.0 0.1394711672
H  H54  1  0.81380000  0.56280000  0.30130000  1.0 0.1394711672
H  H55  1  0.18180000  0.43410000  0.70610000  1.0 0.1394711672
H  H56  1  0.43410000  0.70610000  0.18180000  1.0 0.1394711672
H  H57  1  0.70610000  0.18180000  0.43410000  1.0 0.1394711672
H  H58  1  0.81820000  0.56590000  0.29390000  1.0 0.1394711672
H  H59  1  0.56590000  0.29390000  0.81820000  1.0 0.1394711672
H  H60  1  0.29390000  0.81820000  0.56590000  1.0 0.1394711672
H  H61  1  0.27300000  0.43230000  0.64340000  1.0 0.1271963332
H  H62  1  0.43230000  0.64340000  0.27300000  1.0 0.1271963332
H  H63  1  0.64340000  0.27300000  0.43230000  1.0 0.1271963332
H  H64  1  0.72700000  0.56770000  0.35660000  1.0 0.1271963332
H  H65  1  0.56770000  0.35660000  0.72700000  1.0 0.1271963332
H  H66  1  0.35660000  0.72700000  0.56770000  1.0 0.1271963332
C  C1  1  0.37580000  0.12080000  0.55990000  1.0 0.6511704063
C  C2  1  0.12080000  0.55990000  0.37580000  1.0 0.6511704063
C  C3  1  0.55990000  0.37580000  0.12080000  1.0 0.6511704063
C  C4  1  0.62420000  0.87920000  0.44010000  1.0 0.6511704063
C  C5  1  0.87920000  0.44010000  0.62420000  1.0 0.6511704063
C  C6  1  0.44010000  0.62420000  0.87920000  1.0 0.6511704063
C  C7  1  0.31120000  0.19840000  0.58260000  1.0 0.0115694398
C  C8  1  0.19840000  0.58260000  0.31120000  1.0 0.0115694398
C  C9  1  0.58260000  0.31120000  0.19840000  1.0 0.0115694398
C  C10  1  0.68880000  0.80160000  0.41740000  1.0 0.0115694398
C  C11  1  0.80160000  0.41740000  0.68880000  1.0 0.0115694398
C  C12  1  0.41740000  0.68880000  0.80160000  1.0 0.0115694398
C  C13  1  0.24401000  0.24471000  0.55071000  1.0 -0.1112361702
C  C14  1  0.24471000  0.55071000  0.24401000  1.0 -0.1112361702
C  C15  1  0.55071000  0.24401000  0.24471000  1.0 -0.1112361702
C  C16  1  0.75599000  0.75529000  0.44929000  1.0 -0.1112361702
C  C17  1  0.75529000  0.44929000  0.75599000  1.0 -0.1112361702
C  C18  1  0.44929000  0.75599000  0.75529000  1.0 -0.1112361702
C  C19  1  0.18828000  0.31538000  0.57048000  1.0 -0.0024191212
C  C20  1  0.31538000  0.57048000  0.18828000  1.0 -0.0024191212
C  C21  1  0.57048000  0.18828000  0.31538000  1.0 -0.0024191212
C  C22  1  0.81172000  0.68462000  0.42952000  1.0 -0.0024191212
C  C23  1  0.68462000  0.42952000  0.81172000  1.0 -0.0024191212
C  C24  1  0.42952000  0.81172000  0.68462000  1.0 -0.0024191212
C  C25  1  0.11736000  0.36346000  0.53506000  1.0 0.6447518869
C  C26  1  0.36346000  0.53506000  0.11736000  1.0 0.6447518869
C  C27  1  0.53506000  0.11736000  0.36346000  1.0 0.6447518869
C  C28  1  0.88264000  0.63654000  0.46494000  1.0 0.6447518869
C  C29  1  0.63654000  0.46494000  0.88264000  1.0 0.6511704063
C  C30  1  0.46494000  0.88264000  0.63654000  1.0 0.6447518869
C  C31  1  0.19760000  0.34410000  0.61950000  1.0 -0.2858124064
C  C32  1  0.34410000  0.61950000  0.19760000  1.0 -0.2858124064
C  C33  1  0.61950000  0.19760000  0.34410000  1.0 -0.2858124064
C  C34  1  0.80240000  0.65590000  0.38050000  1.0 -0.2858124064
C  C35  1  0.65590000  0.38050000  0.80240000  1.0 -0.2858124064
C  C36  1  0.38050000  0.80240000  0.65590000  1.0 -0.2858124064
C  C37  1  0.26280000  0.29760000  0.65270000  1.0 0.2568114364
C  C38  1  0.29760000  0.65270000  0.26280000  1.0 0.2568114364
C  C39  1  0.65270000  0.26280000  0.29760000  1.0 0.2568114364
C  C40  1  0.73720000  0.70240000  0.34730000  1.0 0.2568114364
C  C41  1  0.70240000  0.34730000  0.73720000  1.0 0.2568114364
C  C42  1  0.34730000  0.73720000  0.70240000  1.0 0.2568114364
C  C43  1  0.32140000  0.22600000  0.63210000  1.0 -0.2592346903
C  C44  1  0.22600000  0.63210000  0.32140000  1.0 -0.2592346903
C  C45  1  0.63210000  0.32140000  0.22600000  1.0 -0.2592346903
C  C46  1  0.67860000  0.77400000  0.36790000  1.0 -0.2592346903
C  C47  1  0.77400000  0.36790000  0.67860000  1.0 -0.2592346903
C  C48  1  0.36790000  0.67860000  0.77400000  1.0 -0.2592346903
C  C49  1  0.40580000  0.76580000  0.26480000  1.0 0.0783688315
C  C50  1  0.76580000  0.26480000  0.40580000  1.0 0.0783688315
C  C51  1  0.26480000  0.40580000  0.76580000  1.0 0.0783688315
C  C52  1  0.59420000  0.23420000  0.73520000  1.0 0.0783688315
C  C53  1  0.23420000  0.73520000  0.59420000  1.0 0.0783688315
C  C54  1  0.73520000  0.59420000  0.23420000  1.0 0.0783688315
C  C55  1  0.41880000  0.73410000  0.33660000  1.0 -0.2502859991
C  C56  1  0.73410000  0.33660000  0.41880000  1.0 -0.2502859991
C  C57  1  0.33660000  0.41880000  0.73410000  1.0 -0.2502859991
C  C58  1  0.58120000  0.26590000  0.66340000  1.0 -0.2502859991
C  C59  1  0.26590000  0.66340000  0.58120000  1.0 -0.2502859991
C  C60  1  0.66340000  0.58120000  0.26590000  1.0 -0.2502859991
C  C61  1  0.42960000  0.77780000  0.37000000  1.0 -0.1509863299
C  C62  1  0.77780000  0.37000000  0.42960000  1.0 -0.1509863299
C  C63  1  0.37000000  0.42960000  0.77780000  1.0 -0.1509863299
C  C64  1  0.57040000  0.22220000  0.63000000  1.0 -0.1509863299
C  C65  1  0.22220000  0.63000000  0.57040000  1.0 -0.1509863299
C  C66  1  0.63000000  0.57040000  0.22220000  1.0 -0.1509863299
C  C67  1  0.42370000  0.85880000  0.33030000  1.0 -0.0024191212
C  C68  1  0.85880000  0.33030000  0.42370000  1.0 -0.0024191212
C  C69  1  0.33030000  0.42370000  0.85880000  1.0 -0.0024191212
C  C70  1  0.57630000  0.14120000  0.66970000  1.0 -0.0024191212
C  C71  1  0.14120000  0.66970000  0.57630000  1.0 -0.0024191212
C  C72  1  0.66970000  0.57630000  0.14120000  1.0 -0.0024191212
C  C73  1  0.42860000  0.91040000  0.36890000  1.0 0.5490652982
C  C74  1  0.91040000  0.36890000  0.42860000  1.0 0.5490652982
C  C75  1  0.36890000  0.42860000  0.91040000  1.0 0.5490652982
C  C76  1  0.57140000  0.08960000  0.63110000  1.0 0.5490652982
C  C77  1  0.08960000  0.63110000  0.57140000  1.0 0.5490652982
C  C78  1  0.63110000  0.57140000  0.08960000  1.0 0.5490652982
C  C79  1  0.41520000  0.89230000  0.25490000  1.0 -0.0890847431
C  C80  1  0.89230000  0.25490000  0.41520000  1.0 -0.0890847431
C  C81  1  0.25490000  0.41520000  0.89230000  1.0 -0.0890847431
C  C82  1  0.58480000  0.10770000  0.74510000  1.0 -0.0890847431
C  C83  1  0.10770000  0.74510000  0.58480000  1.0 -0.0890847431
C  C84  1  0.74510000  0.58480000  0.10770000  1.0 -0.0890847431
C  C85  1  0.40300000  0.84460000  0.22300000  1.0 -0.2389145033
C  C86  1  0.84460000  0.22300000  0.40300000  1.0 -0.2389145033
C  C87  1  0.22300000  0.40300000  0.84460000  1.0 -0.2389145033
C  C88  1  0.59700000  0.15540000  0.77700000  1.0 -0.2389145033
C  C89  1  0.15540000  0.77700000  0.59700000  1.0 -0.2389145033
C  C90  1  0.77700000  0.59700000  0.15540000  1.0 -0.2389145033
C  C91  1  0.38690000  0.73360000  0.21630000  1.0 0.0028132461
C  C92  1  0.73360000  0.21630000  0.38690000  1.0 -0.0024191212
C  C93  1  0.21630000  0.38690000  0.73360000  1.0 -0.0024191212
C  C94  1  0.61310000  0.26640000  0.78370000  1.0 -0.0024191212
C  C95  1  0.26640000  0.78370000  0.61310000  1.0 -0.0024191212
C  C96  1  0.78370000  0.61310000  0.26640000  1.0 0.0028132461
C  C97  1  0.24080000  0.40680000  0.69930000  1.0 -0.0078743239
C  C98  1  0.40680000  0.69930000  0.24080000  1.0 -0.0078743239
C  C99  1  0.69930000  0.24080000  0.40680000  1.0 -0.0078743239
C  C100  1  0.75920000  0.59320000  0.30070000  1.0 -0.0078743239
C  C101  1  0.59320000  0.30070000  0.75920000  1.0 -0.0078743239
C  C102  1  0.30070000  0.75920000  0.59320000  1.0 -0.0078743239
O  O1  1  0.36813000  0.10483000  0.50623000  1.0 -0.6516883807
O  O2  1  0.10483000  0.50623000  0.36813000  1.0 -0.6516883807
O  O3  1  0.50623000  0.36813000  0.10483000  1.0 -0.6516883807
O  O4  1  0.63187000  0.89517000  0.49377000  1.0 -0.6516883807
O  O5  1  0.89517000  0.49377000  0.63187000  1.0 -0.6516883807
O  O6  1  0.49377000  0.63187000  0.89517000  1.0 -0.6516883807
O  O7  1  0.43075000  0.08015000  0.59405000  1.0 -0.6112237907
O  O8  1  0.08015000  0.59405000  0.43075000  1.0 -0.6112237907
O  O9  1  0.59405000  0.43075000  0.08015000  1.0 -0.6112237907
O  O10  1  0.56925000  0.91985000  0.40595000  1.0 -0.6112237907
O  O11  1  0.91985000  0.40595000  0.56925000  1.0 -0.6112237907
O  O12  1  0.40595000  0.56925000  0.91985000  1.0 -0.6112237907
O  O13  1  0.29090000  0.99640000  0.52680000  1.0 -0.1112361702
O  O14  1  0.99640000  0.52680000  0.29090000  1.0 -0.1024966947
O  O15  1  0.52680000  0.29090000  0.99640000  1.0 -0.1112361702
O  O16  1  0.70910000  0.00360000  0.47320000  1.0 -0.1024966947
O  O17  1  0.00360000  0.47320000  0.70910000  1.0 -0.1024966947
O  O18  1  0.47320000  0.70910000  0.00360000  1.0 -0.1112361702
O  O19  1  0.42175000  0.88175000  0.44505000  1.0 -0.6337451773
O  O20  1  0.88175000  0.44505000  0.42175000  1.0 -0.6337451773
O  O21  1  0.44505000  0.42175000  0.88175000  1.0 -0.6337451773
O  O22  1  0.57825000  0.11825000  0.55495000  1.0 -0.6337451773
O  O23  1  0.11825000  0.55495000  0.57825000  1.0 -0.6337451773
O  O24  1  0.55495000  0.57825000  0.11825000  1.0 -0.6337451773
O  O25  1  0.32580000  0.11530000  0.37570000  1.0 -0.5326685942
O  O26  1  0.11530000  0.37570000  0.32580000  1.0 -0.5326685942
O  O27  1  0.37570000  0.32580000  0.11530000  1.0 -0.5326685942
O  O28  1  0.67420000  0.88470000  0.62430000  1.0 -0.5326685942
O  O29  1  0.88470000  0.62430000  0.67420000  1.0 -0.5326685942
O  O30  1  0.62430000  0.67420000  0.88470000  1.0 -0.5326685942
O  O31  1  0.43897000  0.98007000  0.32537000  1.0 -0.5540707743
O  O32  1  0.98007000  0.32537000  0.43897000  1.0 -0.5540707743
O  O33  1  0.32537000  0.43897000  0.98007000  1.0 -0.5540707743
O  O34  1  0.56103000  0.01993000  0.67463000  1.0 -0.5540707743
O  O35  1  0.01993000  0.67463000  0.56103000  1.0 -0.5540707743
O  O36  1  0.67463000  0.56103000  0.01993000  1.0 -0.5540707743
O  O37  1  0.07142000  0.43282000  0.54602000  1.0 -0.7106494443
O  O38  1  0.43282000  0.54602000  0.07142000  1.0 -0.7106494443
O  O39  1  0.54602000  0.07142000  0.43282000  1.0 -0.7106494443
O  O40  1  0.92858000  0.56718000  0.45398000  1.0 -0.7106494443
O  O41  1  0.56718000  0.45398000  0.92858000  1.0 -0.7106494443
O  O42  1  0.45398000  0.92858000  0.56718000  1.0 -0.7106494443
O  O43  1  0.10760000  0.33540000  0.49260000  1.0 -0.5718956427
O  O44  1  0.33540000  0.49260000  0.10760000  1.0 -0.5718956427
O  O45  1  0.49260000  0.10760000  0.33540000  1.0 -0.5718956427
O  O46  1  0.89240000  0.66460000  0.50740000  1.0 -0.5718956427
O  O47  1  0.66460000  0.50740000  0.89240000  1.0 -0.5718956427
O  O48  1  0.50740000  0.89240000  0.66460000  1.0 -0.5718956427
O  O49  1  0.29250000  0.33130000  0.68260000  1.0 0.0028132461
O  O50  1  0.33130000  0.68260000  0.29250000  1.0 0.0028132461
O  O51  1  0.68260000  0.29250000  0.33130000  1.0 0.0115694398
O  O52  1  0.70750000  0.66870000  0.31740000  1.0 0.0028132461
O  O53  1  0.66870000  0.31740000  0.70750000  1.0 0.0028132461
O  O54  1  0.31740000  0.70750000  0.66870000  1.0 0.0028132461
O  O55  1  0.70560000  0.96250000  0.53630000  1.0 0.2318327292
O  O56  1  0.96250000  0.53630000  0.70560000  1.0 0.2318327292
O  O57  1  0.53630000  0.70560000  0.96250000  1.0 0.2318327292
O  O58  1  0.29440000  0.03750000  0.46370000  1.0 0.2318327292
O  O59  1  0.03750000  0.46370000  0.29440000  1.0 0.2318327292
O  O60  1  0.46370000  0.29440000  0.03750000  1.0 0.2318327292
O  O61  1  0.26650000  0.30740000  0.72080000  1.0 0.0239665868
O  O62  1  0.30740000  0.72080000  0.26650000  1.0 0.0239665868
O  O63  1  0.72080000  0.26650000  0.30740000  1.0 0.0239665868
O  O64  1  0.73350000  0.69260000  0.27920000  1.0 0.0239665868
O  O65  1  0.69260000  0.27920000  0.73350000  1.0 0.0239665868
O  O66  1  0.27920000  0.73350000  0.69260000  1.0 0.0278087588
