# DDEC6 charges by PACMAN v1.1 (https://github.com/mtap-research/PACMAN-charge/)
data_PAPFOF_ion_pacman
_symmetry_space_group_name_H-M   'P 1'
_cell_length_a   8.45630000
_cell_length_b   21.38490000
_cell_length_c   10.33160000
_cell_angle_alpha   90.00000000
_cell_angle_beta   109.71100000
_cell_angle_gamma   90.00000000
_symmetry_Int_Tables_number   1
_chemical_formula_structural   ErP3C3SNO15
_chemical_formula_sum   'Er4 P12 C12 S4 N4 O60'
_cell_volume   1758.86320385
_cell_formula_units_Z   4
loop_
 _symmetry_equiv_pos_site_id
 _symmetry_equiv_pos_as_xyz
  1  'x, y, z'
loop_
 _atom_site_type_symbol
 _atom_site_label
 _atom_site_symmetry_multiplicity
 _atom_site_fract_x
 _atom_site_fract_y
 _atom_site_fract_z
 _atom_site_occupancy
 _atom_site_charge
Er  Er1  1  0.47490000  0.27970000  0.86494000  1.0 2.1595221336
Er  Er2  1  0.47490000  0.22030000  0.36494000  1.0 2.1595221336
Er  Er3  1  0.52510000  0.77970000  0.63506000  1.0 2.1595221336
Er  Er4  1  0.52510000  0.72030000  0.13506000  1.0 2.1595221336
P  P1  1  0.16550000  0.28190000  0.05720000  1.0 1.2641776378
P  P2  1  0.79620000  0.22040000  0.71410000  1.0 1.2821606125
P  P3  1  0.41000000  0.13960000  0.03820000  1.0 1.2313686783
P  P4  1  0.16550000  0.21810000  0.55720000  1.0 1.2651100929
P  P5  1  0.79620000  0.27960000  0.21410000  1.0 1.2821606125
P  P6  1  0.41000000  0.36040000  0.53820000  1.0 1.2313686783
P  P7  1  0.83450000  0.78190000  0.44280000  1.0 1.2641776378
P  P8  1  0.20380000  0.72040000  0.78590000  1.0 1.2821606125
P  P9  1  0.59000000  0.63960000  0.46180000  1.0 1.2313686783
P  P10  1  0.83450000  0.71810000  0.94280000  1.0 1.2641776378
P  P11  1  0.20380000  0.77960000  0.28590000  1.0 1.2821606125
P  P12  1  0.59000000  0.86040000  0.96180000  1.0 1.2313686783
C  C1  1  0.04700000  0.21020000  0.00500000  1.0 0.0484823237
C  C2  1  0.20310000  0.13540000  0.91280000  1.0 0.0094096835
C  C3  1  0.90630000  0.15060000  0.78950000  1.0 -0.0220598315
C  C4  1  0.04700000  0.28980000  0.50500000  1.0 0.0484823237
C  C5  1  0.20310000  0.36460000  0.41280000  1.0 0.0094096835
C  C6  1  0.90630000  0.34940000  0.28950000  1.0 -0.0220598315
C  C7  1  0.95300000  0.71020000  0.49500000  1.0 0.0484823237
C  C8  1  0.79690000  0.63540000  0.58720000  1.0 0.0094096835
C  C9  1  0.09370000  0.65060000  0.71050000  1.0 -0.0220598315
C  C10  1  0.95300000  0.78980000  0.99500000  1.0 0.0484823237
C  C11  1  0.79690000  0.86460000  0.08720000  1.0 0.0094096835
C  C12  1  0.09370000  0.84940000  0.21050000  1.0 -0.0220598315
S  S1  1  0.02280000  0.94920000  0.76050000  1.0 1.2821606125
S  S2  1  0.97720000  0.44920000  0.73950000  1.0 1.2821606125
S  S3  1  0.97720000  0.05080000  0.23950000  1.0 1.2821606125
S  S4  1  0.02280000  0.55080000  0.26050000  1.0 1.2821606125
N  N1  1  0.06400000  0.18210000  0.87690000  1.0 0.1680396634
N  N2  1  0.06400000  0.31790000  0.37690000  1.0 0.1680396634
N  N3  1  0.93600000  0.68210000  0.62310000  1.0 0.1680396634
N  N4  1  0.93600000  0.81790000  0.12310000  1.0 0.1680396634
O  O1  1  0.49440000  0.20520000  0.06780000  1.0 -0.7909463917
O  O2  1  0.27250000  0.28720000  0.96630000  1.0 -0.8038318132
O  O3  1  0.36700000  0.14080000  0.17780000  1.0 -0.7235395138
O  O4  1  0.26460000  0.28340000  0.21160000  1.0 -0.8121281837
O  O5  1  0.66950000  0.23550000  0.78430000  1.0 -0.8424448395
O  O6  1  0.68430000  0.20450000  0.55650000  1.0 -0.8424448395
O  O7  1  0.69740000  0.34540000  0.82370000  1.0 0.964418369
O  O8  1  0.51000000  0.08120000  0.03920000  1.0 -0.5563169425
O  O9  1  0.91870000  0.27140000  0.70670000  1.0 -0.5563169425
O  O10  1  0.03900000  0.33640000  0.02580000  1.0 -0.5497648968
O  O11  1  0.46400000  0.38950000  0.94550000  1.0 -0.1502357752
O  O12  1  0.49440000  0.29480000  0.56780000  1.0 -0.7909463917
O  O13  1  0.27250000  0.21280000  0.46630000  1.0 -0.8038318132
O  O14  1  0.36700000  0.35920000  0.67780000  1.0 -0.7235395138
O  O15  1  0.26460000  0.21660000  0.71160000  1.0 -0.8121281837
O  O16  1  0.66950000  0.26450000  0.28430000  1.0 -0.8459331219
O  O17  1  0.68430000  0.29550000  0.05650000  1.0 -0.8424448395
O  O18  1  0.69740000  0.15460000  0.32370000  1.0 0.9687942441
O  O19  1  0.51000000  0.41880000  0.53920000  1.0 -0.5563169425
O  O20  1  0.91870000  0.22860000  0.20670000  1.0 -0.5563169425
O  O21  1  0.03900000  0.16360000  0.52580000  1.0 -0.5497648968
O  O22  1  0.46400000  0.11050000  0.44550000  1.0 -0.1502357752
O  O23  1  0.50560000  0.70520000  0.43220000  1.0 -0.7909463917
O  O24  1  0.72750000  0.78720000  0.53370000  1.0 -0.8038318132
O  O25  1  0.63300000  0.64080000  0.32220000  1.0 -0.7235395138
O  O26  1  0.73540000  0.78340000  0.28840000  1.0 -0.8121281837
O  O27  1  0.33050000  0.73550000  0.71570000  1.0 -0.8424448395
O  O28  1  0.31570000  0.70450000  0.94350000  1.0 -0.8424448395
O  O29  1  0.30260000  0.84540000  0.67630000  1.0 0.9687942441
O  O30  1  0.49000000  0.58120000  0.46080000  1.0 -0.5497648968
O  O31  1  0.08130000  0.77140000  0.79330000  1.0 -0.5497648968
O  O32  1  0.96100000  0.83640000  0.47420000  1.0 -0.5497648968
O  O33  1  0.53600000  0.88950000  0.55450000  1.0 -0.1502357752
O  O34  1  0.50560000  0.79480000  0.93220000  1.0 -0.7909463917
O  O35  1  0.72750000  0.71280000  0.03370000  1.0 -0.8038318132
O  O36  1  0.63300000  0.85920000  0.82220000  1.0 -0.7235395138
O  O37  1  0.73540000  0.71660000  0.78840000  1.0 -0.8121281837
O  O38  1  0.33050000  0.76450000  0.21570000  1.0 -0.8459331219
O  O39  1  0.31570000  0.79550000  0.44350000  1.0 -0.8424448395
O  O40  1  0.30260000  0.65460000  0.17630000  1.0 0.9769993598
O  O41  1  0.49000000  0.91880000  0.96080000  1.0 -0.5497648968
O  O42  1  0.08130000  0.72860000  0.29330000  1.0 -0.5563169425
O  O43  1  0.96100000  0.66360000  0.97420000  1.0 -0.5497648968
O  O44  1  0.53600000  0.61050000  0.05450000  1.0 -0.1502357752
O  O45  1  0.14400000  0.99760000  0.73080000  1.0 -0.4596895625
O  O46  1  0.84060000  0.96670000  0.68050000  1.0 -0.4470625048
O  O47  1  0.06700000  0.88480000  0.71480000  1.0 -0.4274072652
O  O48  1  0.05200000  0.94910000  0.91540000  1.0 -0.4274072652
O  O49  1  0.85600000  0.49760000  0.76920000  1.0 -0.4596895625
O  O50  1  0.15940000  0.46670000  0.81950000  1.0 -0.4470625048
O  O51  1  0.93300000  0.38480000  0.78520000  1.0 -0.4365797167
O  O52  1  0.94800000  0.44910000  0.58460000  1.0 -0.4274072652
O  O53  1  0.85600000  0.00240000  0.26920000  1.0 -0.4596895625
O  O54  1  0.15940000  0.03330000  0.31950000  1.0 -0.4470625048
O  O55  1  0.93300000  0.11520000  0.28520000  1.0 -0.4365797167
O  O56  1  0.94800000  0.05090000  0.08460000  1.0 -0.4274072652
O  O57  1  0.14400000  0.50240000  0.23080000  1.0 -0.4596895625
O  O58  1  0.84060000  0.53330000  0.18050000  1.0 -0.4470625048
O  O59  1  0.06700000  0.61520000  0.21480000  1.0 -0.4365797167
O  O60  1  0.05200000  0.55090000  0.41540000  1.0 -0.4274072652
