# DDEC6 charges by PACMAN v1.1 (https://github.com/mtap-research/PACMAN-charge/)
data_PAPNUR_ion_pacman
_symmetry_space_group_name_H-M   'P 1'
_cell_length_a   13.67440000
_cell_length_b   13.67440000
_cell_length_c   15.02250000
_cell_angle_alpha   90.00000000
_cell_angle_beta   90.00000000
_cell_angle_gamma   120.00000000
_symmetry_Int_Tables_number   1
_chemical_formula_structural   CuH18C34Br2N8O7
_chemical_formula_sum   'Cu3 H54 C102 Br6 N24 O21'
_cell_volume   2432.70475277
_cell_formula_units_Z   3
loop_
 _symmetry_equiv_pos_site_id
 _symmetry_equiv_pos_as_xyz
  1  'x, y, z'
loop_
 _atom_site_type_symbol
 _atom_site_label
 _atom_site_symmetry_multiplicity
 _atom_site_fract_x
 _atom_site_fract_y
 _atom_site_fract_z
 _atom_site_occupancy
 _atom_site_charge
Cu  Cu1  1  0.00000000  0.73534000  0.33333333  1.0 0.5986105549
Cu  Cu2  1  0.26466000  0.26466000  0.00000000  1.0 0.5986105549
Cu  Cu3  1  0.73534000  0.00000000  0.66666667  1.0 0.5986105549
H  H1  1  0.78500000  0.73520000  0.36060000  1.0 0.1094324586
H  H2  1  0.26480000  0.04980000  0.02727000  1.0 0.1094324586
H  H3  1  0.95020000  0.21500000  0.69393000  1.0 0.1094324586
H  H4  1  0.73520000  0.78500000  0.63940000  1.0 0.1094324586
H  H5  1  0.04980000  0.26480000  0.97273000  1.0 0.1094324586
H  H6  1  0.21500000  0.95020000  0.30607000  1.0 0.1094324586
H  H7  1  0.60630000  0.65420000  0.29950000  1.0 0.1183648939
H  H8  1  0.34580000  0.95210000  0.96617000  1.0 0.1183648939
H  H9  1  0.04790000  0.39370000  0.63283000  1.0 0.1183648939
H  H10  1  0.65420000  0.60630000  0.70050000  1.0 0.1183648939
H  H11  1  0.95210000  0.34580000  0.03383000  1.0 0.1183648939
H  H12  1  0.39370000  0.04790000  0.36717000  1.0 0.1183648939
H  H13  1  0.56920000  0.55050000  0.16720000  1.0 0.127611617
H  H14  1  0.44950000  0.01870000  0.83387000  1.0 0.127611617
H  H15  1  0.98130000  0.43080000  0.50053000  1.0 0.127611617
H  H16  1  0.55050000  0.56920000  0.83280000  1.0 0.127611617
H  H17  1  0.01870000  0.44950000  0.16613000  1.0 0.127611617
H  H18  1  0.43080000  0.98130000  0.49947000  1.0 0.127611617
H  H19  1  0.87080000  0.57150000  0.19150000  1.0 0.1183648939
H  H20  1  0.42850000  0.29930000  0.85817000  1.0 0.1183648939
H  H21  1  0.70070000  0.12920000  0.52483000  1.0 0.1183648939
H  H22  1  0.57150000  0.87080000  0.80850000  1.0 0.1183648939
H  H23  1  0.29930000  0.42850000  0.14183000  1.0 0.1183648939
H  H24  1  0.12920000  0.70070000  0.47517000  1.0 0.1183648939
H  H25  1  0.62740000  0.46880000  0.06180000  1.0 0.2603803324
H  H26  1  0.53120000  0.15860000  0.72847000  1.0 0.2603803324
H  H27  1  0.84140000  0.37260000  0.39513000  1.0 0.2603803324
H  H28  1  0.46880000  0.62740000  0.93820000  1.0 0.2603803324
H  H29  1  0.15860000  0.53120000  0.27153000  1.0 0.2603803324
H  H30  1  0.37260000  0.84140000  0.60487000  1.0 0.2603803324
H  H31  1  0.72550000  0.18020000  0.78650000  1.0 0.0980828054
H  H32  1  0.81980000  0.54530000  0.45317000  1.0 0.0980828054
H  H33  1  0.45470000  0.27450000  0.11983000  1.0 0.0980828054
H  H34  1  0.18020000  0.72550000  0.21350000  1.0 0.0980828054
H  H35  1  0.54530000  0.81980000  0.54683000  1.0 0.0980828054
H  H36  1  0.27450000  0.45470000  0.88017000  1.0 0.0980828054
H  H37  1  0.82880000  0.96580000  0.83520000  1.0 0.1094324586
H  H38  1  0.03420000  0.86300000  0.50187000  1.0 0.1094324586
H  H39  1  0.13700000  0.17120000  0.16853000  1.0 0.1094324586
H  H40  1  0.96580000  0.82880000  0.16480000  1.0 0.1094324586
H  H41  1  0.86300000  0.03420000  0.49813000  1.0 0.1094324586
H  H42  1  0.17120000  0.13700000  0.83147000  1.0 0.1094324586
H  H43  1  0.83740000  0.00200000  0.98330000  1.0 0.1441307462
H  H44  1  0.99800000  0.83540000  0.64997000  1.0 0.1441307462
H  H45  1  0.16460000  0.16260000  0.31663000  1.0 0.1441307462
H  H46  1  0.00200000  0.83740000  0.01670000  1.0 0.1441307462
H  H47  1  0.83540000  0.99800000  0.35003000  1.0 0.1441307462
H  H48  1  0.16260000  0.16460000  0.68337000  1.0 0.1441307462
H  H49  1  0.76350000  0.10930000  0.03850000  1.0 0.0980828054
H  H50  1  0.89070000  0.65420000  0.70517000  1.0 0.0980828054
H  H51  1  0.34580000  0.23650000  0.37183000  1.0 0.0980828054
H  H52  1  0.10930000  0.76350000  0.96150000  1.0 0.0980828054
H  H53  1  0.65420000  0.89070000  0.29483000  1.0 0.0980828054
H  H54  1  0.23650000  0.34580000  0.62817000  1.0 0.0980828054
C  C1  1  0.76660000  0.68560000  0.31300000  1.0 0.0752315022
C  C2  1  0.31440000  0.08100000  0.97967000  1.0 0.0752315022
C  C3  1  0.91900000  0.23340000  0.64633000  1.0 0.0752315022
C  C4  1  0.68560000  0.76660000  0.68700000  1.0 0.0752315022
C  C5  1  0.08100000  0.31440000  0.02033000  1.0 0.0752315022
C  C6  1  0.23340000  0.91900000  0.35367000  1.0 0.0752315022
C  C7  1  0.66080000  0.64110000  0.27440000  1.0 -0.1103650511
C  C8  1  0.35890000  0.01970000  0.94107000  1.0 -0.1103650511
C  C9  1  0.98030000  0.33920000  0.60773000  1.0 -0.1103650511
C  C10  1  0.64110000  0.66080000  0.72560000  1.0 -0.1103650511
C  C11  1  0.01970000  0.35890000  0.05893000  1.0 -0.1103650511
C  C12  1  0.33920000  0.98030000  0.39227000  1.0 -0.1103650511
C  C13  1  0.63730000  0.57620000  0.19720000  1.0 -0.1308731415
C  C14  1  0.42380000  0.06110000  0.86387000  1.0 -0.1308731415
C  C15  1  0.93890000  0.36270000  0.53053000  1.0 -0.1308731415
C  C16  1  0.57620000  0.63730000  0.80280000  1.0 -0.1308731415
C  C17  1  0.06110000  0.42380000  0.13613000  1.0 -0.1308731415
C  C18  1  0.36270000  0.93890000  0.46947000  1.0 -0.1308731415
C  C19  1  0.71620000  0.55130000  0.16680000  1.0 0.1738478191
C  C20  1  0.44870000  0.16490000  0.83347000  1.0 0.1738478191
C  C21  1  0.83510000  0.28380000  0.50013000  1.0 0.1738478191
C  C22  1  0.55130000  0.71620000  0.83320000  1.0 0.1738478191
C  C23  1  0.16490000  0.44870000  0.16653000  1.0 0.1738478191
C  C24  1  0.28380000  0.83510000  0.49987000  1.0 0.1738478191
C  C25  1  0.81870000  0.59140000  0.21150000  1.0 -0.0433199937
C  C26  1  0.40860000  0.22730000  0.87817000  1.0 -0.0433199937
C  C27  1  0.77270000  0.18130000  0.54483000  1.0 -0.0433199937
C  C28  1  0.59140000  0.81870000  0.78850000  1.0 -0.0433199937
C  C29  1  0.22730000  0.40860000  0.12183000  1.0 -0.0433199937
C  C30  1  0.18130000  0.77270000  0.45517000  1.0 -0.0433199937
C  C31  1  0.75840000  0.45940000  0.04050000  1.0 0.3489499636
C  C32  1  0.54060000  0.29900000  0.70717000  1.0 0.3489499636
C  C33  1  0.70100000  0.24160000  0.37383000  1.0 0.3489499636
C  C34  1  0.45940000  0.75840000  0.95950000  1.0 0.3489499636
C  C35  1  0.29900000  0.54060000  0.29283000  1.0 0.3489499636
C  C36  1  0.24160000  0.70100000  0.62617000  1.0 0.3489499636
C  C37  1  0.72920000  0.44160000  0.93350000  1.0 0.1183648939
C  C38  1  0.55840000  0.28760000  0.60017000  1.0 0.1183648939
C  C39  1  0.71240000  0.27080000  0.26683000  1.0 0.1183648939
C  C40  1  0.44160000  0.72920000  0.06650000  1.0 0.1183648939
C  C41  1  0.28760000  0.55840000  0.39983000  1.0 0.1183648939
C  C42  1  0.27080000  0.71240000  0.73317000  1.0 0.1183648939
C  C43  1  0.78300000  0.55010000  0.87720000  1.0 -0.1103650511
C  C44  1  0.44990000  0.23290000  0.54387000  1.0 -0.1103650511
C  C45  1  0.76710000  0.21700000  0.21053000  1.0 -0.1208240023
C  C46  1  0.55010000  0.78300000  0.12280000  1.0 -0.1103650511
C  C47  1  0.23290000  0.44990000  0.45613000  1.0 -0.1103650511
C  C48  1  0.21700000  0.76710000  0.78947000  1.0 -0.1208240023
C  C49  1  0.72110000  0.26940000  0.94030000  1.0 0.2282450668
C  C50  1  0.73060000  0.45170000  0.60697000  1.0 0.2282450668
C  C51  1  0.54830000  0.27890000  0.27363000  1.0 0.2282450668
C  C52  1  0.26940000  0.72110000  0.05970000  1.0 0.2282450668
C  C53  1  0.45170000  0.73060000  0.39303000  1.0 0.2282450668
C  C54  1  0.27890000  0.54830000  0.72637000  1.0 0.2282450668
C  C55  1  0.74320000  0.16010000  0.91670000  1.0 -0.0490351378
C  C56  1  0.83990000  0.58310000  0.58337000  1.0 -0.0490351378
C  C57  1  0.41690000  0.25680000  0.25003000  1.0 -0.0490351378
C  C58  1  0.16010000  0.74320000  0.08330000  1.0 -0.0490351378
C  C59  1  0.58310000  0.83990000  0.41663000  1.0 -0.0490351378
C  C60  1  0.25680000  0.41690000  0.74997000  1.0 -0.0490351378
C  C61  1  0.74420000  0.14050000  0.82670000  1.0 0.0015674682
C  C62  1  0.85950000  0.60370000  0.49337000  1.0 0.0015674682
C  C63  1  0.39630000  0.25580000  0.16003000  1.0 0.0015674682
C  C64  1  0.14050000  0.74420000  0.17330000  1.0 0.0015674682
C  C65  1  0.60370000  0.85950000  0.50663000  1.0 0.0015674682
C  C66  1  0.25580000  0.39630000  0.83997000  1.0 0.0015674682
C  C67  1  0.80590000  0.01550000  0.85540000  1.0 0.0900050945
C  C68  1  0.98450000  0.79040000  0.52207000  1.0 0.0900050945
C  C69  1  0.20960000  0.19410000  0.18873000  1.0 0.0900050945
C  C70  1  0.01550000  0.80590000  0.14460000  1.0 0.0900050945
C  C71  1  0.79040000  0.98450000  0.47793000  1.0 0.0900050945
C  C72  1  0.19410000  0.20960000  0.81127000  1.0 0.0900050945
C  C73  1  0.80900000  0.03500000  0.94470000  1.0 -0.10093387
C  C74  1  0.96500000  0.77400000  0.61137000  1.0 -0.10093387
C  C75  1  0.22600000  0.19100000  0.27803000  1.0 -0.10093387
C  C76  1  0.03500000  0.80900000  0.05530000  1.0 -0.10093387
C  C77  1  0.77400000  0.96500000  0.38863000  1.0 -0.10093387
C  C78  1  0.19100000  0.22600000  0.72197000  1.0 -0.10093387
C  C79  1  0.77070000  0.10240000  0.97760000  1.0 -0.0866357637
C  C80  1  0.89760000  0.66830000  0.64427000  1.0 -0.0866357637
C  C81  1  0.33170000  0.22930000  0.31093000  1.0 -0.0866357637
C  C82  1  0.10240000  0.77070000  0.02240000  1.0 -0.0866357637
C  C83  1  0.66830000  0.89760000  0.35573000  1.0 -0.0866357637
C  C84  1  0.22930000  0.33170000  0.68907000  1.0 -0.0866357637
C  C85  1  0.47450000  0.79000000  0.36790000  1.0 0.275791759
C  C86  1  0.21000000  0.68450000  0.03457000  1.0 0.275791759
C  C87  1  0.31550000  0.52550000  0.70123000  1.0 0.275791759
C  C88  1  0.79000000  0.47450000  0.63210000  1.0 0.275791759
C  C89  1  0.68450000  0.21000000  0.96543000  1.0 0.275791759
C  C90  1  0.52550000  0.31550000  0.29877000  1.0 0.275791759
C  C91  1  0.30740000  0.60680000  0.37410000  1.0 0.0497748886
C  C92  1  0.39320000  0.70060000  0.04077000  1.0 0.0497748886
C  C93  1  0.29940000  0.69260000  0.70743000  1.0 0.0497748886
C  C94  1  0.60680000  0.30740000  0.62590000  1.0 0.0497748886
C  C95  1  0.70060000  0.39320000  0.95923000  1.0 0.0497748886
C  C96  1  0.69260000  0.29940000  0.29257000  1.0 0.0497748886
C  C97  1  0.25370000  0.50660000  0.43890000  1.0 0.011601334
C  C98  1  0.49340000  0.74710000  0.10557000  1.0 0.011601334
C  C99  1  0.25290000  0.74630000  0.77223000  1.0 0.011601334
C  C100  1  0.50660000  0.25370000  0.56110000  1.0 0.011601334
C  C101  1  0.74710000  0.49340000  0.89443000  1.0 0.011601334
C  C102  1  0.74630000  0.25290000  0.22777000  1.0 0.011601334
Br  Br1  1  0.00000000  0.53739000  0.33333333  1.0 -0.5649921351
Br  Br2  1  0.46261000  0.46261000  0.00000000  1.0 -0.5649921351
Br  Br3  1  0.53739000  0.00000000  0.66666667  1.0 -0.5649921351
Br  Br4  1  0.09962000  0.09962000  0.50000000  1.0 -0.4362067037
Br  Br5  1  0.00000000  0.90038000  0.83333000  1.0 -0.4362067037
Br  Br6  1  0.90038000  0.00000000  0.16667000  1.0 -0.4362067037
N  N1  1  0.84300000  0.65920000  0.28390000  1.0 -0.1898355611
N  N2  1  0.34080000  0.18380000  0.95057000  1.0 -0.1898355611
N  N3  1  0.81620000  0.15700000  0.61723000  1.0 -0.1898355611
N  N4  1  0.65920000  0.84300000  0.71610000  1.0 -0.1898355611
N  N5  1  0.18380000  0.34080000  0.04943000  1.0 -0.1898355611
N  N6  1  0.15700000  0.81620000  0.38277000  1.0 -0.1898355611
N  N7  1  0.69230000  0.48940000  0.08520000  1.0 -0.3980558931
N  N8  1  0.51060000  0.20290000  0.75187000  1.0 -0.3980558931
N  N9  1  0.79710000  0.30770000  0.41853000  1.0 -0.3980558931
N  N10  1  0.48940000  0.69230000  0.91480000  1.0 -0.3980558931
N  N11  1  0.20290000  0.51060000  0.24813000  1.0 -0.3980558931
N  N12  1  0.30770000  0.79710000  0.58147000  1.0 -0.3980558931
N  N13  1  0.74910000  0.34360000  0.91140000  1.0 -0.1773213101
N  N14  1  0.65640000  0.40550000  0.57807000  1.0 -0.1773213101
N  N15  1  0.59450000  0.25090000  0.24473000  1.0 -0.1773213101
N  N16  1  0.34360000  0.74910000  0.08860000  1.0 -0.1773213101
N  N17  1  0.40550000  0.65640000  0.42193000  1.0 -0.1773213101
N  N18  1  0.25090000  0.59450000  0.75527000  1.0 -0.1773213101
N  N19  1  0.77190000  0.06400000  0.79580000  1.0 -0.2008039855
N  N20  1  0.93600000  0.70790000  0.46247000  1.0 -0.2008039855
N  N21  1  0.29210000  0.22810000  0.12913000  1.0 -0.2008039855
N  N22  1  0.06400000  0.77190000  0.20420000  1.0 -0.2008039855
N  N23  1  0.70790000  0.93600000  0.53753000  1.0 -0.2008039855
N  N24  1  0.22810000  0.29210000  0.87087000  1.0 -0.2008039855
O  O1  1  0.84520000  0.46670000  0.06870000  1.0 -0.4466869685
O  O2  1  0.53330000  0.37850000  0.73537000  1.0 -0.4466869685
O  O3  1  0.62150000  0.15480000  0.40203000  1.0 -0.4466869685
O  O4  1  0.46670000  0.84520000  0.93130000  1.0 -0.4466869685
O  O5  1  0.37850000  0.53330000  0.26463000  1.0 -0.4466869685
O  O6  1  0.15480000  0.62150000  0.59797000  1.0 -0.4466869685
O  O7  1  0.66370000  0.24330000  0.00720000  1.0 0.011601334
O  O8  1  0.75670000  0.42040000  0.67387000  1.0 0.011601334
O  O9  1  0.57960000  0.33630000  0.34053000  1.0 0.011601334
O  O10  1  0.24330000  0.66370000  0.99280000  1.0 0.011601334
O  O11  1  0.42040000  0.75670000  0.32613000  1.0 0.011601334
O  O12  1  0.33630000  0.57960000  0.65947000  1.0 0.011601334
O  O13  1  0.00000000  0.91350000  0.33333333  1.0 -0.3980558931
O  O14  1  0.08650000  0.08650000  0.00000000  1.0 -0.3980558931
O  O15  1  0.91350000  0.00000000  0.66666667  1.0 -0.3980558931
O  O16  1  0.43540000  0.82380000  0.31180000  1.0 -0.1208240023
O  O17  1  0.17620000  0.61160000  0.97847000  1.0 -0.1208240023
O  O18  1  0.38840000  0.56460000  0.64513000  1.0 -0.1208240023
O  O19  1  0.82380000  0.43540000  0.68820000  1.0 -0.1208240023
O  O20  1  0.61160000  0.17620000  0.02153000  1.0 -0.1208240023
O  O21  1  0.56460000  0.38840000  0.35487000  1.0 -0.1208240023
