# DDEC6 charges by PACMAN v1.1 (https://github.com/mtap-research/PACMAN-charge/)
data_PAPPED_ASR_pacman
_symmetry_space_group_name_H-M   'P 1'
_cell_length_a   12.92920000
_cell_length_b   12.92920000
_cell_length_c   20.10390000
_cell_angle_alpha   90.00000000
_cell_angle_beta   90.00000000
_cell_angle_gamma   120.00000000
_symmetry_Int_Tables_number   1
_chemical_formula_structural   CuH40C34N8(ClO2)2
_chemical_formula_sum   'Cu3 H120 C102 N24 Cl6 O12'
_cell_volume   2910.41053745
_cell_formula_units_Z   3
loop_
 _symmetry_equiv_pos_site_id
 _symmetry_equiv_pos_as_xyz
  1  'x, y, z'
loop_
 _atom_site_type_symbol
 _atom_site_label
 _atom_site_symmetry_multiplicity
 _atom_site_fract_x
 _atom_site_fract_y
 _atom_site_fract_z
 _atom_site_occupancy
 _atom_site_charge
Cu  Cu1  1  0.37953000  0.37953000  0.00000000  1.0 0.6097866426
Cu  Cu2  1  0.62047000  0.00000000  0.66666667  1.0 0.6097866426
Cu  Cu3  1  0.00000000  0.62047000  0.33333333  1.0 0.6097866426
H  H1  1  0.12860000  0.22870000  0.05350000  1.0 0.1109317014
H  H2  1  0.77130000  0.89990000  0.72017000  1.0 0.1109317014
H  H3  1  0.10010000  0.87140000  0.38683000  1.0 0.1109317014
H  H4  1  0.22870000  0.12860000  0.94650000  1.0 0.1109317014
H  H5  1  0.89990000  0.77130000  0.27983000  1.0 0.1109317014
H  H6  1  0.87140000  0.10010000  0.61317000  1.0 0.1109317014
H  H7  1  0.04090000  0.12890000  0.15070000  1.0 0.1290420137
H  H8  1  0.87110000  0.91200000  0.81737000  1.0 0.1290420137
H  H9  1  0.08800000  0.95910000  0.48403000  1.0 0.1290420137
H  H10  1  0.12890000  0.04090000  0.84930000  1.0 0.1290420137
H  H11  1  0.91200000  0.87110000  0.18263000  1.0 0.1290420137
H  H12  1  0.95910000  0.08800000  0.51597000  1.0 0.1290420137
H  H13  1  0.15340000  0.09850000  0.22980000  1.0 0.1290420137
H  H14  1  0.90150000  0.05490000  0.89647000  1.0 0.1290420137
H  H15  1  0.94510000  0.84660000  0.56313000  1.0 0.1290420137
H  H16  1  0.09850000  0.15340000  0.77020000  1.0 0.1290420137
H  H17  1  0.05490000  0.90150000  0.10353000  1.0 0.1290420137
H  H18  1  0.84660000  0.94510000  0.43687000  1.0 0.1290420137
H  H19  1  0.43130000  0.25300000  0.10560000  1.0 0.1212560648
H  H20  1  0.74700000  0.17830000  0.77227000  1.0 0.1212560648
H  H21  1  0.82170000  0.56870000  0.43893000  1.0 0.1212560648
H  H22  1  0.25300000  0.43130000  0.89440000  1.0 0.1212560648
H  H23  1  0.17830000  0.74700000  0.22773000  1.0 0.1212560648
H  H24  1  0.56870000  0.82170000  0.56107000  1.0 0.1212560648
H  H25  1  0.45770000  0.19520000  0.20730000  1.0 0.302691711
H  H26  1  0.80480000  0.26250000  0.87397000  1.0 0.302691711
H  H27  1  0.73750000  0.54230000  0.54063000  1.0 0.302691711
H  H28  1  0.19520000  0.45770000  0.79270000  1.0 0.302691711
H  H29  1  0.26250000  0.80480000  0.12603000  1.0 0.302691711
H  H30  1  0.54230000  0.73750000  0.45937000  1.0 0.302691711
H  H31  1  0.52750000  0.16800000  0.30840000  1.0 0.1109317014
H  H32  1  0.83200000  0.35950000  0.97507000  1.0 0.1109317014
H  H33  1  0.64050000  0.47250000  0.64173000  1.0 0.1109317014
H  H34  1  0.16800000  0.52750000  0.69160000  1.0 0.1109317014
H  H35  1  0.35950000  0.83200000  0.02493000  1.0 0.1109317014
H  H36  1  0.47250000  0.64050000  0.35827000  1.0 0.1109317014
H  H37  1  0.52150000  0.04760000  0.21950000  1.0 0.1017627733
H  H38  1  0.95240000  0.47390000  0.88617000  1.0 0.1017627733
H  H39  1  0.52610000  0.47850000  0.55283000  1.0 0.1017627733
H  H40  1  0.04760000  0.52150000  0.78050000  1.0 0.1017627733
H  H41  1  0.47390000  0.95240000  0.11383000  1.0 0.1017627733
H  H42  1  0.47850000  0.52610000  0.44717000  1.0 0.1017627733
H  H43  1  0.43450000  0.93260000  0.25950000  1.0 0.1212560648
H  H44  1  0.06740000  0.50190000  0.92617000  1.0 0.1212560648
H  H45  1  0.49810000  0.56550000  0.59283000  1.0 0.1212560648
H  H46  1  0.93260000  0.43450000  0.74050000  1.0 0.1212560648
H  H47  1  0.50190000  0.06740000  0.07383000  1.0 0.1212560648
H  H48  1  0.56550000  0.49810000  0.40717000  1.0 0.1212560648
H  H49  1  0.59370000  0.98810000  0.33950000  1.0 0.0719978938
H  H50  1  0.01190000  0.60560000  0.00617000  1.0 0.0719978938
H  H51  1  0.39440000  0.40630000  0.67283000  1.0 0.0719978938
H  H52  1  0.98810000  0.59370000  0.66050000  1.0 0.0719978938
H  H53  1  0.60560000  0.01190000  0.99383000  1.0 0.0719978938
H  H54  1  0.40630000  0.39440000  0.32717000  1.0 0.0719978938
H  H55  1  0.78700000  0.11760000  0.30180000  1.0 0.1212560648
H  H56  1  0.88240000  0.66940000  0.96847000  1.0 0.1212560648
H  H57  1  0.33060000  0.21300000  0.63513000  1.0 0.1212560648
H  H58  1  0.11760000  0.78700000  0.69820000  1.0 0.1212560648
H  H59  1  0.66940000  0.88240000  0.03153000  1.0 0.1212560648
H  H60  1  0.21300000  0.33060000  0.36487000  1.0 0.1212560648
H  H61  1  0.71450000  0.18400000  0.31130000  1.0 0.1212560648
H  H62  1  0.81600000  0.53050000  0.97797000  1.0 0.1212560648
H  H63  1  0.46950000  0.28550000  0.64463000  1.0 0.1212560648
H  H64  1  0.18400000  0.71450000  0.68870000  1.0 0.1212560648
H  H65  1  0.53050000  0.81600000  0.02203000  1.0 0.1212560648
H  H66  1  0.28550000  0.46950000  0.35537000  1.0 0.1212560648
H  H67  1  0.73410000  0.14850000  0.23980000  1.0 0.1290420137
H  H68  1  0.85150000  0.58560000  0.90647000  1.0 0.1290420137
H  H69  1  0.41440000  0.26590000  0.57313000  1.0 0.1290420137
H  H70  1  0.14850000  0.73410000  0.76020000  1.0 0.1290420137
H  H71  1  0.58560000  0.85150000  0.09353000  1.0 0.1290420137
H  H72  1  0.26590000  0.41440000  0.42687000  1.0 0.1290420137
H  H73  1  0.62410000  0.92070000  0.21110000  1.0 0.1290420137
H  H74  1  0.07930000  0.70340000  0.87777000  1.0 0.1290420137
H  H75  1  0.29660000  0.37590000  0.54443000  1.0 0.1290420137
H  H76  1  0.92070000  0.62410000  0.78890000  1.0 0.1290420137
H  H77  1  0.70340000  0.07930000  0.12223000  1.0 0.1290420137
H  H78  1  0.37590000  0.29660000  0.45557000  1.0 0.1290420137
H  H79  1  0.55300000  0.83330000  0.26940000  1.0 0.1290420137
H  H80  1  0.16670000  0.71970000  0.93607000  1.0 0.1290420137
H  H81  1  0.28030000  0.44700000  0.60273000  1.0 0.1290420137
H  H82  1  0.83330000  0.55300000  0.73060000  1.0 0.1290420137
H  H83  1  0.71970000  0.16670000  0.06393000  1.0 0.1290420137
H  H84  1  0.44700000  0.28030000  0.39727000  1.0 0.1290420137
H  H85  1  0.69240000  0.91210000  0.27340000  1.0 0.1212560648
H  H86  1  0.08790000  0.78030000  0.94007000  1.0 0.1212560648
H  H87  1  0.21970000  0.30760000  0.60673000  1.0 0.1212560648
H  H88  1  0.91210000  0.69240000  0.72660000  1.0 0.1212560648
H  H89  1  0.78030000  0.08790000  0.05993000  1.0 0.1212560648
H  H90  1  0.30760000  0.21970000  0.39327000  1.0 0.1212560648
H  H91  1  0.36160000  0.96910000  0.37660000  1.0 0.2705967853
H  H92  1  0.03090000  0.39250000  0.04327000  1.0 0.2705967853
H  H93  1  0.60750000  0.63840000  0.70993000  1.0 0.2705967853
H  H94  1  0.96910000  0.36160000  0.62340000  1.0 0.2705967853
H  H95  1  0.39250000  0.03090000  0.95673000  1.0 0.2705967853
H  H96  1  0.63840000  0.60750000  0.29007000  1.0 0.2705967853
H  H97  1  0.27110000  0.92080000  0.46750000  1.0 0.1109317014
H  H98  1  0.07920000  0.35030000  0.13417000  1.0 0.1109317014
H  H99  1  0.64970000  0.72890000  0.80083000  1.0 0.1109317014
H  H100  1  0.92080000  0.27110000  0.53250000  1.0 0.1109317014
H  H101  1  0.35030000  0.07920000  0.86583000  1.0 0.1109317014
H  H102  1  0.72890000  0.64970000  0.19917000  1.0 0.1109317014
H  H103  1  0.21450000  0.82020000  0.56840000  1.0 0.1290420137
H  H104  1  0.17980000  0.39430000  0.23507000  1.0 0.1290420137
H  H105  1  0.60570000  0.78550000  0.90173000  1.0 0.1290420137
H  H106  1  0.82020000  0.21450000  0.43160000  1.0 0.1290420137
H  H107  1  0.39430000  0.17980000  0.76493000  1.0 0.1290420137
H  H108  1  0.78550000  0.60570000  0.09827000  1.0 0.1290420137
H  H109  1  0.35780000  0.85370000  0.64580000  1.0 0.1109317014
H  H110  1  0.14630000  0.50410000  0.31247000  1.0 0.1109317014
H  H111  1  0.49590000  0.64220000  0.97913000  1.0 0.1109317014
H  H112  1  0.85370000  0.35780000  0.35420000  1.0 0.1109317014
H  H113  1  0.50410000  0.14630000  0.68753000  1.0 0.1109317014
H  H114  1  0.64220000  0.49590000  0.02087000  1.0 0.1109317014
H  H115  1  0.60640000  0.09560000  0.53310000  1.0 0.1109317014
H  H116  1  0.90440000  0.51080000  0.19977000  1.0 0.1109317014
H  H117  1  0.48920000  0.39360000  0.86643000  1.0 0.1109317014
H  H118  1  0.09560000  0.60640000  0.46690000  1.0 0.1109317014
H  H119  1  0.51080000  0.90440000  0.80023000  1.0 0.1109317014
H  H120  1  0.39360000  0.48920000  0.13357000  1.0 0.1109317014
C  C1  1  0.17420000  0.21580000  0.08456000  1.0 0.0589477189
C  C2  1  0.78420000  0.95840000  0.75123000  1.0 0.0589477189
C  C3  1  0.04160000  0.82580000  0.41789000  1.0 0.0589477189
C  C4  1  0.21580000  0.17420000  0.91544000  1.0 0.0589477189
C  C5  1  0.95840000  0.78420000  0.24877000  1.0 0.0589477189
C  C6  1  0.82580000  0.04160000  0.58211000  1.0 0.0589477189
C  C7  1  0.12130000  0.15580000  0.14296000  1.0 -0.1228078624
C  C8  1  0.84420000  0.96550000  0.80963000  1.0 -0.1228078624
C  C9  1  0.03450000  0.87870000  0.47629000  1.0 -0.1228078624
C  C10  1  0.15580000  0.12130000  0.85704000  1.0 -0.1228078624
C  C11  1  0.96550000  0.84420000  0.19037000  1.0 -0.1228078624
C  C12  1  0.87870000  0.03450000  0.52371000  1.0 -0.1228078624
C  C13  1  0.18760000  0.13580000  0.18971000  1.0 -0.1381071379
C  C14  1  0.86420000  0.05180000  0.85638000  1.0 -0.1381071379
C  C15  1  0.94820000  0.81240000  0.52304000  1.0 -0.1381071379
C  C16  1  0.13580000  0.18760000  0.81029000  1.0 -0.1381071379
C  C17  1  0.05180000  0.86420000  0.14362000  1.0 -0.1381071379
C  C18  1  0.81240000  0.94820000  0.47696000  1.0 -0.1381071379
C  C19  1  0.30510000  0.17180000  0.17588000  1.0 0.1963951121
C  C20  1  0.82820000  0.13330000  0.84255000  1.0 0.1963951121
C  C21  1  0.86670000  0.69490000  0.50921000  1.0 0.1963951121
C  C22  1  0.17180000  0.30510000  0.82412000  1.0 0.1963951121
C  C23  1  0.13330000  0.82820000  0.15745000  1.0 0.1963951121
C  C24  1  0.69490000  0.86670000  0.49079000  1.0 0.1963951121
C  C25  1  0.35260000  0.23040000  0.11586000  1.0 -0.0489018244
C  C26  1  0.76960000  0.12220000  0.78253000  1.0 -0.0489018244
C  C27  1  0.87780000  0.64740000  0.44919000  1.0 -0.0489018244
C  C28  1  0.23040000  0.35260000  0.88414000  1.0 -0.0489018244
C  C29  1  0.12220000  0.76960000  0.21747000  1.0 -0.0489018244
C  C30  1  0.64740000  0.87780000  0.55081000  1.0 -0.0489018244
C  C31  1  0.35400000  0.08640000  0.27297000  1.0 0.4614144693
C  C32  1  0.91360000  0.26760000  0.93964000  1.0 0.4614144693
C  C33  1  0.73240000  0.64600000  0.60630000  1.0 0.4614144693
C  C34  1  0.08640000  0.35400000  0.72703000  1.0 0.4614144693
C  C35  1  0.26760000  0.91360000  0.06036000  1.0 0.4614144693
C  C36  1  0.64600000  0.73240000  0.39370000  1.0 0.4614144693
C  C37  1  0.46120000  0.08560000  0.30499000  1.0 -0.009300613
C  C38  1  0.91440000  0.37560000  0.97166000  1.0 -0.009300613
C  C39  1  0.62440000  0.53880000  0.63832000  1.0 -0.009300613
C  C40  1  0.08560000  0.46120000  0.69501000  1.0 -0.009300613
C  C41  1  0.37560000  0.91440000  0.02834000  1.0 -0.009300613
C  C42  1  0.53880000  0.62440000  0.36168000  1.0 -0.009300613
C  C43  1  0.50120000  0.01340000  0.26375000  1.0 -0.2855290642
C  C44  1  0.98660000  0.48780000  0.93042000  1.0 -0.2855290642
C  C45  1  0.51220000  0.49880000  0.59708000  1.0 -0.2855290642
C  C46  1  0.01340000  0.50120000  0.73625000  1.0 -0.2855290642
C  C47  1  0.48780000  0.98660000  0.06958000  1.0 -0.2855290642
C  C48  1  0.49880000  0.51220000  0.40292000  1.0 -0.2842737307
C  C49  1  0.60840000  0.00750000  0.29212000  1.0 0.1532291303
C  C50  1  0.99250000  0.60090000  0.95879000  1.0 0.1532291303
C  C51  1  0.39910000  0.39160000  0.62545000  1.0 0.1532291303
C  C52  1  0.00750000  0.60840000  0.70788000  1.0 0.1532291303
C  C53  1  0.60090000  0.99250000  0.04121000  1.0 0.1532291303
C  C54  1  0.39160000  0.39910000  0.37455000  1.0 0.1532291303
C  C55  1  0.72110000  0.12490000  0.28570000  1.0 -0.4422725707
C  C56  1  0.87510000  0.59620000  0.95237000  1.0 -0.4422725707
C  C57  1  0.40380000  0.27890000  0.61903000  1.0 -0.4422725707
C  C58  1  0.12490000  0.72110000  0.71430000  1.0 -0.4422725707
C  C59  1  0.59620000  0.87510000  0.04763000  1.0 -0.4422725707
C  C60  1  0.27890000  0.40380000  0.38097000  1.0 -0.4422725707
C  C61  1  0.62060000  0.90940000  0.25840000  1.0 -0.4467577805
C  C62  1  0.09060000  0.71120000  0.92507000  1.0 -0.4467577805
C  C63  1  0.28880000  0.37940000  0.59173000  1.0 -0.4467577805
C  C64  1  0.90940000  0.62060000  0.74160000  1.0 -0.4467577805
C  C65  1  0.71120000  0.09060000  0.07493000  1.0 -0.4467577805
C  C66  1  0.37940000  0.28880000  0.40827000  1.0 -0.4467577805
C  C67  1  0.49300000  0.08840000  0.42575000  1.0 0.4446635971
C  C68  1  0.91160000  0.40460000  0.09242000  1.0 0.4446635971
C  C69  1  0.59540000  0.50700000  0.75908000  1.0 0.4446635971
C  C70  1  0.08840000  0.49300000  0.57425000  1.0 0.4446635971
C  C71  1  0.40460000  0.91160000  0.90758000  1.0 0.4446635971
C  C72  1  0.50700000  0.59540000  0.24092000  1.0 0.4446635971
C  C73  1  0.44630000  0.01900000  0.48919000  1.0 -0.0489018244
C  C74  1  0.98100000  0.42730000  0.15586000  1.0 -0.0489018244
C  C75  1  0.57270000  0.55370000  0.82252000  1.0 -0.0489018244
C  C76  1  0.01900000  0.44630000  0.51081000  1.0 -0.0489018244
C  C77  1  0.42730000  0.98100000  0.84414000  1.0 -0.0489018244
C  C78  1  0.55370000  0.57270000  0.17748000  1.0 -0.0489018244
C  C79  1  0.32790000  0.93580000  0.50017000  1.0 -0.068035396
C  C80  1  0.06420000  0.39210000  0.16684000  1.0 -0.068035396
C  C81  1  0.60790000  0.67210000  0.83350000  1.0 -0.068035396
C  C82  1  0.93580000  0.32790000  0.49983000  1.0 -0.068035396
C  C83  1  0.39210000  0.06420000  0.83316000  1.0 -0.068035396
C  C84  1  0.67210000  0.60790000  0.16650000  1.0 -0.068035396
C  C85  1  0.29430000  0.87500000  0.55987000  1.0 -0.1071854366
C  C86  1  0.12500000  0.41930000  0.22654000  1.0 -0.1071854366
C  C87  1  0.58070000  0.70570000  0.89320000  1.0 -0.1071854366
C  C88  1  0.87500000  0.29430000  0.44013000  1.0 -0.1071854366
C  C89  1  0.41930000  0.12500000  0.77346000  1.0 -0.1071854366
C  C90  1  0.70570000  0.58070000  0.10680000  1.0 -0.1071854366
C  C91  1  0.38030000  0.89670000  0.60625000  1.0 0.075348487
C  C92  1  0.10330000  0.48360000  0.27292000  1.0 0.075348487
C  C93  1  0.51640000  0.61970000  0.93958000  1.0 0.075348487
C  C94  1  0.89670000  0.38030000  0.39375000  1.0 0.075348487
C  C95  1  0.48360000  0.10330000  0.72708000  1.0 0.075348487
C  C96  1  0.61970000  0.51640000  0.06042000  1.0 0.075348487
C  C97  1  0.52680000  0.03800000  0.53949000  1.0 0.0472514609
C  C98  1  0.96200000  0.48880000  0.20616000  1.0 0.0472514609
C  C99  1  0.51120000  0.47320000  0.87282000  1.0 0.0472514609
C  C100  1  0.03800000  0.52680000  0.46051000  1.0 0.0472514609
C  C101  1  0.48880000  0.96200000  0.79384000  1.0 0.0472514609
C  C102  1  0.47320000  0.51120000  0.12718000  1.0 0.0472514609
N  N1  1  0.28960000  0.25560000  0.07201000  1.0 -0.1833056679
N  N2  1  0.74440000  0.03400000  0.73868000  1.0 -0.1833056679
N  N3  1  0.96600000  0.71040000  0.40534000  1.0 -0.1833056679
N  N4  1  0.25560000  0.28960000  0.92799000  1.0 -0.1833056679
N  N5  1  0.03400000  0.74440000  0.26132000  1.0 -0.1833056679
N  N6  1  0.71040000  0.96600000  0.59466000  1.0 -0.1833056679
N  N7  1  0.38320000  0.15630000  0.21772000  1.0 -0.3684284558
N  N8  1  0.84370000  0.22690000  0.88439000  1.0 -0.3684284558
N  N9  1  0.77310000  0.61680000  0.55105000  1.0 -0.3684284558
N  N10  1  0.15630000  0.38320000  0.78228000  1.0 -0.3684284558
N  N11  1  0.22690000  0.84370000  0.11561000  1.0 -0.3684284558
N  N12  1  0.61680000  0.77310000  0.44895000  1.0 -0.3684284558
N  N13  1  0.42720000  0.03570000  0.37176000  1.0 -0.3569149842
N  N14  1  0.96430000  0.39150000  0.03843000  1.0 -0.3569149842
N  N15  1  0.60850000  0.57280000  0.70509000  1.0 -0.3569149842
N  N16  1  0.03570000  0.42720000  0.62824000  1.0 -0.3569149842
N  N17  1  0.39150000  0.96430000  0.96157000  1.0 -0.3569149842
N  N18  1  0.57280000  0.60850000  0.29491000  1.0 -0.3569149842
N  N19  1  0.49580000  0.97760000  0.59685000  1.0 -0.2094323879
N  N20  1  0.02240000  0.51820000  0.26352000  1.0 -0.2094323879
N  N21  1  0.48180000  0.50420000  0.93018000  1.0 -0.2094323879
N  N22  1  0.97760000  0.49580000  0.40315000  1.0 -0.2094323879
N  N23  1  0.51820000  0.02240000  0.73648000  1.0 -0.2094323879
N  N24  1  0.50420000  0.48180000  0.06982000  1.0 -0.2094323879
Cl  Cl1  1  0.50065000  0.25684000  0.97096000  1.0 -0.6768687834
Cl  Cl2  1  0.74316000  0.24381000  0.63763000  1.0 -0.6768687834
Cl  Cl3  1  0.75619000  0.49935000  0.30429000  1.0 -0.6768687834
Cl  Cl4  1  0.25684000  0.50065000  0.02904000  1.0 -0.6768687834
Cl  Cl5  1  0.24381000  0.74316000  0.36237000  1.0 -0.6768687834
Cl  Cl6  1  0.49935000  0.75619000  0.69571000  1.0 -0.6768687834
O  O1  1  0.25380000  0.02790000  0.29422000  1.0 -0.4422725707
O  O2  1  0.97210000  0.22590000  0.96089000  1.0 -0.4422725707
O  O3  1  0.77410000  0.74620000  0.62755000  1.0 -0.4422725707
O  O4  1  0.02790000  0.25380000  0.70578000  1.0 -0.4422725707
O  O5  1  0.22590000  0.97210000  0.03911000  1.0 -0.4422725707
O  O6  1  0.74620000  0.77410000  0.37245000  1.0 -0.4422725707
O  O7  1  0.58510000  0.18540000  0.42465000  1.0 -0.4695702364
O  O8  1  0.81460000  0.39970000  0.09132000  1.0 -0.4695702364
O  O9  1  0.60030000  0.41490000  0.75798000  1.0 -0.4695702364
O  O10  1  0.18540000  0.58510000  0.57535000  1.0 -0.4695702364
O  O11  1  0.39970000  0.81460000  0.90868000  1.0 -0.4695702364
O  O12  1  0.41490000  0.60030000  0.24202000  1.0 -0.4695702364
