# DDEC6 charges by PACMAN v1.1 (https://github.com/mtap-research/PACMAN-charge/)
data_PAPVAF_ASR_pacman
_symmetry_space_group_name_H-M   'P 1'
_cell_length_a   19.86900000
_cell_length_b   19.86900000
_cell_length_c   27.47000000
_cell_angle_alpha   90.00000000
_cell_angle_beta   90.00000000
_cell_angle_gamma   120.00000000
_symmetry_Int_Tables_number   1
_chemical_formula_structural   Pr2H22C27O10
_chemical_formula_sum   'Pr12 H132 C162 O60'
_cell_volume   9391.63727064
_cell_formula_units_Z   6
loop_
 _symmetry_equiv_pos_site_id
 _symmetry_equiv_pos_as_xyz
  1  'x, y, z'
loop_
 _atom_site_type_symbol
 _atom_site_label
 _atom_site_symmetry_multiplicity
 _atom_site_fract_x
 _atom_site_fract_y
 _atom_site_fract_z
 _atom_site_occupancy
 _atom_site_charge
Pr  Pr1  1  0.48494000  0.52753000  0.92978000  1.0 1.9704574669
Pr  Pr2  1  0.47247000  0.95741000  0.92978000  1.0 1.9704574669
Pr  Pr3  1  0.04259000  0.51506000  0.92978000  1.0 1.9704574669
Pr  Pr4  1  0.51506000  0.47247000  0.42978000  1.0 1.9704574669
Pr  Pr5  1  0.52753000  0.04259000  0.42978000  1.0 1.9704574669
Pr  Pr6  1  0.95741000  0.48494000  0.42978000  1.0 1.9704574669
Pr  Pr7  1  0.51506000  0.47247000  0.07022000  1.0 1.9704574669
Pr  Pr8  1  0.52753000  0.04259000  0.07022000  1.0 1.9704574669
Pr  Pr9  1  0.95741000  0.48494000  0.07022000  1.0 1.9704574669
Pr  Pr10  1  0.48494000  0.52753000  0.57022000  1.0 1.9704574669
Pr  Pr11  1  0.47247000  0.95741000  0.57022000  1.0 1.9704574669
Pr  Pr12  1  0.04259000  0.51506000  0.57022000  1.0 1.9704574669
H  H1  1  0.23680000  0.48610000  0.98960000  1.0 0.1179119869
H  H2  1  0.51390000  0.75070000  0.98960000  1.0 0.1179119869
H  H3  1  0.24930000  0.76320000  0.98960000  1.0 0.1179119869
H  H4  1  0.76320000  0.51390000  0.48960000  1.0 0.1179119869
H  H5  1  0.48610000  0.24930000  0.48960000  1.0 0.1179119869
H  H6  1  0.75070000  0.23680000  0.48960000  1.0 0.1179119869
H  H7  1  0.76320000  0.51390000  0.01040000  1.0 0.1179119869
H  H8  1  0.48610000  0.24930000  0.01040000  1.0 0.1179119869
H  H9  1  0.75070000  0.23680000  0.01040000  1.0 0.1179119869
H  H10  1  0.23680000  0.48610000  0.51040000  1.0 0.1179119869
H  H11  1  0.51390000  0.75070000  0.51040000  1.0 0.1179119869
H  H12  1  0.24930000  0.76320000  0.51040000  1.0 0.1179119869
H  H13  1  0.31000000  0.38640000  0.08540000  1.0 0.1084034666
H  H14  1  0.61360000  0.92360000  0.08540000  1.0 0.1084034666
H  H15  1  0.07640000  0.69000000  0.08540000  1.0 0.1084034666
H  H16  1  0.69000000  0.61360000  0.58540000  1.0 0.1084034666
H  H17  1  0.38640000  0.07640000  0.58540000  1.0 0.1084034666
H  H18  1  0.92360000  0.31000000  0.58540000  1.0 0.1084034666
H  H19  1  0.69000000  0.61360000  0.91460000  1.0 0.1084034666
H  H20  1  0.38640000  0.07640000  0.91460000  1.0 0.1084034666
H  H21  1  0.92360000  0.31000000  0.91460000  1.0 0.1084034666
H  H22  1  0.31000000  0.38640000  0.41460000  1.0 0.1084034666
H  H23  1  0.61360000  0.92360000  0.41460000  1.0 0.1084034666
H  H24  1  0.07640000  0.69000000  0.41460000  1.0 0.1084034666
H  H25  1  0.11000000  0.38380000  0.10670000  1.0 0.1367681435
H  H26  1  0.61620000  0.72620000  0.10670000  1.0 0.1367681435
H  H27  1  0.27380000  0.89000000  0.10670000  1.0 0.1367681435
H  H28  1  0.89000000  0.61620000  0.60670000  1.0 0.1367681435
H  H29  1  0.38380000  0.27380000  0.60670000  1.0 0.1367681435
H  H30  1  0.72620000  0.11000000  0.60670000  1.0 0.1367681435
H  H31  1  0.89000000  0.61620000  0.89330000  1.0 0.1367681435
H  H32  1  0.38380000  0.27380000  0.89330000  1.0 0.1367681435
H  H33  1  0.72620000  0.11000000  0.89330000  1.0 0.1367681435
H  H34  1  0.11000000  0.38380000  0.39330000  1.0 0.1367681435
H  H35  1  0.61620000  0.72620000  0.39330000  1.0 0.1367681435
H  H36  1  0.27380000  0.89000000  0.39330000  1.0 0.1367681435
H  H37  1  0.28760000  0.34640000  0.16580000  1.0 0.0923231451
H  H38  1  0.65360000  0.94120000  0.16580000  1.0 0.0958555937
H  H39  1  0.05880000  0.71240000  0.16580000  1.0 0.0958555937
H  H40  1  0.71240000  0.65360000  0.66580000  1.0 0.0923231451
H  H41  1  0.34640000  0.05880000  0.66580000  1.0 0.0923231451
H  H42  1  0.94120000  0.28760000  0.66580000  1.0 0.0923231451
H  H43  1  0.71240000  0.65360000  0.83420000  1.0 0.0923231451
H  H44  1  0.34640000  0.05880000  0.83420000  1.0 0.0923231451
H  H45  1  0.94120000  0.28760000  0.83420000  1.0 0.0923231451
H  H46  1  0.28760000  0.34640000  0.33420000  1.0 0.0923231451
H  H47  1  0.65360000  0.94120000  0.33420000  1.0 0.0958555937
H  H48  1  0.05880000  0.71240000  0.33420000  1.0 0.0958555937
H  H49  1  0.23940000  0.27070000  0.13440000  1.0 0.0567571421
H  H50  1  0.72930000  0.96870000  0.13440000  1.0 0.0567571421
H  H51  1  0.03130000  0.76060000  0.13440000  1.0 0.0567571421
H  H52  1  0.76060000  0.72930000  0.63440000  1.0 0.0567571421
H  H53  1  0.27070000  0.03130000  0.63440000  1.0 0.0567571421
H  H54  1  0.96870000  0.23940000  0.63440000  1.0 0.0567571421
H  H55  1  0.76060000  0.72930000  0.86560000  1.0 0.0567571421
H  H56  1  0.27070000  0.03130000  0.86560000  1.0 0.0567571421
H  H57  1  0.96870000  0.23940000  0.86560000  1.0 0.0567571421
H  H58  1  0.23940000  0.27070000  0.36560000  1.0 0.0567571421
H  H59  1  0.72930000  0.96870000  0.36560000  1.0 0.0567571421
H  H60  1  0.03130000  0.76060000  0.36560000  1.0 0.0567571421
H  H61  1  0.15280000  0.18600000  0.13240000  1.0 0.0818383171
H  H62  1  0.81400000  0.96680000  0.13240000  1.0 0.0818383171
H  H63  1  0.03320000  0.84720000  0.13240000  1.0 0.0818383171
H  H64  1  0.84720000  0.81400000  0.63240000  1.0 0.0818383171
H  H65  1  0.18600000  0.03320000  0.63240000  1.0 0.0818383171
H  H66  1  0.96680000  0.15280000  0.63240000  1.0 0.0818383171
H  H67  1  0.84720000  0.81400000  0.86760000  1.0 0.0818383171
H  H68  1  0.18600000  0.03320000  0.86760000  1.0 0.0818383171
H  H69  1  0.96680000  0.15280000  0.86760000  1.0 0.0818383171
H  H70  1  0.15280000  0.18600000  0.36760000  1.0 0.0818383171
H  H71  1  0.81400000  0.96680000  0.36760000  1.0 0.0818383171
H  H72  1  0.03320000  0.84720000  0.36760000  1.0 0.0818383171
H  H73  1  0.07310000  0.11910000  0.15190000  1.0 0.1084034666
H  H74  1  0.88090000  0.95400000  0.15190000  1.0 0.1084034666
H  H75  1  0.04600000  0.92690000  0.15190000  1.0 0.1084034666
H  H76  1  0.92690000  0.88090000  0.65190000  1.0 0.1084034666
H  H77  1  0.11910000  0.04600000  0.65190000  1.0 0.1084034666
H  H78  1  0.95400000  0.07310000  0.65190000  1.0 0.1084034666
H  H79  1  0.92690000  0.88090000  0.84810000  1.0 0.1084034666
H  H80  1  0.11910000  0.04600000  0.84810000  1.0 0.1084034666
H  H81  1  0.95400000  0.07310000  0.84810000  1.0 0.1084034666
H  H82  1  0.07310000  0.11910000  0.34810000  1.0 0.1084034666
H  H83  1  0.88090000  0.95400000  0.34810000  1.0 0.1084034666
H  H84  1  0.04600000  0.92690000  0.34810000  1.0 0.1084034666
H  H85  1  0.14640000  0.10880000  0.15190000  1.0 0.1084034666
H  H86  1  0.89120000  0.03760000  0.15190000  1.0 0.1084034666
H  H87  1  0.96240000  0.85360000  0.15190000  1.0 0.1084034666
H  H88  1  0.85360000  0.89120000  0.65190000  1.0 0.1084034666
H  H89  1  0.10880000  0.96240000  0.65190000  1.0 0.1084034666
H  H90  1  0.03760000  0.14640000  0.65190000  1.0 0.1084034666
H  H91  1  0.85360000  0.89120000  0.84810000  1.0 0.1084034666
H  H92  1  0.10880000  0.96240000  0.84810000  1.0 0.1084034666
H  H93  1  0.03760000  0.14640000  0.84810000  1.0 0.1084034666
H  H94  1  0.14640000  0.10880000  0.34810000  1.0 0.1084034666
H  H95  1  0.89120000  0.03760000  0.34810000  1.0 0.1084034666
H  H96  1  0.96240000  0.85360000  0.34810000  1.0 0.1084034666
H  H97  1  0.42130000  0.11260000  0.78250000  1.0 -0.0179817063
H  H98  1  0.88740000  0.30870000  0.78250000  1.0 -0.0125820084
H  H99  1  0.69130000  0.57870000  0.78250000  1.0 -0.0179817063
H  H100  1  0.57870000  0.88740000  0.28250000  1.0 -0.0179817063
H  H101  1  0.11260000  0.69130000  0.28250000  1.0 -0.0179817063
H  H102  1  0.30870000  0.42130000  0.28250000  1.0 -0.0179817063
H  H103  1  0.57870000  0.88740000  0.21750000  1.0 -0.0179817063
H  H104  1  0.11260000  0.69130000  0.21750000  1.0 -0.0179817063
H  H105  1  0.30870000  0.42130000  0.21750000  1.0 -0.0179817063
H  H106  1  0.42130000  0.11260000  0.71750000  1.0 -0.0179817063
H  H107  1  0.88740000  0.30870000  0.71750000  1.0 -0.0125820084
H  H108  1  0.69130000  0.57870000  0.71750000  1.0 -0.0179817063
H  H109  1  0.43110000  0.14330000  0.72890000  1.0 -0.0125820084
H  H110  1  0.85670000  0.28780000  0.72890000  1.0 -0.0125820084
H  H111  1  0.71220000  0.56890000  0.72890000  1.0 -0.0125820084
H  H112  1  0.56890000  0.85670000  0.22890000  1.0 -0.0125820084
H  H113  1  0.14330000  0.71220000  0.22890000  1.0 -0.0179817063
H  H114  1  0.28780000  0.43110000  0.22890000  1.0 -0.0125820084
H  H115  1  0.56890000  0.85670000  0.27110000  1.0 -0.0125820084
H  H116  1  0.14330000  0.71220000  0.27110000  1.0 -0.0179817063
H  H117  1  0.28780000  0.43110000  0.27110000  1.0 -0.0125820084
H  H118  1  0.43110000  0.14330000  0.77110000  1.0 -0.0125820084
H  H119  1  0.85670000  0.28780000  0.77110000  1.0 -0.0125820084
H  H120  1  0.71220000  0.56890000  0.77110000  1.0 -0.0125820084
H  H121  1  0.40320000  0.05550000  0.73870000  1.0 -0.0511344658
H  H122  1  0.94450000  0.34770000  0.73870000  1.0 -0.0511344658
H  H123  1  0.65230000  0.59680000  0.73870000  1.0 -0.0511344658
H  H124  1  0.59680000  0.94450000  0.23870000  1.0 -0.0511344658
H  H125  1  0.05550000  0.65230000  0.23870000  1.0 -0.0574385579
H  H126  1  0.34770000  0.40320000  0.23870000  1.0 -0.0574385579
H  H127  1  0.59680000  0.94450000  0.26130000  1.0 -0.0511344658
H  H128  1  0.05550000  0.65230000  0.26130000  1.0 -0.0574385579
H  H129  1  0.34770000  0.40320000  0.26130000  1.0 -0.0574385579
H  H130  1  0.40320000  0.05550000  0.76130000  1.0 -0.0511344658
H  H131  1  0.94450000  0.34770000  0.76130000  1.0 -0.0511344658
H  H132  1  0.65230000  0.59680000  0.76130000  1.0 -0.0511344658
C  C1  1  0.10750000  0.46160000  0.03050000  1.0 0.6219912626
C  C2  1  0.53840000  0.64590000  0.03050000  1.0 0.6267118379
C  C3  1  0.35410000  0.89250000  0.03050000  1.0 0.6219912626
C  C4  1  0.89250000  0.53840000  0.53050000  1.0 0.6219912626
C  C5  1  0.46160000  0.35410000  0.53050000  1.0 0.6267118379
C  C6  1  0.64590000  0.10750000  0.53050000  1.0 0.6267118379
C  C7  1  0.89250000  0.53840000  0.96950000  1.0 0.6219912626
C  C8  1  0.46160000  0.35410000  0.96950000  1.0 0.6267118379
C  C9  1  0.64590000  0.10750000  0.96950000  1.0 0.6267118379
C  C10  1  0.10750000  0.46160000  0.46950000  1.0 0.6219912626
C  C11  1  0.53840000  0.64590000  0.46950000  1.0 0.6267118379
C  C12  1  0.35410000  0.89250000  0.46950000  1.0 0.6219912626
C  C13  1  0.16390000  0.43760000  0.04540000  1.0 -0.0574385579
C  C14  1  0.56240000  0.72630000  0.04540000  1.0 -0.0574385579
C  C15  1  0.27370000  0.83610000  0.04540000  1.0 -0.0574385579
C  C16  1  0.83610000  0.56240000  0.54540000  1.0 -0.0574385579
C  C17  1  0.43760000  0.27370000  0.54540000  1.0 -0.0574385579
C  C18  1  0.72630000  0.16390000  0.54540000  1.0 -0.0574385579
C  C19  1  0.83610000  0.56240000  0.95460000  1.0 -0.0574385579
C  C20  1  0.43760000  0.27370000  0.95460000  1.0 -0.0574385579
C  C21  1  0.72630000  0.16390000  0.95460000  1.0 -0.0574385579
C  C22  1  0.16390000  0.43760000  0.45460000  1.0 -0.0574385579
C  C23  1  0.56240000  0.72630000  0.45460000  1.0 -0.0574385579
C  C24  1  0.27370000  0.83610000  0.45460000  1.0 -0.0574385579
C  C25  1  0.22920000  0.45820000  0.01830000  1.0 -0.1153332517
C  C26  1  0.54180000  0.77100000  0.01830000  1.0 -0.1138629876
C  C27  1  0.22900000  0.77080000  0.01830000  1.0 -0.1153332517
C  C28  1  0.77080000  0.54180000  0.51830000  1.0 -0.1138629876
C  C29  1  0.45820000  0.22900000  0.51830000  1.0 -0.1138629876
C  C30  1  0.77100000  0.22920000  0.51830000  1.0 -0.1138629876
C  C31  1  0.77080000  0.54180000  0.98170000  1.0 -0.1138629876
C  C32  1  0.45820000  0.22900000  0.98170000  1.0 -0.1138629876
C  C33  1  0.77100000  0.22920000  0.98170000  1.0 -0.1138629876
C  C34  1  0.22920000  0.45820000  0.48170000  1.0 -0.1153332517
C  C35  1  0.54180000  0.77100000  0.48170000  1.0 -0.1138629876
C  C36  1  0.22900000  0.77080000  0.48170000  1.0 -0.1153332517
C  C37  1  0.28320000  0.43930000  0.03200000  1.0 -0.0574385579
C  C38  1  0.56070000  0.84390000  0.03200000  1.0 -0.0574385579
C  C39  1  0.15610000  0.71680000  0.03200000  1.0 -0.0574385579
C  C40  1  0.71680000  0.56070000  0.53200000  1.0 -0.0574385579
C  C41  1  0.43930000  0.15610000  0.53200000  1.0 -0.0574385579
C  C42  1  0.84390000  0.28320000  0.53200000  1.0 -0.0574385579
C  C43  1  0.71680000  0.56070000  0.96800000  1.0 -0.0574385579
C  C44  1  0.43930000  0.15610000  0.96800000  1.0 -0.0574385579
C  C45  1  0.84390000  0.28320000  0.96800000  1.0 -0.0574385579
C  C46  1  0.28320000  0.43930000  0.46800000  1.0 -0.0574385579
C  C47  1  0.56070000  0.84390000  0.46800000  1.0 -0.0574385579
C  C48  1  0.15610000  0.71680000  0.46800000  1.0 -0.0574385579
C  C49  1  0.35460000  0.46330000  0.00530000  1.0 0.6219912626
C  C50  1  0.53670000  0.89130000  0.00530000  1.0 0.6219912626
C  C51  1  0.10870000  0.64540000  0.00530000  1.0 0.6219912626
C  C52  1  0.64540000  0.53670000  0.50530000  1.0 0.6219912626
C  C53  1  0.46330000  0.10870000  0.50530000  1.0 0.6219912626
C  C54  1  0.89130000  0.35460000  0.50530000  1.0 0.6219912626
C  C55  1  0.64540000  0.53670000  0.99470000  1.0 0.6219912626
C  C56  1  0.46330000  0.10870000  0.99470000  1.0 0.6219912626
C  C57  1  0.89130000  0.35460000  0.99470000  1.0 0.6219912626
C  C58  1  0.35460000  0.46330000  0.49470000  1.0 0.6219912626
C  C59  1  0.53670000  0.89130000  0.49470000  1.0 0.6219912626
C  C60  1  0.10870000  0.64540000  0.49470000  1.0 0.6219912626
C  C61  1  0.27290000  0.39840000  0.07480000  1.0 -0.1907504152
C  C62  1  0.60160000  0.87450000  0.07480000  1.0 -0.1907504152
C  C63  1  0.12550000  0.72710000  0.07480000  1.0 -0.1907504152
C  C64  1  0.72710000  0.60160000  0.57480000  1.0 -0.1907504152
C  C65  1  0.39840000  0.12550000  0.57480000  1.0 -0.1907504152
C  C66  1  0.87450000  0.27290000  0.57480000  1.0 -0.1907504152
C  C67  1  0.72710000  0.60160000  0.92520000  1.0 -0.1907504152
C  C68  1  0.39840000  0.12550000  0.92520000  1.0 -0.1907504152
C  C69  1  0.87450000  0.27290000  0.92520000  1.0 -0.1907504152
C  C70  1  0.27290000  0.39840000  0.42520000  1.0 -0.1907504152
C  C71  1  0.60160000  0.87450000  0.42520000  1.0 -0.1907504152
C  C72  1  0.12550000  0.72710000  0.42520000  1.0 -0.1907504152
C  C73  1  0.20710000  0.37640000  0.10060000  1.0 0.2190012906
C  C74  1  0.62360000  0.83070000  0.10060000  1.0 0.2190012906
C  C75  1  0.16930000  0.79290000  0.10060000  1.0 0.2190012906
C  C76  1  0.79290000  0.62360000  0.60060000  1.0 0.2190012906
C  C77  1  0.37640000  0.16930000  0.60060000  1.0 0.2190012906
C  C78  1  0.83070000  0.20710000  0.60060000  1.0 0.2190012906
C  C79  1  0.79290000  0.62360000  0.89940000  1.0 0.2190012906
C  C80  1  0.37640000  0.16930000  0.89940000  1.0 0.2190012906
C  C81  1  0.83070000  0.20710000  0.89940000  1.0 0.2190012906
C  C82  1  0.20710000  0.37640000  0.39940000  1.0 0.2190012906
C  C83  1  0.62360000  0.83070000  0.39940000  1.0 0.2190012906
C  C84  1  0.16930000  0.79290000  0.39940000  1.0 0.2190012906
C  C85  1  0.15320000  0.39720000  0.08730000  1.0 -0.1587481922
C  C86  1  0.60280000  0.75600000  0.08730000  1.0 -0.1587481922
C  C87  1  0.24400000  0.84680000  0.08730000  1.0 -0.1587481922
C  C88  1  0.84680000  0.60280000  0.58730000  1.0 -0.1587481922
C  C89  1  0.39720000  0.24400000  0.58730000  1.0 -0.1587481922
C  C90  1  0.75600000  0.15320000  0.58730000  1.0 -0.1587481922
C  C91  1  0.84680000  0.60280000  0.91270000  1.0 -0.1587481922
C  C92  1  0.39720000  0.24400000  0.91270000  1.0 -0.1587481922
C  C93  1  0.75600000  0.15320000  0.91270000  1.0 -0.1587481922
C  C94  1  0.15320000  0.39720000  0.41270000  1.0 -0.1587481922
C  C95  1  0.60280000  0.75600000  0.41270000  1.0 -0.1587481922
C  C96  1  0.24400000  0.84680000  0.41270000  1.0 -0.1587481922
C  C97  1  0.23590000  0.30340000  0.15930000  1.0 -0.0728738033
C  C98  1  0.69660000  0.93250000  0.15930000  1.0 -0.0728738033
C  C99  1  0.06750000  0.76410000  0.15930000  1.0 -0.0728738033
C  C100  1  0.76410000  0.69660000  0.65930000  1.0 -0.0728738033
C  C101  1  0.30340000  0.06750000  0.65930000  1.0 -0.0728738033
C  C102  1  0.93250000  0.23590000  0.65930000  1.0 -0.0758732111
C  C103  1  0.76410000  0.69660000  0.84070000  1.0 -0.0728738033
C  C104  1  0.30340000  0.06750000  0.84070000  1.0 -0.0728738033
C  C105  1  0.93250000  0.23590000  0.84070000  1.0 -0.0758732111
C  C106  1  0.23590000  0.30340000  0.34070000  1.0 -0.0728738033
C  C107  1  0.69660000  0.93250000  0.34070000  1.0 -0.0728738033
C  C108  1  0.06750000  0.76410000  0.34070000  1.0 -0.0728738033
C  C109  1  0.14880000  0.17910000  0.20590000  1.0 0.0437819771
C  C110  1  0.82090000  0.96970000  0.20590000  1.0 0.0437819771
C  C111  1  0.03030000  0.85120000  0.20590000  1.0 0.0437819771
C  C112  1  0.85120000  0.82090000  0.70590000  1.0 0.0437819771
C  C113  1  0.17910000  0.03030000  0.70590000  1.0 0.0437819771
C  C114  1  0.96970000  0.14880000  0.70590000  1.0 0.0437819771
C  C115  1  0.85120000  0.82090000  0.79410000  1.0 0.0437819771
C  C116  1  0.17910000  0.03030000  0.79410000  1.0 0.0437819771
C  C117  1  0.96970000  0.14880000  0.79410000  1.0 0.0437819771
C  C118  1  0.14880000  0.17910000  0.29410000  1.0 0.0437819771
C  C119  1  0.82090000  0.96970000  0.29410000  1.0 0.0437819771
C  C120  1  0.03030000  0.85120000  0.29410000  1.0 0.0437819771
C  C121  1  0.12720000  0.14470000  0.25000000  1.0 -0.2008218939
C  C122  1  0.85530000  0.98250000  0.25000000  1.0 -0.2008218939
C  C123  1  0.01750000  0.87280000  0.25000000  1.0 -0.2008218939
C  C124  1  0.87280000  0.85530000  0.75000000  1.0 -0.2008218939
C  C125  1  0.14470000  0.01750000  0.75000000  1.0 -0.2008218939
C  C126  1  0.98250000  0.12720000  0.75000000  1.0 -0.2008218939
C  C127  1  0.12850000  0.14530000  0.15610000  1.0 -0.4179628964
C  C128  1  0.85470000  0.98320000  0.15610000  1.0 -0.4179628964
C  C129  1  0.01680000  0.87150000  0.15610000  1.0 -0.4179628964
C  C130  1  0.87150000  0.85470000  0.65610000  1.0 -0.4179628964
C  C131  1  0.14530000  0.01680000  0.65610000  1.0 -0.4179628964
C  C132  1  0.98320000  0.12850000  0.65610000  1.0 -0.4179628964
C  C133  1  0.87150000  0.85470000  0.84390000  1.0 -0.4179628964
C  C134  1  0.14530000  0.01680000  0.84390000  1.0 -0.4179628964
C  C135  1  0.98320000  0.12850000  0.84390000  1.0 -0.4179628964
C  C136  1  0.12850000  0.14530000  0.34390000  1.0 -0.4179628964
C  C137  1  0.85470000  0.98320000  0.34390000  1.0 -0.4179628964
C  C138  1  0.01680000  0.87150000  0.34390000  1.0 -0.4179628964
C  C139  1  0.19890000  0.25590000  0.20630000  1.0 -0.0380309051
C  C140  1  0.74410000  0.94300000  0.20630000  1.0 -0.0380309051
C  C141  1  0.05700000  0.80110000  0.20630000  1.0 -0.0380309051
C  C142  1  0.80110000  0.74410000  0.70630000  1.0 -0.0380309051
C  C143  1  0.25590000  0.05700000  0.70630000  1.0 -0.0380309051
C  C144  1  0.94300000  0.19890000  0.70630000  1.0 -0.0380309051
C  C145  1  0.80110000  0.74410000  0.79370000  1.0 -0.0380309051
C  C146  1  0.25590000  0.05700000  0.79370000  1.0 -0.0380309051
C  C147  1  0.94300000  0.19890000  0.79370000  1.0 -0.0380309051
C  C148  1  0.19890000  0.25590000  0.29370000  1.0 -0.0380309051
C  C149  1  0.74410000  0.94300000  0.29370000  1.0 -0.0380309051
C  C150  1  0.05700000  0.80110000  0.29370000  1.0 -0.0380309051
C  C151  1  0.22390000  0.30250000  0.25000000  1.0 0.0923231451
C  C152  1  0.69750000  0.92140000  0.25000000  1.0 0.0923231451
C  C153  1  0.07860000  0.77610000  0.25000000  1.0 0.0923231451
C  C154  1  0.77610000  0.69750000  0.75000000  1.0 0.0923231451
C  C155  1  0.30250000  0.07860000  0.75000000  1.0 0.0923231451
C  C156  1  0.92140000  0.22390000  0.75000000  1.0 0.0923231451
C  C157  1  0.30090000  0.40090000  0.25000000  1.0 -0.1510470609
C  C158  1  0.59910000  0.90000000  0.25000000  1.0 -0.1510470609
C  C159  1  0.10000000  0.69910000  0.25000000  1.0 -0.1510470609
C  C160  1  0.69910000  0.59910000  0.75000000  1.0 -0.1510470609
C  C161  1  0.40090000  0.10000000  0.75000000  1.0 -0.1510470609
C  C162  1  0.90000000  0.30090000  0.75000000  1.0 -0.1510470609
O  O1  1  0.35570000  0.48730000  0.96290000  1.0 -0.6383583869
O  O2  1  0.51270000  0.86840000  0.96290000  1.0 -0.6383583869
O  O3  1  0.13160000  0.64430000  0.96290000  1.0 -0.6383583869
O  O4  1  0.64430000  0.51270000  0.46290000  1.0 -0.6383583869
O  O5  1  0.48730000  0.13160000  0.46290000  1.0 -0.6383583869
O  O6  1  0.86840000  0.35570000  0.46290000  1.0 -0.6383583869
O  O7  1  0.64430000  0.51270000  0.03710000  1.0 -0.6383583869
O  O8  1  0.48730000  0.13160000  0.03710000  1.0 -0.6383583869
O  O9  1  0.86840000  0.35570000  0.03710000  1.0 -0.6383583869
O  O10  1  0.35570000  0.48730000  0.53710000  1.0 -0.6383583869
O  O11  1  0.51270000  0.86840000  0.53710000  1.0 -0.6383583869
O  O12  1  0.13160000  0.64430000  0.53710000  1.0 -0.6383583869
O  O13  1  0.41130000  0.46080000  0.02230000  1.0 -0.7404874937
O  O14  1  0.53920000  0.95050000  0.02230000  1.0 -0.7404874937
O  O15  1  0.04950000  0.58870000  0.02230000  1.0 -0.7404874937
O  O16  1  0.58870000  0.53920000  0.52230000  1.0 -0.7404874937
O  O17  1  0.46080000  0.04950000  0.52230000  1.0 -0.7404874937
O  O18  1  0.95050000  0.41130000  0.52230000  1.0 -0.7404874937
O  O19  1  0.58870000  0.53920000  0.97770000  1.0 -0.7404874937
O  O20  1  0.46080000  0.04950000  0.97770000  1.0 -0.7404874937
O  O21  1  0.95050000  0.41130000  0.97770000  1.0 -0.7404874937
O  O22  1  0.41130000  0.46080000  0.47770000  1.0 -0.7404874937
O  O23  1  0.53920000  0.95050000  0.47770000  1.0 -0.7404874937
O  O24  1  0.04950000  0.58870000  0.47770000  1.0 -0.7404874937
O  O25  1  0.05460000  0.45030000  0.05950000  1.0 -0.6992466525
O  O26  1  0.54970000  0.60430000  0.05950000  1.0 -0.6992466525
O  O27  1  0.39570000  0.94540000  0.05950000  1.0 -0.6992466525
O  O28  1  0.94540000  0.54970000  0.55950000  1.0 -0.6992466525
O  O29  1  0.45030000  0.39570000  0.55950000  1.0 -0.6992466525
O  O30  1  0.60430000  0.05460000  0.55950000  1.0 -0.6992466525
O  O31  1  0.94540000  0.54970000  0.94050000  1.0 -0.6992466525
O  O32  1  0.45030000  0.39570000  0.94050000  1.0 -0.6992466525
O  O33  1  0.60430000  0.05460000  0.94050000  1.0 -0.6992466525
O  O34  1  0.05460000  0.45030000  0.44050000  1.0 -0.6992466525
O  O35  1  0.54970000  0.60430000  0.44050000  1.0 -0.6992466525
O  O36  1  0.39570000  0.94540000  0.44050000  1.0 -0.6992466525
O  O37  1  0.11650000  0.49060000  0.99100000  1.0 -0.6266380732
O  O38  1  0.50940000  0.62590000  0.99100000  1.0 -0.6266380732
O  O39  1  0.37410000  0.88350000  0.99100000  1.0 -0.6245951728
O  O40  1  0.88350000  0.50940000  0.49100000  1.0 -0.6266380732
O  O41  1  0.49060000  0.37410000  0.49100000  1.0 -0.6266380732
O  O42  1  0.62590000  0.11650000  0.49100000  1.0 -0.6266380732
O  O43  1  0.88350000  0.50940000  0.00900000  1.0 -0.6266380732
O  O44  1  0.49060000  0.37410000  0.00900000  1.0 -0.6266380732
O  O45  1  0.62590000  0.11650000  0.00900000  1.0 -0.6266380732
O  O46  1  0.11650000  0.49060000  0.50900000  1.0 -0.6266380732
O  O47  1  0.50940000  0.62590000  0.50900000  1.0 -0.6266380732
O  O48  1  0.37410000  0.88350000  0.50900000  1.0 -0.6266380732
O  O49  1  0.18500000  0.33140000  0.14410000  1.0 -0.2657216937
O  O50  1  0.66860000  0.85360000  0.14410000  1.0 -0.2657216937
O  O51  1  0.14640000  0.81500000  0.14410000  1.0 -0.2657216937
O  O52  1  0.81500000  0.66860000  0.64410000  1.0 -0.2645797507
O  O53  1  0.33140000  0.14640000  0.64410000  1.0 -0.2657216937
O  O54  1  0.85360000  0.18500000  0.64410000  1.0 -0.2657216937
O  O55  1  0.81500000  0.66860000  0.85590000  1.0 -0.2645797507
O  O56  1  0.33140000  0.14640000  0.85590000  1.0 -0.2657216937
O  O57  1  0.85360000  0.18500000  0.85590000  1.0 -0.2645797507
O  O58  1  0.18500000  0.33140000  0.35590000  1.0 -0.2657216937
O  O59  1  0.66860000  0.85360000  0.35590000  1.0 -0.2645797507
O  O60  1  0.14640000  0.81500000  0.35590000  1.0 -0.2657216937
