# DDEC6 charges by PACMAN v1.1 (https://github.com/mtap-research/PACMAN-charge/)
data_PAQMAY_ASR_pacman
_symmetry_space_group_name_H-M   'P 1'
_cell_length_a   30.01780000
_cell_length_b   30.01780000
_cell_length_c   30.01780000
_cell_angle_alpha   106.40000000
_cell_angle_beta   106.40000000
_cell_angle_gamma   115.80600000
_symmetry_Int_Tables_number   1
_chemical_formula_structural   Tb3H27C39N7O22
_chemical_formula_sum   'Tb24 H216 C312 N56 O176'
_cell_volume   20628.54376885
_cell_formula_units_Z   8
loop_
 _symmetry_equiv_pos_site_id
 _symmetry_equiv_pos_as_xyz
  1  'x, y, z'
loop_
 _atom_site_type_symbol
 _atom_site_label
 _atom_site_symmetry_multiplicity
 _atom_site_fract_x
 _atom_site_fract_y
 _atom_site_fract_z
 _atom_site_occupancy
 _atom_site_charge
Tb  Tb1  1  0.51174000  0.43732000  0.50000000  1.0 2.1104263089
Tb  Tb2  1  0.93732000  0.01174000  0.50000000  1.0 2.1104263089
Tb  Tb3  1  0.01174000  0.51174000  0.07442000  1.0 2.1104263089
Tb  Tb4  1  0.43732000  0.93732000  0.92558000  1.0 2.1104263089
Tb  Tb5  1  0.98826000  0.48826000  0.92558000  1.0 2.1104263089
Tb  Tb6  1  0.56268000  0.06268000  0.07442000  1.0 2.1104263089
Tb  Tb7  1  0.48826000  0.56268000  0.50000000  1.0 2.1104263089
Tb  Tb8  1  0.06268000  0.98826000  0.50000000  1.0 2.1104263089
Tb  Tb9  1  0.20283000  0.12728000  0.33011000  1.0 2.0203274212
Tb  Tb10  1  0.79717000  0.87272000  0.66989000  1.0 2.0203274212
Tb  Tb11  1  0.87272000  0.20283000  0.07555000  1.0 2.0203274212
Tb  Tb12  1  0.12728000  0.79717000  0.92445000  1.0 2.0203274212
Tb  Tb13  1  0.29717000  0.62728000  0.92445000  1.0 2.0203274212
Tb  Tb14  1  0.70283000  0.37272000  0.07555000  1.0 2.0203274212
Tb  Tb15  1  0.62728000  0.70283000  0.33011000  1.0 2.0203274212
Tb  Tb16  1  0.37272000  0.29717000  0.66989000  1.0 2.0203274212
Tb  Tb17  1  0.08058000  0.12699000  0.20757000  1.0 1.8213569692
Tb  Tb18  1  0.91942000  0.87301000  0.79243000  1.0 1.8213569692
Tb  Tb19  1  0.87301000  0.08058000  0.95359000  1.0 1.8213569692
Tb  Tb20  1  0.12699000  0.91942000  0.04641000  1.0 1.8213569692
Tb  Tb21  1  0.41942000  0.62699000  0.04641000  1.0 1.8213569692
Tb  Tb22  1  0.58058000  0.37301000  0.95359000  1.0 1.8213569692
Tb  Tb23  1  0.62699000  0.58058000  0.20757000  1.0 1.8213569692
Tb  Tb24  1  0.37301000  0.41942000  0.79243000  1.0 1.8213569692
H  H1  1  0.08940000  0.21000000  0.29940000  1.0 0.0882138175
H  H2  1  0.91060000  0.79000000  0.70060000  1.0 0.0882138175
H  H3  1  0.79000000  0.08940000  0.87940000  1.0 0.0882138175
H  H4  1  0.21000000  0.91060000  0.12060000  1.0 0.0882138175
H  H5  1  0.41060000  0.71000000  0.12060000  1.0 0.0882138175
H  H6  1  0.58940000  0.29000000  0.87940000  1.0 0.0882138175
H  H7  1  0.71000000  0.58940000  0.29940000  1.0 0.0882138175
H  H8  1  0.29000000  0.41060000  0.70060000  1.0 0.0882138175
H  H9  1  0.48920000  0.13480000  0.19600000  1.0 0.2751301549
H  H10  1  0.93880000  0.29320000  0.80400000  1.0 0.2751301549
H  H11  1  0.29320000  0.48920000  0.35440000  1.0 0.2751301549
H  H12  1  0.13480000  0.93880000  0.64560000  1.0 0.2695506465
H  H13  1  0.01080000  0.20680000  0.64560000  1.0 0.2751301549
H  H14  1  0.56120000  0.36520000  0.35440000  1.0 0.2751301549
H  H15  1  0.20680000  0.56120000  0.19600000  1.0 0.2751301549
H  H16  1  0.36520000  0.01080000  0.80400000  1.0 0.2751301549
H  H17  1  0.51080000  0.86520000  0.80400000  1.0 0.2751301549
H  H18  1  0.06120000  0.70680000  0.19600000  1.0 0.2751301549
H  H19  1  0.70680000  0.51080000  0.64560000  1.0 0.2751301549
H  H20  1  0.86520000  0.06120000  0.35440000  1.0 0.2751301549
H  H21  1  0.98920000  0.79320000  0.35440000  1.0 0.2751301549
H  H22  1  0.43880000  0.63480000  0.64560000  1.0 0.2751301549
H  H23  1  0.79320000  0.43880000  0.80400000  1.0 0.2751301549
H  H24  1  0.63480000  0.98920000  0.19600000  1.0 0.2751301549
H  H25  1  0.39630000  0.26060000  0.39410000  1.0 0.1303583796
H  H26  1  0.86650000  0.00220000  0.60590000  1.0 0.1303583796
H  H27  1  0.00220000  0.39630000  0.13570000  1.0 0.1303583796
H  H28  1  0.26060000  0.86650000  0.86430000  1.0 0.1303583796
H  H29  1  0.10370000  0.49780000  0.86430000  1.0 0.1303583796
H  H30  1  0.63350000  0.23940000  0.13570000  1.0 0.1303583796
H  H31  1  0.49780000  0.63350000  0.39410000  1.0 0.1303583796
H  H32  1  0.23940000  0.10370000  0.60590000  1.0 0.1303583796
H  H33  1  0.60370000  0.73940000  0.60590000  1.0 0.1303583796
H  H34  1  0.13350000  0.99780000  0.39410000  1.0 0.1303583796
H  H35  1  0.99780000  0.60370000  0.86430000  1.0 0.1303583796
H  H36  1  0.73940000  0.13350000  0.13570000  1.0 0.1303583796
H  H37  1  0.89630000  0.50220000  0.13570000  1.0 0.1303583796
H  H38  1  0.36650000  0.76060000  0.86430000  1.0 0.1303583796
H  H39  1  0.50220000  0.36650000  0.60590000  1.0 0.1303583796
H  H40  1  0.76060000  0.89630000  0.39410000  1.0 0.1303583796
H  H41  1  0.33820000  0.12490000  0.26230000  1.0 0.1367665656
H  H42  1  0.86260000  0.07590000  0.73770000  1.0 0.1367665656
H  H43  1  0.07590000  0.33820000  0.21330000  1.0 0.1367665656
H  H44  1  0.12490000  0.86260000  0.78670000  1.0 0.1367665656
H  H45  1  0.16180000  0.42410000  0.78670000  1.0 0.1367665656
H  H46  1  0.63740000  0.37510000  0.21330000  1.0 0.1367665656
H  H47  1  0.42410000  0.63740000  0.26230000  1.0 0.1367665656
H  H48  1  0.37510000  0.16180000  0.73770000  1.0 0.1367665656
H  H49  1  0.66180000  0.87510000  0.73770000  1.0 0.1367665656
H  H50  1  0.13740000  0.92410000  0.26230000  1.0 0.1367665656
H  H51  1  0.92410000  0.66180000  0.78670000  1.0 0.1367665656
H  H52  1  0.87510000  0.13740000  0.21330000  1.0 0.1367665656
H  H53  1  0.83820000  0.57590000  0.21330000  1.0 0.1367665656
H  H54  1  0.36260000  0.62490000  0.78670000  1.0 0.1367665656
H  H55  1  0.57590000  0.36260000  0.73770000  1.0 0.1367665656
H  H56  1  0.62490000  0.83820000  0.26230000  1.0 0.1367665656
H  H57  1  0.49540000  0.25900000  0.32900000  1.0 0.1122780017
H  H58  1  0.93000000  0.16640000  0.67100000  1.0 0.1122780017
H  H59  1  0.16640000  0.49540000  0.23640000  1.0 0.1122780017
H  H60  1  0.25900000  0.93000000  0.76360000  1.0 0.1122780017
H  H61  1  0.00460000  0.33360000  0.76360000  1.0 0.1122780017
H  H62  1  0.57000000  0.24100000  0.23640000  1.0 0.1122780017
H  H63  1  0.33360000  0.57000000  0.32900000  1.0 0.1122780017
H  H64  1  0.24100000  0.00460000  0.67100000  1.0 0.1122780017
H  H65  1  0.50460000  0.74100000  0.67100000  1.0 0.1122780017
H  H66  1  0.07000000  0.83360000  0.32900000  1.0 0.1122780017
H  H67  1  0.83360000  0.50460000  0.76360000  1.0 0.1122780017
H  H68  1  0.74100000  0.07000000  0.23640000  1.0 0.1122780017
H  H69  1  0.99540000  0.66640000  0.23640000  1.0 0.1122780017
H  H70  1  0.43000000  0.75900000  0.76360000  1.0 0.1122780017
H  H71  1  0.66640000  0.43000000  0.67100000  1.0 0.1122780017
H  H72  1  0.75900000  0.99540000  0.32900000  1.0 0.1122780017
H  H73  1  0.45050000  0.06790000  0.11600000  1.0 0.1227321451
H  H74  1  0.95190000  0.33450000  0.88400000  1.0 0.1227321451
H  H75  1  0.33450000  0.45050000  0.38260000  1.0 0.1227321451
H  H76  1  0.06790000  0.95190000  0.61740000  1.0 0.1227321451
H  H77  1  0.04950000  0.16550000  0.61740000  1.0 0.1227321451
H  H78  1  0.54810000  0.43210000  0.38260000  1.0 0.1227321451
H  H79  1  0.16550000  0.54810000  0.11600000  1.0 0.1227321451
H  H80  1  0.43210000  0.04950000  0.88400000  1.0 0.1227321451
H  H81  1  0.54950000  0.93210000  0.88400000  1.0 0.1227321451
H  H82  1  0.04810000  0.66550000  0.11600000  1.0 0.1227321451
H  H83  1  0.66550000  0.54950000  0.61740000  1.0 0.1227321451
H  H84  1  0.93210000  0.04810000  0.38260000  1.0 0.1227321451
H  H85  1  0.95050000  0.83450000  0.38260000  1.0 0.1227321451
H  H86  1  0.45190000  0.56790000  0.61740000  1.0 0.1227321451
H  H87  1  0.83450000  0.45190000  0.88400000  1.0 0.1227321451
H  H88  1  0.56790000  0.95050000  0.11600000  1.0 0.1227321451
H  H89  1  0.30400000  0.01590000  0.11810000  1.0 0.1367665656
H  H90  1  0.89780000  0.18590000  0.88190000  1.0 0.1367665656
H  H91  1  0.18590000  0.30400000  0.28810000  1.0 0.1367665656
H  H92  1  0.01590000  0.89780000  0.71190000  1.0 0.1367665656
H  H93  1  0.19600000  0.31410000  0.71190000  1.0 0.1367665656
H  H94  1  0.60220000  0.48410000  0.28810000  1.0 0.1367665656
H  H95  1  0.31410000  0.60220000  0.11810000  1.0 0.1367665656
H  H96  1  0.48410000  0.19600000  0.88190000  1.0 0.1367665656
H  H97  1  0.69600000  0.98410000  0.88190000  1.0 0.1367665656
H  H98  1  0.10220000  0.81410000  0.11810000  1.0 0.1367665656
H  H99  1  0.81410000  0.69600000  0.71190000  1.0 0.1367665656
H  H100  1  0.98410000  0.10220000  0.28810000  1.0 0.1367665656
H  H101  1  0.80400000  0.68590000  0.28810000  1.0 0.1367665656
H  H102  1  0.39780000  0.51590000  0.71190000  1.0 0.1367665656
H  H103  1  0.68590000  0.39780000  0.88190000  1.0 0.1367665656
H  H104  1  0.51590000  0.80400000  0.11810000  1.0 0.1367665656
H  H105  1  0.30880000  0.92850000  0.99270000  1.0 0.1367665656
H  H106  1  0.93580000  0.31610000  0.00730000  1.0 0.1367665656
H  H107  1  0.31610000  0.30880000  0.38030000  1.0 0.1367665656
H  H108  1  0.92850000  0.93580000  0.61970000  1.0 0.1367665656
H  H109  1  0.19120000  0.18390000  0.61970000  1.0 0.1367665656
H  H110  1  0.56420000  0.57150000  0.38030000  1.0 0.1367665656
H  H111  1  0.18390000  0.56420000  0.99270000  1.0 0.1367665656
H  H112  1  0.57150000  0.19120000  0.00730000  1.0 0.1367665656
H  H113  1  0.69120000  0.07150000  0.00730000  1.0 0.1367665656
H  H114  1  0.06420000  0.68390000  0.99270000  1.0 0.1367665656
H  H115  1  0.68390000  0.69120000  0.61970000  1.0 0.1367665656
H  H116  1  0.07150000  0.06420000  0.38030000  1.0 0.1367665656
H  H117  1  0.80880000  0.81610000  0.38030000  1.0 0.1367665656
H  H118  1  0.43580000  0.42850000  0.61970000  1.0 0.1367665656
H  H119  1  0.81610000  0.43580000  0.00730000  1.0 0.1367665656
H  H120  1  0.42850000  0.80880000  0.99270000  1.0 0.1367665656
H  H121  1  0.97930000  0.24910000  0.24980000  1.0 0.0522876965
H  H122  1  0.99930000  0.72950000  0.75020000  1.0 0.0522876965
H  H123  1  0.72950000  0.97930000  0.73020000  1.0 0.0522876965
H  H124  1  0.24910000  0.99930000  0.26980000  1.0 0.0522876965
H  H125  1  0.52070000  0.77050000  0.26980000  1.0 0.0522876965
H  H126  1  0.50070000  0.25090000  0.73020000  1.0 0.0522876965
H  H127  1  0.77050000  0.50070000  0.24980000  1.0 0.0522876965
H  H128  1  0.25090000  0.52070000  0.75020000  1.0 0.0522876965
H  H129  1  0.02070000  0.75090000  0.75020000  1.0 0.0522876965
H  H130  1  0.00070000  0.27050000  0.24980000  1.0 0.0522876965
H  H131  1  0.27050000  0.02070000  0.26980000  1.0 0.0522876965
H  H132  1  0.75090000  0.00070000  0.73020000  1.0 0.0522876965
H  H133  1  0.47930000  0.22950000  0.73020000  1.0 0.0522876965
H  H134  1  0.49930000  0.74910000  0.26980000  1.0 0.0522876965
H  H135  1  0.22950000  0.49930000  0.75020000  1.0 0.0522876965
H  H136  1  0.74910000  0.47930000  0.24980000  1.0 0.0522876965
H  H137  1  0.02100000  0.26140000  0.22620000  1.0 0.0522876965
H  H138  1  0.03520000  0.79480000  0.77380000  1.0 0.0522876965
H  H139  1  0.79480000  0.02100000  0.75960000  1.0 0.0522876965
H  H140  1  0.26140000  0.03520000  0.24040000  1.0 0.0522876965
H  H141  1  0.47900000  0.70520000  0.24040000  1.0 0.0522876965
H  H142  1  0.46480000  0.23860000  0.75960000  1.0 0.0522876965
H  H143  1  0.70520000  0.46480000  0.22620000  1.0 0.0522876965
H  H144  1  0.23860000  0.47900000  0.77380000  1.0 0.0522876965
H  H145  1  0.97900000  0.73860000  0.77380000  1.0 0.0522876965
H  H146  1  0.96480000  0.20520000  0.22620000  1.0 0.0522876965
H  H147  1  0.20520000  0.97900000  0.24040000  1.0 0.0522876965
H  H148  1  0.73860000  0.96480000  0.75960000  1.0 0.0522876965
H  H149  1  0.52100000  0.29480000  0.75960000  1.0 0.0522876965
H  H150  1  0.53520000  0.76140000  0.24040000  1.0 0.0522876965
H  H151  1  0.29480000  0.53520000  0.77380000  1.0 0.0522876965
H  H152  1  0.76140000  0.52100000  0.22620000  1.0 0.0522876965
H  H153  1  0.97730000  0.19950000  0.21160000  1.0 0.0522876965
H  H154  1  0.98790000  0.76570000  0.78840000  1.0 0.0522876965
H  H155  1  0.76570000  0.97730000  0.77780000  1.0 0.0522876965
H  H156  1  0.19950000  0.98790000  0.22220000  1.0 0.0522876965
H  H157  1  0.52270000  0.73430000  0.22220000  1.0 0.0522876965
H  H158  1  0.51210000  0.30050000  0.77780000  1.0 0.0522876965
H  H159  1  0.73430000  0.51210000  0.21160000  1.0 0.0522876965
H  H160  1  0.30050000  0.52270000  0.78840000  1.0 0.0522876965
H  H161  1  0.02270000  0.80050000  0.78840000  1.0 0.0522876965
H  H162  1  0.01210000  0.23430000  0.21160000  1.0 0.0522876965
H  H163  1  0.23430000  0.02270000  0.22220000  1.0 0.0522876965
H  H164  1  0.80050000  0.01210000  0.77780000  1.0 0.0522876965
H  H165  1  0.47730000  0.26570000  0.77780000  1.0 0.0522876965
H  H166  1  0.48790000  0.69950000  0.22220000  1.0 0.0522876965
H  H167  1  0.26570000  0.48790000  0.78840000  1.0 0.0522876965
H  H168  1  0.69950000  0.47730000  0.21160000  1.0 0.0522876965
H  H169  1  0.04560000  0.25540000  0.35720000  1.0 0.0358510285
H  H170  1  0.89820000  0.68840000  0.64280000  1.0 0.0358510285
H  H171  1  0.68840000  0.04560000  0.79020000  1.0 0.0358510285
H  H172  1  0.25540000  0.89820000  0.20980000  1.0 0.0358510285
H  H173  1  0.45440000  0.81160000  0.20980000  1.0 0.0358510285
H  H174  1  0.60180000  0.24460000  0.79020000  1.0 0.0358510285
H  H175  1  0.81160000  0.60180000  0.35720000  1.0 0.0290242297
H  H176  1  0.24460000  0.45440000  0.64280000  1.0 0.0358510285
H  H177  1  0.95440000  0.74460000  0.64280000  1.0 0.0358510285
H  H178  1  0.10180000  0.31160000  0.35720000  1.0 0.0358510285
H  H179  1  0.31160000  0.95440000  0.20980000  1.0 0.0358510285
H  H180  1  0.74460000  0.10180000  0.79020000  1.0 0.0358510285
H  H181  1  0.54560000  0.18840000  0.79020000  1.0 0.0358510285
H  H182  1  0.39820000  0.75540000  0.20980000  1.0 0.0358510285
H  H183  1  0.18840000  0.39820000  0.64280000  1.0 0.0358510285
H  H184  1  0.75540000  0.54560000  0.35720000  1.0 0.0358510285
H  H185  1  0.10490000  0.29190000  0.36200000  1.0 0.0290242297
H  H186  1  0.92990000  0.74290000  0.63800000  1.0 0.0290242297
H  H187  1  0.74290000  0.10490000  0.81300000  1.0 0.0290242297
H  H188  1  0.29190000  0.92990000  0.18700000  1.0 0.0290242297
H  H189  1  0.39510000  0.75710000  0.18700000  1.0 0.0290242297
H  H190  1  0.57010000  0.20810000  0.81300000  1.0 0.0290242297
H  H191  1  0.75710000  0.57010000  0.36200000  1.0 0.0290242297
H  H192  1  0.20810000  0.39510000  0.63800000  1.0 0.0290242297
H  H193  1  0.89510000  0.70810000  0.63800000  1.0 0.0290242297
H  H194  1  0.07010000  0.25710000  0.36200000  1.0 0.0290242297
H  H195  1  0.25710000  0.89510000  0.18700000  1.0 0.0290242297
H  H196  1  0.70810000  0.07010000  0.81300000  1.0 0.0290242297
H  H197  1  0.60490000  0.24290000  0.81300000  1.0 0.0290242297
H  H198  1  0.42990000  0.79190000  0.18700000  1.0 0.0290242297
H  H199  1  0.24290000  0.42990000  0.63800000  1.0 0.0290242297
H  H200  1  0.79190000  0.60490000  0.36200000  1.0 0.0290242297
H  H201  1  0.06200000  0.30870000  0.34930000  1.0 0.0290242297
H  H202  1  0.95940000  0.71270000  0.65070000  1.0 0.0290242297
H  H203  1  0.71270000  0.06200000  0.75330000  1.0 0.0290242297
H  H204  1  0.30870000  0.95940000  0.24670000  1.0 0.0290242297
H  H205  1  0.43800000  0.78730000  0.24670000  1.0 0.0290242297
H  H206  1  0.54060000  0.19130000  0.75330000  1.0 0.0290242297
H  H207  1  0.78730000  0.54060000  0.34930000  1.0 0.0290242297
H  H208  1  0.19130000  0.43800000  0.65070000  1.0 0.0290242297
H  H209  1  0.93800000  0.69130000  0.65070000  1.0 0.0290242297
H  H210  1  0.04060000  0.28730000  0.34930000  1.0 0.0290242297
H  H211  1  0.28730000  0.93800000  0.24670000  1.0 0.0290242297
H  H212  1  0.69130000  0.04060000  0.75330000  1.0 0.0290242297
H  H213  1  0.56200000  0.21270000  0.75330000  1.0 0.0290242297
H  H214  1  0.45940000  0.80870000  0.24670000  1.0 0.0290242297
H  H215  1  0.21270000  0.45940000  0.65070000  1.0 0.0290242297
H  H216  1  0.80870000  0.56200000  0.34930000  1.0 0.0290242297
C  C1  1  0.06360000  0.20990000  0.27350000  1.0 0.2926713101
C  C2  1  0.93640000  0.79010000  0.72650000  1.0 0.2926713101
C  C3  1  0.79010000  0.06360000  0.85370000  1.0 0.2926713101
C  C4  1  0.20990000  0.93640000  0.14630000  1.0 0.2926713101
C  C5  1  0.43640000  0.70990000  0.14630000  1.0 0.2926713101
C  C6  1  0.56360000  0.29010000  0.85370000  1.0 0.2926713101
C  C7  1  0.70990000  0.56360000  0.27350000  1.0 0.2926713101
C  C8  1  0.29010000  0.43640000  0.72650000  1.0 0.2926713101
C  C9  1  0.00140000  0.23770000  0.23910000  1.0 -0.2323288468
C  C10  1  0.99860000  0.76230000  0.76090000  1.0 -0.2323288468
C  C11  1  0.76230000  0.00140000  0.76370000  1.0 -0.2323288468
C  C12  1  0.23770000  0.99860000  0.23630000  1.0 -0.2323288468
C  C13  1  0.49860000  0.73770000  0.23630000  1.0 -0.2323288468
C  C14  1  0.50140000  0.26230000  0.76370000  1.0 -0.2323288468
C  C15  1  0.73770000  0.50140000  0.23910000  1.0 -0.2323288468
C  C16  1  0.26230000  0.49860000  0.76090000  1.0 -0.2323288468
C  C17  1  0.06600000  0.27790000  0.34390000  1.0 -0.1494186574
C  C18  1  0.93400000  0.72210000  0.65610000  1.0 -0.1494186574
C  C19  1  0.72210000  0.06600000  0.78810000  1.0 -0.1494186574
C  C20  1  0.27790000  0.93400000  0.21190000  1.0 -0.1494186574
C  C21  1  0.43400000  0.77790000  0.21190000  1.0 -0.1494186574
C  C22  1  0.56600000  0.22210000  0.78810000  1.0 -0.1494186574
C  C23  1  0.77790000  0.56600000  0.34390000  1.0 -0.1494186574
C  C24  1  0.22210000  0.43400000  0.65610000  1.0 -0.1494186574
C  C25  1  0.49645000  0.32927000  0.40792000  1.0 0.6190361253
C  C26  1  0.92135000  0.08853000  0.59208000  1.0 0.6190361253
C  C27  1  0.08853000  0.49645000  0.16718000  1.0 0.6190361253
C  C28  1  0.32927000  0.92135000  0.83282000  1.0 0.6190361253
C  C29  1  0.00355000  0.41147000  0.83282000  1.0 0.6190361253
C  C30  1  0.57865000  0.17073000  0.16718000  1.0 0.6190361253
C  C31  1  0.41147000  0.57865000  0.40792000  1.0 0.6190361253
C  C32  1  0.17073000  0.00355000  0.59208000  1.0 0.6190361253
C  C33  1  0.50355000  0.67073000  0.59208000  1.0 0.6190361253
C  C34  1  0.07865000  0.91147000  0.40792000  1.0 0.6190361253
C  C35  1  0.91147000  0.50355000  0.83282000  1.0 0.6190361253
C  C36  1  0.67073000  0.07865000  0.16718000  1.0 0.6190361253
C  C37  1  0.99645000  0.58853000  0.16718000  1.0 0.6190361253
C  C38  1  0.42135000  0.82927000  0.83282000  1.0 0.6190361253
C  C39  1  0.58853000  0.42135000  0.59208000  1.0 0.6190361253
C  C40  1  0.82927000  0.99645000  0.40792000  1.0 0.6190361253
C  C41  1  0.45249000  0.26948000  0.36731000  1.0 -0.0413832755
C  C42  1  0.90217000  0.08518000  0.63269000  1.0 -0.0413832755
C  C43  1  0.08518000  0.45249000  0.18301000  1.0 -0.0413832755
C  C44  1  0.26948000  0.90217000  0.81699000  1.0 -0.0413832755
C  C45  1  0.04751000  0.41482000  0.81699000  1.0 -0.0413832755
C  C46  1  0.59783000  0.23052000  0.18301000  1.0 -0.0413832755
C  C47  1  0.41482000  0.59783000  0.36731000  1.0 -0.0413832755
C  C48  1  0.23052000  0.04751000  0.63269000  1.0 -0.0413832755
C  C49  1  0.54751000  0.73052000  0.63269000  1.0 -0.0413832755
C  C50  1  0.09783000  0.91482000  0.36731000  1.0 -0.0413832755
C  C51  1  0.91482000  0.54751000  0.81699000  1.0 -0.0413832755
C  C52  1  0.73052000  0.09783000  0.18301000  1.0 -0.0413832755
C  C53  1  0.95249000  0.58518000  0.18301000  1.0 -0.0413832755
C  C54  1  0.40217000  0.76948000  0.81699000  1.0 -0.0413832755
C  C55  1  0.58518000  0.40217000  0.63269000  1.0 -0.0413832755
C  C56  1  0.76948000  0.95249000  0.36731000  1.0 -0.0413832755
C  C57  1  0.40160000  0.24234000  0.36754000  1.0 -0.0927227788
C  C58  1  0.87480000  0.03406000  0.63246000  1.0 -0.0927227788
C  C59  1  0.03406000  0.40160000  0.15926000  1.0 -0.0927227788
C  C60  1  0.24234000  0.87480000  0.84074000  1.0 -0.0927227788
C  C61  1  0.09840000  0.46594000  0.84074000  1.0 -0.0927227788
C  C62  1  0.62520000  0.25766000  0.15926000  1.0 -0.0927227788
C  C63  1  0.46594000  0.62520000  0.36754000  1.0 -0.0927227788
C  C64  1  0.25766000  0.09840000  0.63246000  1.0 -0.0927227788
C  C65  1  0.59840000  0.75766000  0.63246000  1.0 -0.0927227788
C  C66  1  0.12520000  0.96594000  0.36754000  1.0 -0.0927227788
C  C67  1  0.96594000  0.59840000  0.84074000  1.0 -0.0927227788
C  C68  1  0.75766000  0.12520000  0.15926000  1.0 -0.0927227788
C  C69  1  0.90160000  0.53406000  0.15926000  1.0 -0.0927227788
C  C70  1  0.37480000  0.74234000  0.84074000  1.0 -0.0927227788
C  C71  1  0.53406000  0.37480000  0.63246000  1.0 -0.0927227788
C  C72  1  0.74234000  0.90160000  0.36754000  1.0 -0.0927227788
C  C73  1  0.35840000  0.18815000  0.32855000  1.0 -0.0186675169
C  C74  1  0.85960000  0.02985000  0.67145000  1.0 -0.0186675169
C  C75  1  0.02985000  0.35840000  0.17025000  1.0 -0.0186675169
C  C76  1  0.18815000  0.85960000  0.82975000  1.0 -0.0186675169
C  C77  1  0.14160000  0.47015000  0.82975000  1.0 -0.0186675169
C  C78  1  0.64040000  0.31185000  0.17025000  1.0 -0.0186675169
C  C79  1  0.47015000  0.64040000  0.32855000  1.0 -0.0186675169
C  C80  1  0.31185000  0.14160000  0.67145000  1.0 -0.0186675169
C  C81  1  0.64160000  0.81185000  0.67145000  1.0 -0.0186675169
C  C82  1  0.14040000  0.97015000  0.32855000  1.0 -0.0186675169
C  C83  1  0.97015000  0.64160000  0.82975000  1.0 -0.0186675169
C  C84  1  0.81185000  0.14040000  0.17025000  1.0 -0.0186675169
C  C85  1  0.85840000  0.52985000  0.17025000  1.0 -0.0186675169
C  C86  1  0.35960000  0.68815000  0.82975000  1.0 -0.0186675169
C  C87  1  0.52985000  0.35960000  0.67145000  1.0 -0.0186675169
C  C88  1  0.68815000  0.85840000  0.32855000  1.0 -0.0186675169
C  C89  1  0.36720000  0.16089000  0.28909000  1.0 -0.0746157148
C  C90  1  0.87180000  0.07811000  0.71091000  1.0 -0.0808009435
C  C91  1  0.07811000  0.36720000  0.20631000  1.0 -0.0746157148
C  C92  1  0.16089000  0.87180000  0.79369000  1.0 -0.0808009435
C  C93  1  0.13280000  0.42189000  0.79369000  1.0 -0.0808009435
C  C94  1  0.62820000  0.33911000  0.20631000  1.0 -0.0746157148
C  C95  1  0.42189000  0.62820000  0.28909000  1.0 -0.0746157148
C  C96  1  0.33911000  0.13280000  0.71091000  1.0 -0.0808009435
C  C97  1  0.63280000  0.83911000  0.71091000  1.0 -0.0808009435
C  C98  1  0.12820000  0.92189000  0.28909000  1.0 -0.0746157148
C  C99  1  0.92189000  0.63280000  0.79369000  1.0 -0.0808009435
C  C100  1  0.83911000  0.12820000  0.20631000  1.0 -0.0746157148
C  C101  1  0.86720000  0.57811000  0.20631000  1.0 -0.0808009435
C  C102  1  0.37180000  0.66089000  0.79369000  1.0 -0.0808009435
C  C103  1  0.57811000  0.37180000  0.71091000  1.0 -0.0808009435
C  C104  1  0.66089000  0.86720000  0.28909000  1.0 -0.0808009435
C  C105  1  0.41790000  0.18639000  0.28949000  1.0 0.0290242297
C  C106  1  0.89690000  0.12841000  0.71051000  1.0 0.0290242297
C  C107  1  0.12841000  0.41790000  0.23151000  1.0 0.0290242297
C  C108  1  0.18639000  0.89690000  0.76849000  1.0 0.0290242297
C  C109  1  0.08210000  0.37159000  0.76849000  1.0 0.0290242297
C  C110  1  0.60310000  0.31361000  0.23151000  1.0 0.0290242297
C  C111  1  0.37159000  0.60310000  0.28949000  1.0 0.0290242297
C  C112  1  0.31361000  0.08210000  0.71051000  1.0 0.0290242297
C  C113  1  0.58210000  0.81361000  0.71051000  1.0 0.0290242297
C  C114  1  0.10310000  0.87159000  0.28949000  1.0 0.0290242297
C  C115  1  0.87159000  0.58210000  0.76849000  1.0 0.0290242297
C  C116  1  0.81361000  0.10310000  0.23151000  1.0 0.0290242297
C  C117  1  0.91790000  0.62841000  0.23151000  1.0 0.0290242297
C  C118  1  0.39690000  0.68639000  0.76849000  1.0 0.0290242297
C  C119  1  0.62841000  0.39690000  0.71051000  1.0 0.0290242297
C  C120  1  0.68639000  0.91790000  0.28949000  1.0 0.0290242297
C  C121  1  0.46099000  0.24135000  0.32876000  1.0 -0.1404218629
C  C122  1  0.91259000  0.13223000  0.67124000  1.0 -0.1404218629
C  C123  1  0.13223000  0.46099000  0.21964000  1.0 -0.1404218629
C  C124  1  0.24135000  0.91259000  0.78036000  1.0 -0.1404218629
C  C125  1  0.03901000  0.36777000  0.78036000  1.0 -0.1404218629
C  C126  1  0.58741000  0.25865000  0.21964000  1.0 -0.1404218629
C  C127  1  0.36777000  0.58741000  0.32876000  1.0 -0.1404218629
C  C128  1  0.25865000  0.03901000  0.67124000  1.0 -0.1404218629
C  C129  1  0.53901000  0.75865000  0.67124000  1.0 -0.1404218629
C  C130  1  0.08741000  0.86777000  0.32876000  1.0 -0.1404218629
C  C131  1  0.86777000  0.53901000  0.78036000  1.0 -0.1404218629
C  C132  1  0.75865000  0.08741000  0.21964000  1.0 -0.1404218629
C  C133  1  0.96099000  0.63223000  0.21964000  1.0 -0.1404218629
C  C134  1  0.41259000  0.74135000  0.78036000  1.0 -0.1404218629
C  C135  1  0.63223000  0.41259000  0.67124000  1.0 -0.1404218629
C  C136  1  0.74135000  0.96099000  0.32876000  1.0 -0.1404218629
C  C137  1  0.42650000  0.15631000  0.24781000  1.0 0.2587873957
C  C138  1  0.90850000  0.17869000  0.75219000  1.0 0.2587873957
C  C139  1  0.17869000  0.42650000  0.27019000  1.0 0.2587873957
C  C140  1  0.15631000  0.90850000  0.72981000  1.0 0.2587873957
C  C141  1  0.07350000  0.32131000  0.72981000  1.0 0.2587873957
C  C142  1  0.59150000  0.34369000  0.27019000  1.0 0.2587873957
C  C143  1  0.32131000  0.59150000  0.24781000  1.0 0.2587873957
C  C144  1  0.34369000  0.07350000  0.75219000  1.0 0.2587873957
C  C145  1  0.57350000  0.84369000  0.75219000  1.0 0.2587873957
C  C146  1  0.09150000  0.82131000  0.24781000  1.0 0.2587873957
C  C147  1  0.82131000  0.57350000  0.72981000  1.0 0.2587873957
C  C148  1  0.84369000  0.09150000  0.27019000  1.0 0.2587873957
C  C149  1  0.92650000  0.67869000  0.27019000  1.0 0.2587873957
C  C150  1  0.40850000  0.65631000  0.72981000  1.0 0.2587873957
C  C151  1  0.67869000  0.40850000  0.75219000  1.0 0.2587873957
C  C152  1  0.65631000  0.92650000  0.24781000  1.0 0.2587873957
C  C153  1  0.40930000  0.09668000  0.17738000  1.0 0.2695506465
C  C154  1  0.91930000  0.23192000  0.82262000  1.0 0.2695506465
C  C155  1  0.23192000  0.40930000  0.31262000  1.0 0.2695506465
C  C156  1  0.09668000  0.91930000  0.68738000  1.0 0.2695506465
C  C157  1  0.09070000  0.26808000  0.68738000  1.0 0.2695506465
C  C158  1  0.58070000  0.40332000  0.31262000  1.0 0.2695506465
C  C159  1  0.26808000  0.58070000  0.17738000  1.0 0.2695506465
C  C160  1  0.40332000  0.09070000  0.82262000  1.0 0.2695506465
C  C161  1  0.59070000  0.90332000  0.82262000  1.0 0.2695506465
C  C162  1  0.08070000  0.76808000  0.17738000  1.0 0.2695506465
C  C163  1  0.76808000  0.59070000  0.68738000  1.0 0.2695506465
C  C164  1  0.90332000  0.08070000  0.31262000  1.0 0.2695506465
C  C165  1  0.90930000  0.73192000  0.31262000  1.0 0.2695506465
C  C166  1  0.41930000  0.59668000  0.68738000  1.0 0.2695506465
C  C167  1  0.73192000  0.41930000  0.82262000  1.0 0.2695506465
C  C168  1  0.59668000  0.90930000  0.17738000  1.0 0.2695506465
C  C169  1  0.30370000  0.15991000  0.32901000  1.0 0.5500057883
C  C170  1  0.83090000  0.97469000  0.67099000  1.0 0.5500057883
C  C171  1  0.97469000  0.30370000  0.14379000  1.0 0.5500057883
C  C172  1  0.15991000  0.83090000  0.85621000  1.0 0.5500057883
C  C173  1  0.19630000  0.52531000  0.85621000  1.0 0.5500057883
C  C174  1  0.66910000  0.34009000  0.14379000  1.0 0.5500057883
C  C175  1  0.52531000  0.66910000  0.32901000  1.0 0.5500057883
C  C176  1  0.34009000  0.19630000  0.67099000  1.0 0.5500057883
C  C177  1  0.69630000  0.84009000  0.67099000  1.0 0.5500057883
C  C178  1  0.16910000  0.02531000  0.32901000  1.0 0.5500057883
C  C179  1  0.02531000  0.69630000  0.85621000  1.0 0.5500057883
C  C180  1  0.84009000  0.16910000  0.14379000  1.0 0.5500057883
C  C181  1  0.80370000  0.47469000  0.14379000  1.0 0.5500057883
C  C182  1  0.33090000  0.65991000  0.85621000  1.0 0.5500057883
C  C183  1  0.47469000  0.33090000  0.67099000  1.0 0.5500057883
C  C184  1  0.65991000  0.80370000  0.32901000  1.0 0.5500057883
C  C185  1  0.41870000  0.99095000  0.02303000  1.0 0.6479901358
C  C186  1  0.96792000  0.39567000  0.97697000  1.0 0.6479901358
C  C187  1  0.39567000  0.41870000  0.42775000  1.0 0.6479901358
C  C188  1  0.99095000  0.96792000  0.57225000  1.0 0.6479901358
C  C189  1  0.08130000  0.10433000  0.57225000  1.0 0.6479901358
C  C190  1  0.53208000  0.50905000  0.42775000  1.0 0.6479901358
C  C191  1  0.10433000  0.53208000  0.02303000  1.0 0.6479901358
C  C192  1  0.50905000  0.08130000  0.97697000  1.0 0.6479901358
C  C193  1  0.58130000  0.00905000  0.97697000  1.0 0.6479901358
C  C194  1  0.03208000  0.60433000  0.02303000  1.0 0.6479901358
C  C195  1  0.60433000  0.58130000  0.57225000  1.0 0.6479901358
C  C196  1  0.00905000  0.03208000  0.42775000  1.0 0.6479901358
C  C197  1  0.91870000  0.89567000  0.42775000  1.0 0.6479901358
C  C198  1  0.46792000  0.49095000  0.57225000  1.0 0.6479901358
C  C199  1  0.89567000  0.46792000  0.97697000  1.0 0.6479901358
C  C200  1  0.49095000  0.91870000  0.02303000  1.0 0.6479901358
C  C201  1  0.38475000  0.99660000  0.05003000  1.0 -0.0295410852
C  C202  1  0.94657000  0.33472000  0.94997000  1.0 -0.0295410852
C  C203  1  0.33472000  0.38475000  0.38815000  1.0 -0.0295410852
C  C204  1  0.99660000  0.94657000  0.61185000  1.0 -0.0295410852
C  C205  1  0.11525000  0.16528000  0.61185000  1.0 -0.0295410852
C  C206  1  0.55343000  0.50340000  0.38815000  1.0 -0.0295410852
C  C207  1  0.16528000  0.55343000  0.05003000  1.0 -0.0295410852
C  C208  1  0.50340000  0.11525000  0.94997000  1.0 -0.0295410852
C  C209  1  0.61525000  0.00340000  0.94997000  1.0 -0.0295410852
C  C210  1  0.05343000  0.66528000  0.05003000  1.0 -0.0295410852
C  C211  1  0.66528000  0.61525000  0.61185000  1.0 -0.0295410852
C  C212  1  0.00340000  0.05343000  0.38815000  1.0 -0.0295410852
C  C213  1  0.88475000  0.83472000  0.38815000  1.0 -0.0295410852
C  C214  1  0.44657000  0.49660000  0.61185000  1.0 -0.0295410852
C  C215  1  0.83472000  0.44657000  0.94997000  1.0 -0.0295410852
C  C216  1  0.49660000  0.88475000  0.05003000  1.0 -0.0295410852
C  C217  1  0.41200000  0.04221000  0.09981000  1.0 -0.1404218629
C  C218  1  0.94240000  0.31219000  0.90019000  1.0 -0.1404218629
C  C219  1  0.31219000  0.41200000  0.36979000  1.0 -0.1404218629
C  C220  1  0.04221000  0.94240000  0.63021000  1.0 -0.1404218629
C  C221  1  0.08800000  0.18781000  0.63021000  1.0 -0.1404218629
C  C222  1  0.55760000  0.45779000  0.36979000  1.0 -0.1404218629
C  C223  1  0.18781000  0.55760000  0.09981000  1.0 -0.1404218629
C  C224  1  0.45779000  0.08800000  0.90019000  1.0 -0.1404218629
C  C225  1  0.58800000  0.95779000  0.90019000  1.0 -0.1404218629
C  C226  1  0.05760000  0.68781000  0.09981000  1.0 -0.1404218629
C  C227  1  0.68781000  0.58800000  0.63021000  1.0 -0.1404218629
C  C228  1  0.95779000  0.05760000  0.36979000  1.0 -0.1404218629
C  C229  1  0.91200000  0.81219000  0.36979000  1.0 -0.1404218629
C  C230  1  0.44240000  0.54221000  0.63021000  1.0 -0.1404218629
C  C231  1  0.81219000  0.44240000  0.90019000  1.0 -0.1404218629
C  C232  1  0.54221000  0.91200000  0.09981000  1.0 -0.1404218629
C  C233  1  0.38120000  0.04872000  0.12472000  1.0 0.0032326899
C  C234  1  0.92400000  0.25648000  0.87528000  1.0 0.0032326899
C  C235  1  0.25648000  0.38120000  0.33248000  1.0 0.0032326899
C  C236  1  0.04872000  0.92400000  0.66752000  1.0 0.0032326899
C  C237  1  0.11880000  0.24352000  0.66752000  1.0 0.0032326899
C  C238  1  0.57600000  0.45128000  0.33248000  1.0 0.0032326899
C  C239  1  0.24352000  0.57600000  0.12472000  1.0 0.0032326899
C  C240  1  0.45128000  0.11880000  0.87528000  1.0 0.0032326899
C  C241  1  0.61880000  0.95128000  0.87528000  1.0 0.0032326899
C  C242  1  0.07600000  0.74352000  0.12472000  1.0 0.0032326899
C  C243  1  0.74352000  0.61880000  0.66752000  1.0 0.0032326899
C  C244  1  0.95128000  0.07600000  0.33248000  1.0 0.0032326899
C  C245  1  0.88120000  0.75648000  0.33248000  1.0 0.0032326899
C  C246  1  0.42400000  0.54872000  0.66752000  1.0 0.0032326899
C  C247  1  0.75648000  0.42400000  0.87528000  1.0 0.0032326899
C  C248  1  0.54872000  0.88120000  0.12472000  1.0 0.0032326899
C  C249  1  0.32420000  0.01089000  0.10109000  1.0 -0.0808009435
C  C250  1  0.90980000  0.22311000  0.89891000  1.0 -0.0808009435
C  C251  1  0.22311000  0.32420000  0.31331000  1.0 -0.0808009435
C  C252  1  0.01089000  0.90980000  0.68669000  1.0 -0.0808009435
C  C253  1  0.17580000  0.27689000  0.68669000  1.0 -0.0808009435
C  C254  1  0.59020000  0.48911000  0.31331000  1.0 -0.0808009435
C  C255  1  0.27689000  0.59020000  0.10109000  1.0 -0.0808009435
C  C256  1  0.48911000  0.17580000  0.89891000  1.0 -0.0808009435
C  C257  1  0.67580000  0.98911000  0.89891000  1.0 -0.0808009435
C  C258  1  0.09020000  0.77689000  0.10109000  1.0 -0.0808009435
C  C259  1  0.77689000  0.67580000  0.68669000  1.0 -0.0808009435
C  C260  1  0.98911000  0.09020000  0.31331000  1.0 -0.0808009435
C  C261  1  0.82420000  0.72311000  0.31331000  1.0 -0.0808009435
C  C262  1  0.40980000  0.51089000  0.68669000  1.0 -0.0808009435
C  C263  1  0.72311000  0.40980000  0.89891000  1.0 -0.0808009435
C  C264  1  0.51089000  0.82420000  0.10109000  1.0 -0.0808009435
C  C265  1  0.29680000  0.96525000  0.05205000  1.0 -0.0295410852
C  C266  1  0.91320000  0.24475000  0.94795000  1.0 -0.0295410852
C  C267  1  0.24475000  0.29680000  0.33155000  1.0 -0.0295410852
C  C268  1  0.96525000  0.91320000  0.66845000  1.0 -0.0295410852
C  C269  1  0.20320000  0.25525000  0.66845000  1.0 -0.0295410852
C  C270  1  0.58680000  0.53475000  0.33155000  1.0 -0.0295410852
C  C271  1  0.25525000  0.58680000  0.05205000  1.0 -0.0295410852
C  C272  1  0.53475000  0.20320000  0.94795000  1.0 -0.0295410852
C  C273  1  0.70320000  0.03475000  0.94795000  1.0 -0.0295410852
C  C274  1  0.08680000  0.75525000  0.05205000  1.0 -0.0295410852
C  C275  1  0.75525000  0.70320000  0.66845000  1.0 -0.0295410852
C  C276  1  0.03475000  0.08680000  0.33155000  1.0 -0.0295410852
C  C277  1  0.79680000  0.74475000  0.33155000  1.0 -0.0295410852
C  C278  1  0.41320000  0.46525000  0.66845000  1.0 -0.0295410852
C  C279  1  0.74475000  0.41320000  0.94795000  1.0 -0.0295410852
C  C280  1  0.46525000  0.79680000  0.05205000  1.0 -0.0295410852
C  C281  1  0.32715000  0.95846000  0.02601000  1.0 -0.0972992765
C  C282  1  0.93245000  0.30114000  0.97399000  1.0 -0.0972992765
C  C283  1  0.30114000  0.32715000  0.36869000  1.0 -0.0972992765
C  C284  1  0.95846000  0.93245000  0.63131000  1.0 -0.0972992765
C  C285  1  0.17285000  0.19886000  0.63131000  1.0 -0.0972992765
C  C286  1  0.56755000  0.54154000  0.36869000  1.0 -0.0972992765
C  C287  1  0.19886000  0.56755000  0.02601000  1.0 -0.0972992765
C  C288  1  0.54154000  0.17285000  0.97399000  1.0 -0.0972992765
C  C289  1  0.67285000  0.04154000  0.97399000  1.0 -0.0972992765
C  C290  1  0.06755000  0.69886000  0.02601000  1.0 -0.0972992765
C  C291  1  0.69886000  0.67285000  0.63131000  1.0 -0.0972992765
C  C292  1  0.04154000  0.06755000  0.36869000  1.0 -0.0972992765
C  C293  1  0.82715000  0.80114000  0.36869000  1.0 -0.0972992765
C  C294  1  0.43245000  0.45846000  0.63131000  1.0 -0.0972992765
C  C295  1  0.80114000  0.43245000  0.97399000  1.0 -0.0972992765
C  C296  1  0.45846000  0.82715000  0.02601000  1.0 -0.0972992765
C  C297  1  0.23390000  0.92380000  0.02670000  1.0 0.6479901358
C  C298  1  0.89710000  0.20720000  0.97330000  1.0 0.6479901358
C  C299  1  0.20720000  0.23390000  0.31010000  1.0 0.6479901358
C  C300  1  0.92380000  0.89710000  0.68990000  1.0 0.6479901358
C  C301  1  0.26610000  0.29280000  0.68990000  1.0 0.6479901358
C  C302  1  0.60290000  0.57620000  0.31010000  1.0 0.6479901358
C  C303  1  0.29280000  0.60290000  0.02670000  1.0 0.6479901358
C  C304  1  0.57620000  0.26610000  0.97330000  1.0 0.6479901358
C  C305  1  0.76610000  0.07620000  0.97330000  1.0 0.6479901358
C  C306  1  0.10290000  0.79280000  0.02670000  1.0 0.6479901358
C  C307  1  0.79280000  0.76610000  0.68990000  1.0 0.6479901358
C  C308  1  0.07620000  0.10290000  0.31010000  1.0 0.6479901358
C  C309  1  0.73390000  0.70720000  0.31010000  1.0 0.6479901358
C  C310  1  0.39710000  0.42380000  0.68990000  1.0 0.6479901358
C  C311  1  0.70720000  0.39710000  0.97330000  1.0 0.6479901358
C  C312  1  0.42380000  0.73390000  0.02670000  1.0 0.6479901358
N  N1  1  0.04290000  0.24230000  0.28520000  1.0 -0.0295410852
N  N2  1  0.95710000  0.75770000  0.71480000  1.0 -0.0295410852
N  N3  1  0.75770000  0.04290000  0.80060000  1.0 -0.0295410852
N  N4  1  0.24230000  0.95710000  0.19940000  1.0 -0.0295410852
N  N5  1  0.45710000  0.74230000  0.19940000  1.0 -0.0295410852
N  N6  1  0.54290000  0.25770000  0.80060000  1.0 -0.0295410852
N  N7  1  0.74230000  0.54290000  0.28520000  1.0 -0.0295410852
N  N8  1  0.25770000  0.45710000  0.71480000  1.0 -0.0295410852
N  N9  1  0.47690000  0.17464000  0.25114000  1.0 -0.2614523151
N  N10  1  0.92350000  0.22576000  0.74886000  1.0 -0.2614523151
N  N11  1  0.22576000  0.47690000  0.30226000  1.0 -0.2614523151
N  N12  1  0.17464000  0.92350000  0.69774000  1.0 -0.2614523151
N  N13  1  0.02310000  0.27424000  0.69774000  1.0 -0.2614523151
N  N14  1  0.57650000  0.32536000  0.30226000  1.0 -0.2614523151
N  N15  1  0.27424000  0.57650000  0.25114000  1.0 -0.2614523151
N  N16  1  0.32536000  0.02310000  0.74886000  1.0 -0.2614523151
N  N17  1  0.52310000  0.82536000  0.74886000  1.0 -0.2614523151
N  N18  1  0.07650000  0.77424000  0.25114000  1.0 -0.2614523151
N  N19  1  0.77424000  0.52310000  0.69774000  1.0 -0.2614523151
N  N20  1  0.82536000  0.07650000  0.30226000  1.0 -0.2614523151
N  N21  1  0.97690000  0.72576000  0.30226000  1.0 -0.2614523151
N  N22  1  0.42350000  0.67464000  0.69774000  1.0 -0.2614523151
N  N23  1  0.72576000  0.42350000  0.74886000  1.0 -0.2614523151
N  N24  1  0.67464000  0.97690000  0.25114000  1.0 -0.2614523151
N  N25  1  0.46483000  0.13515000  0.20552000  1.0 -0.1494186574
N  N26  1  0.92963000  0.25931000  0.79448000  1.0 -0.1494186574
N  N27  1  0.25931000  0.46483000  0.32968000  1.0 -0.1494186574
N  N28  1  0.13515000  0.92963000  0.67032000  1.0 -0.1494186574
N  N29  1  0.03517000  0.24069000  0.67032000  1.0 -0.1494186574
N  N30  1  0.57037000  0.36485000  0.32968000  1.0 -0.1494186574
N  N31  1  0.24069000  0.57037000  0.20552000  1.0 -0.1494186574
N  N32  1  0.36485000  0.03517000  0.79448000  1.0 -0.1494186574
N  N33  1  0.53517000  0.86485000  0.79448000  1.0 -0.1494186574
N  N34  1  0.07037000  0.74069000  0.20552000  1.0 -0.1494186574
N  N35  1  0.74069000  0.53517000  0.67032000  1.0 -0.1494186574
N  N36  1  0.86485000  0.07037000  0.32968000  1.0 -0.1494186574
N  N37  1  0.96483000  0.75931000  0.32968000  1.0 -0.1494186574
N  N38  1  0.42963000  0.63515000  0.67032000  1.0 -0.1494186574
N  N39  1  0.75931000  0.42963000  0.79448000  1.0 -0.1494186574
N  N40  1  0.63515000  0.96483000  0.20552000  1.0 -0.1494186574
N  N41  1  0.38330000  0.10870000  0.20320000  1.0 -0.3874045049
N  N42  1  0.90550000  0.18010000  0.79680000  1.0 -0.3874045049
N  N43  1  0.18010000  0.38330000  0.27460000  1.0 -0.3874045049
N  N44  1  0.10870000  0.90550000  0.72540000  1.0 -0.3874045049
N  N45  1  0.11670000  0.31990000  0.72540000  1.0 -0.3874045049
N  N46  1  0.59450000  0.39130000  0.27460000  1.0 -0.3874045049
N  N47  1  0.31990000  0.59450000  0.20320000  1.0 -0.3874045049
N  N48  1  0.39130000  0.11670000  0.79680000  1.0 -0.3874045049
N  N49  1  0.61670000  0.89130000  0.79680000  1.0 -0.3874045049
N  N50  1  0.09450000  0.81990000  0.20320000  1.0 -0.3874045049
N  N51  1  0.81990000  0.61670000  0.72540000  1.0 -0.3874045049
N  N52  1  0.89130000  0.09450000  0.27460000  1.0 -0.3874045049
N  N53  1  0.88330000  0.68010000  0.27460000  1.0 -0.3874045049
N  N54  1  0.40550000  0.60870000  0.72540000  1.0 -0.3874045049
N  N55  1  0.68010000  0.40550000  0.79680000  1.0 -0.3874045049
N  N56  1  0.60870000  0.88330000  0.20320000  1.0 -0.3874045049
O  O1  1  0.48452000  0.35108000  0.44108000  1.0 -0.6771944404
O  O2  1  0.91000000  0.04344000  0.55892000  1.0 -0.6771944404
O  O3  1  0.04344000  0.48452000  0.13344000  1.0 -0.6771944404
O  O4  1  0.35108000  0.91000000  0.86656000  1.0 -0.6771944404
O  O5  1  0.01548000  0.45656000  0.86656000  1.0 -0.6771944404
O  O6  1  0.59000000  0.14892000  0.13344000  1.0 -0.6771944404
O  O7  1  0.45656000  0.59000000  0.44108000  1.0 -0.6771944404
O  O8  1  0.14892000  0.01548000  0.55892000  1.0 -0.6771944404
O  O9  1  0.51548000  0.64892000  0.55892000  1.0 -0.6771944404
O  O10  1  0.09000000  0.95656000  0.44108000  1.0 -0.6771944404
O  O11  1  0.95656000  0.51548000  0.86656000  1.0 -0.6771944404
O  O12  1  0.64892000  0.09000000  0.13344000  1.0 -0.6771944404
O  O13  1  0.98452000  0.54344000  0.13344000  1.0 -0.6771944404
O  O14  1  0.41000000  0.85108000  0.86656000  1.0 -0.6771944404
O  O15  1  0.54344000  0.41000000  0.55892000  1.0 -0.6771944404
O  O16  1  0.85108000  0.98452000  0.44108000  1.0 -0.6771944404
O  O17  1  0.54225000  0.35454000  0.40759000  1.0 -0.5556665637
O  O18  1  0.94695000  0.13466000  0.59241000  1.0 -0.5556665637
O  O19  1  0.13466000  0.54225000  0.18771000  1.0 -0.5556665637
O  O20  1  0.35454000  0.94695000  0.81229000  1.0 -0.5556665637
O  O21  1  0.95775000  0.36534000  0.81229000  1.0 -0.5556665637
O  O22  1  0.55305000  0.14546000  0.18771000  1.0 -0.5556665637
O  O23  1  0.36534000  0.55305000  0.40759000  1.0 -0.5556665637
O  O24  1  0.14546000  0.95775000  0.59241000  1.0 -0.5556665637
O  O25  1  0.45775000  0.64546000  0.59241000  1.0 -0.5556665637
O  O26  1  0.05305000  0.86534000  0.40759000  1.0 -0.5556665637
O  O27  1  0.86534000  0.45775000  0.81229000  1.0 -0.5556665637
O  O28  1  0.64546000  0.05305000  0.18771000  1.0 -0.5556665637
O  O29  1  0.04225000  0.63466000  0.18771000  1.0 -0.5556665637
O  O30  1  0.44695000  0.85454000  0.81229000  1.0 -0.5556665637
O  O31  1  0.63466000  0.44695000  0.59241000  1.0 -0.5556665637
O  O32  1  0.85454000  0.04225000  0.40759000  1.0 -0.5556665637
O  O33  1  0.30290000  0.17527000  0.37251000  1.0 -0.6301014724
O  O34  1  0.80276000  0.93039000  0.62749000  1.0 -0.6301014724
O  O35  1  0.93039000  0.30290000  0.12763000  1.0 -0.6301014724
O  O36  1  0.17527000  0.80276000  0.87237000  1.0 -0.6301014724
O  O37  1  0.19710000  0.56961000  0.87237000  1.0 -0.6301014724
O  O38  1  0.69724000  0.32473000  0.12763000  1.0 -0.6301014724
O  O39  1  0.56961000  0.69724000  0.37251000  1.0 -0.6301014724
O  O40  1  0.32473000  0.19710000  0.62749000  1.0 -0.6301014724
O  O41  1  0.69710000  0.82473000  0.62749000  1.0 -0.6301014724
O  O42  1  0.19724000  0.06961000  0.37251000  1.0 -0.6301014724
O  O43  1  0.06961000  0.69710000  0.87237000  1.0 -0.6301014724
O  O44  1  0.82473000  0.19724000  0.12763000  1.0 -0.6301014724
O  O45  1  0.80290000  0.43039000  0.12763000  1.0 -0.6301014724
O  O46  1  0.30276000  0.67527000  0.87237000  1.0 -0.6301014724
O  O47  1  0.43039000  0.30276000  0.62749000  1.0 -0.6301014724
O  O48  1  0.67527000  0.80290000  0.37251000  1.0 -0.6301014724
O  O49  1  0.25966000  0.12411000  0.28619000  1.0 -0.5398201399
O  O50  1  0.83792000  0.97347000  0.71381000  1.0 -0.5398201399
O  O51  1  0.97347000  0.25966000  0.13555000  1.0 -0.5398201399
O  O52  1  0.12411000  0.83792000  0.86445000  1.0 -0.5398201399
O  O53  1  0.24034000  0.52653000  0.86445000  1.0 -0.5398201399
O  O54  1  0.66208000  0.37589000  0.13555000  1.0 -0.5398201399
O  O55  1  0.52653000  0.66208000  0.28619000  1.0 -0.5398201399
O  O56  1  0.37589000  0.24034000  0.71381000  1.0 -0.5398201399
O  O57  1  0.74034000  0.87589000  0.71381000  1.0 -0.5398201399
O  O58  1  0.16208000  0.02653000  0.28619000  1.0 -0.5398201399
O  O59  1  0.02653000  0.74034000  0.86445000  1.0 -0.5398201399
O  O60  1  0.87589000  0.16208000  0.13555000  1.0 -0.5398201399
O  O61  1  0.75966000  0.47347000  0.13555000  1.0 -0.5398201399
O  O62  1  0.33792000  0.62411000  0.86445000  1.0 -0.5398201399
O  O63  1  0.47347000  0.33792000  0.71381000  1.0 -0.5398201399
O  O64  1  0.62411000  0.75966000  0.28619000  1.0 -0.5398201399
O  O65  1  0.39416000  0.95079000  0.97833000  1.0 -0.6301014724
O  O66  1  0.97246000  0.41583000  0.02167000  1.0 -0.6301014724
O  O67  1  0.41583000  0.39416000  0.44337000  1.0 -0.6301014724
O  O68  1  0.95079000  0.97246000  0.55663000  1.0 -0.6301014724
O  O69  1  0.10584000  0.08417000  0.55663000  1.0 -0.6301014724
O  O70  1  0.52754000  0.54921000  0.44337000  1.0 -0.6301014724
O  O71  1  0.08417000  0.52754000  0.97833000  1.0 -0.6301014724
O  O72  1  0.54921000  0.10584000  0.02167000  1.0 -0.6301014724
O  O73  1  0.60584000  0.04921000  0.02167000  1.0 -0.6301014724
O  O74  1  0.02754000  0.58417000  0.97833000  1.0 -0.6301014724
O  O75  1  0.58417000  0.60584000  0.55663000  1.0 -0.6301014724
O  O76  1  0.04921000  0.02754000  0.44337000  1.0 -0.6301014724
O  O77  1  0.89416000  0.91583000  0.44337000  1.0 -0.6301014724
O  O78  1  0.47246000  0.45079000  0.55663000  1.0 -0.6301014724
O  O79  1  0.91583000  0.47246000  0.02167000  1.0 -0.6301014724
O  O80  1  0.45079000  0.89416000  0.97833000  1.0 -0.6301014724
O  O81  1  0.47028000  0.02820000  0.04748000  1.0 -0.7188354783
O  O82  1  0.98072000  0.42280000  0.95252000  1.0 -0.7188354783
O  O83  1  0.42280000  0.47028000  0.44208000  1.0 -0.7188354783
O  O84  1  0.02820000  0.98072000  0.55792000  1.0 -0.7188354783
O  O85  1  0.02972000  0.07720000  0.55792000  1.0 -0.7188354783
O  O86  1  0.51928000  0.47180000  0.44208000  1.0 -0.7188354783
O  O87  1  0.07720000  0.51928000  0.04748000  1.0 -0.7188354783
O  O88  1  0.47180000  0.02972000  0.95252000  1.0 -0.7188354783
O  O89  1  0.52972000  0.97180000  0.95252000  1.0 -0.7188354783
O  O90  1  0.01928000  0.57720000  0.04748000  1.0 -0.7188354783
O  O91  1  0.57720000  0.52972000  0.55792000  1.0 -0.7188354783
O  O92  1  0.97180000  0.01928000  0.44208000  1.0 -0.7188354783
O  O93  1  0.97028000  0.92280000  0.44208000  1.0 -0.7188354783
O  O94  1  0.48072000  0.52820000  0.55792000  1.0 -0.7188354783
O  O95  1  0.92280000  0.48072000  0.95252000  1.0 -0.7188354783
O  O96  1  0.52820000  0.97028000  0.04748000  1.0 -0.7188354783
O  O97  1  0.21166000  0.88172000  0.98380000  1.0 -0.6394179442
O  O98  1  0.89792000  0.22786000  0.01620000  1.0 -0.6394179442
O  O99  1  0.22786000  0.21166000  0.32994000  1.0 -0.6394179442
O  O100  1  0.88172000  0.89792000  0.67006000  1.0 -0.6394179442
O  O101  1  0.28834000  0.27214000  0.67006000  1.0 -0.6394179442
O  O102  1  0.60208000  0.61828000  0.32994000  1.0 -0.6394179442
O  O103  1  0.27214000  0.60208000  0.98380000  1.0 -0.6394179442
O  O104  1  0.61828000  0.28834000  0.01620000  1.0 -0.6394179442
O  O105  1  0.78834000  0.11828000  0.01620000  1.0 -0.6394179442
O  O106  1  0.10208000  0.77214000  0.98380000  1.0 -0.6394179442
O  O107  1  0.77214000  0.78834000  0.67006000  1.0 -0.6394179442
O  O108  1  0.11828000  0.10208000  0.32994000  1.0 -0.6394179442
O  O109  1  0.71166000  0.72786000  0.32994000  1.0 -0.6394179442
O  O110  1  0.39792000  0.38172000  0.67006000  1.0 -0.6394179442
O  O111  1  0.72786000  0.39792000  0.01620000  1.0 -0.6394179442
O  O112  1  0.38172000  0.71166000  0.98380000  1.0 -0.6394179442
O  O113  1  0.20930000  0.93508000  0.04998000  1.0 -0.6301014724
O  O114  1  0.88510000  0.15932000  0.95002000  1.0 -0.6301014724
O  O115  1  0.15932000  0.20930000  0.27422000  1.0 -0.6301014724
O  O116  1  0.93508000  0.88510000  0.72578000  1.0 -0.6301014724
O  O117  1  0.29070000  0.34068000  0.72578000  1.0 -0.6301014724
O  O118  1  0.61490000  0.56492000  0.27422000  1.0 -0.6301014724
O  O119  1  0.34068000  0.61490000  0.04998000  1.0 -0.6301014724
O  O120  1  0.56492000  0.29070000  0.95002000  1.0 -0.6301014724
O  O121  1  0.79070000  0.06492000  0.95002000  1.0 -0.6301014724
O  O122  1  0.11490000  0.84068000  0.04998000  1.0 -0.6301014724
O  O123  1  0.84068000  0.79070000  0.72578000  1.0 -0.6301014724
O  O124  1  0.06492000  0.11490000  0.27422000  1.0 -0.6301014724
O  O125  1  0.70930000  0.65932000  0.27422000  1.0 -0.6301014724
O  O126  1  0.38510000  0.43508000  0.72578000  1.0 -0.6301014724
O  O127  1  0.65932000  0.38510000  0.95002000  1.0 -0.6301014724
O  O128  1  0.43508000  0.70930000  0.04998000  1.0 -0.6301014724
O  O129  1  0.14340000  0.09790000  0.24130000  1.0 -0.7821397909
O  O130  1  0.85660000  0.90210000  0.75870000  1.0 -0.7821397909
O  O131  1  0.90210000  0.14340000  0.04550000  1.0 -0.7821397909
O  O132  1  0.09790000  0.85660000  0.95450000  1.0 -0.7821397909
O  O133  1  0.35660000  0.59790000  0.95450000  1.0 -0.7821397909
O  O134  1  0.64340000  0.40210000  0.04550000  1.0 -0.7821397909
O  O135  1  0.59790000  0.64340000  0.24130000  1.0 -0.7821397909
O  O136  1  0.40210000  0.35660000  0.75870000  1.0 -0.7821397909
O  O137  1  0.04500000  0.18020000  0.22520000  1.0 -0.5398201399
O  O138  1  0.95500000  0.81980000  0.77480000  1.0 -0.5398201399
O  O139  1  0.81980000  0.04500000  0.86480000  1.0 -0.5398201399
O  O140  1  0.18020000  0.95500000  0.13520000  1.0 -0.5398201399
O  O141  1  0.45500000  0.68020000  0.13520000  1.0 -0.5398201399
O  O142  1  0.54500000  0.31980000  0.86480000  1.0 -0.5398201399
O  O143  1  0.68020000  0.54500000  0.22520000  1.0 -0.5398201399
O  O144  1  0.31980000  0.45500000  0.77480000  1.0 -0.5398201399
O  O145  1  0.98870000  0.06370000  0.12920000  1.0 0.0032326899
O  O146  1  0.93450000  0.85950000  0.87080000  1.0 0.0032326899
O  O147  1  0.85950000  0.98870000  0.92500000  1.0 0.0032326899
O  O148  1  0.06370000  0.93450000  0.07500000  1.0 0.0032326899
O  O149  1  0.51130000  0.64050000  0.07500000  1.0 0.0032326899
O  O150  1  0.56550000  0.43630000  0.92500000  1.0 0.0032326899
O  O151  1  0.64050000  0.56550000  0.12920000  1.0 0.0032326899
O  O152  1  0.43630000  0.51130000  0.87080000  1.0 0.0032326899
O  O153  1  0.01130000  0.93630000  0.87080000  1.0 0.0032326899
O  O154  1  0.06550000  0.14050000  0.12920000  1.0 0.0032326899
O  O155  1  0.14050000  0.01130000  0.07500000  1.0 0.0127074815
O  O156  1  0.93630000  0.06550000  0.92500000  1.0 0.0032326899
O  O157  1  0.48870000  0.35950000  0.92500000  1.0 0.0032326899
O  O158  1  0.43450000  0.56370000  0.07500000  1.0 0.0032326899
O  O159  1  0.35950000  0.43450000  0.87080000  1.0 0.0032326899
O  O160  1  0.56370000  0.48870000  0.12920000  1.0 0.0032326899
O  O161  1  0.97790000  0.07120000  0.16270000  1.0 -0.0613055948
O  O162  1  0.90850000  0.81520000  0.83730000  1.0 -0.0613055948
O  O163  1  0.81520000  0.97790000  0.90670000  1.0 -0.0613055948
O  O164  1  0.07120000  0.90850000  0.09330000  1.0 -0.0613055948
O  O165  1  0.52210000  0.68480000  0.09330000  1.0 -0.0613055948
O  O166  1  0.59150000  0.42880000  0.90670000  1.0 -0.0613055948
O  O167  1  0.68480000  0.59150000  0.16270000  1.0 -0.0613055948
O  O168  1  0.42880000  0.52210000  0.83730000  1.0 -0.0613055948
O  O169  1  0.02210000  0.92880000  0.83730000  1.0 -0.0613055948
O  O170  1  0.09150000  0.18480000  0.16270000  1.0 -0.0613055948
O  O171  1  0.18480000  0.02210000  0.09330000  1.0 -0.0613055948
O  O172  1  0.92880000  0.09150000  0.90670000  1.0 -0.0613055948
O  O173  1  0.47790000  0.31520000  0.90670000  1.0 -0.0613055948
O  O174  1  0.40850000  0.57120000  0.09330000  1.0 -0.0613055948
O  O175  1  0.31520000  0.40850000  0.83730000  1.0 -0.0613055948
O  O176  1  0.57120000  0.47790000  0.16270000  1.0 -0.0613055948
