# DDEC6 charges by PACMAN v1.1 (https://github.com/mtap-research/PACMAN-charge/)
data_PARHAS_ASR_pacman
_symmetry_space_group_name_H-M   'P 1'
_cell_length_a   7.77900000
_cell_length_b   15.33900000
_cell_length_c   14.85500000
_cell_angle_alpha   90.00000000
_cell_angle_beta   98.63100000
_cell_angle_gamma   90.00000000
_symmetry_Int_Tables_number   1
_chemical_formula_structural   CaH8(C3O2)2
_chemical_formula_sum   'Ca4 H32 C24 O16'
_cell_volume   1752.45620131
_cell_formula_units_Z   4
loop_
 _symmetry_equiv_pos_site_id
 _symmetry_equiv_pos_as_xyz
  1  'x, y, z'
loop_
 _atom_site_type_symbol
 _atom_site_label
 _atom_site_symmetry_multiplicity
 _atom_site_fract_x
 _atom_site_fract_y
 _atom_site_fract_z
 _atom_site_occupancy
 _atom_site_charge
Ca  Ca1  1  0.54889000  0.71929000  0.22053000  1.0 1.3719403804
Ca  Ca2  1  0.95111000  0.21929000  0.77947000  1.0 1.3719403804
Ca  Ca3  1  0.45111000  0.28071000  0.77947000  1.0 1.3719403804
Ca  Ca4  1  0.04889000  0.78071000  0.22053000  1.0 1.3719403804
H  H1  1  0.77250000  0.94670000  0.04290000  1.0 0.1108177961
H  H2  1  0.72750000  0.44670000  0.95710000  1.0 0.1108177961
H  H3  1  0.22750000  0.05330000  0.95710000  1.0 0.1108177961
H  H4  1  0.27250000  0.55330000  0.04290000  1.0 0.1108177961
H  H5  1  0.76170000  0.98590000  0.13900000  1.0 0.1108177961
H  H6  1  0.73830000  0.48590000  0.86100000  1.0 0.1108177961
H  H7  1  0.23830000  0.01410000  0.86100000  1.0 0.1108177961
H  H8  1  0.26170000  0.51410000  0.13900000  1.0 0.1108177961
H  H9  1  0.53870000  0.98250000  0.91220000  1.0 0.0785475
H  H10  1  0.96130000  0.48250000  0.08780000  1.0 0.0785475
H  H11  1  0.46130000  0.01750000  0.08780000  1.0 0.0785475
H  H12  1  0.03870000  0.51750000  0.91220000  1.0 0.0785475
H  H13  1  0.40890000  0.92720000  0.95960000  1.0 0.0785475
H  H14  1  0.09110000  0.42720000  0.04040000  1.0 0.0785475
H  H15  1  0.59110000  0.07280000  0.04040000  1.0 0.0785475
H  H16  1  0.90890000  0.57280000  0.95960000  1.0 0.0785475
H  H17  1  0.30040000  0.95830000  0.37890000  1.0 0.1108177961
H  H18  1  0.19960000  0.45830000  0.62110000  1.0 0.1108177961
H  H19  1  0.69960000  0.04170000  0.62110000  1.0 0.1108177961
H  H20  1  0.80040000  0.54170000  0.37890000  1.0 0.1108177961
H  H21  1  0.46170000  0.99890000  0.34290000  1.0 0.1108177961
H  H22  1  0.03830000  0.49890000  0.65710000  1.0 0.1108177961
H  H23  1  0.53830000  0.00110000  0.65710000  1.0 0.1108177961
H  H24  1  0.96170000  0.50110000  0.34290000  1.0 0.1108177961
H  H25  1  0.48640000  0.90870000  0.51110000  1.0 0.0785475
H  H26  1  0.01360000  0.40870000  0.48890000  1.0 0.0785475
H  H27  1  0.51360000  0.09130000  0.48890000  1.0 0.0785475
H  H28  1  0.98640000  0.59130000  0.51110000  1.0 0.0785475
H  H29  1  0.64380000  0.95400000  0.47550000  1.0 0.0900766687
H  H30  1  0.85620000  0.45400000  0.52450000  1.0 0.0900766687
H  H31  1  0.35620000  0.04600000  0.52450000  1.0 0.0900766687
H  H32  1  0.14380000  0.54600000  0.47550000  1.0 0.0900766687
C  C1  1  0.64660000  0.86813000  0.12021000  1.0 0.6322163106
C  C2  1  0.85340000  0.36813000  0.87979000  1.0 0.6322163106
C  C3  1  0.35340000  0.13187000  0.87979000  1.0 0.6322163106
C  C4  1  0.14660000  0.63187000  0.12021000  1.0 0.6322163106
C  C5  1  0.69570000  0.95540000  0.08792000  1.0 -0.3143846183
C  C6  1  0.80430000  0.45540000  0.91208000  1.0 -0.3143846183
C  C7  1  0.30430000  0.04460000  0.91208000  1.0 -0.3143846183
C  C8  1  0.19570000  0.54460000  0.08792000  1.0 -0.3143846183
C  C9  1  0.54600000  0.01448000  0.04619000  1.0 -0.1441239021
C  C10  1  0.95400000  0.51448000  0.95381000  1.0 -0.1441239021
C  C11  1  0.45400000  0.98552000  0.95381000  1.0 -0.1441239021
C  C12  1  0.04600000  0.48552000  0.04619000  1.0 -0.1441239021
C  C13  1  0.45410000  0.86628000  0.33156000  1.0 0.6322163106
C  C14  1  0.04590000  0.36628000  0.66844000  1.0 0.6322163106
C  C15  1  0.54590000  0.13372000  0.66844000  1.0 0.6322163106
C  C16  1  0.95410000  0.63372000  0.33156000  1.0 0.6322163106
C  C17  1  0.42410000  0.95130000  0.37821000  1.0 -0.3223052933
C  C18  1  0.07590000  0.45130000  0.62179000  1.0 -0.3223052933
C  C19  1  0.57590000  0.04870000  0.62179000  1.0 -0.3223052933
C  C20  1  0.92410000  0.54870000  0.37821000  1.0 -0.3223052933
C  C21  1  0.51960000  0.95780000  0.47632000  1.0 -0.1504345662
C  C22  1  0.98040000  0.45780000  0.52368000  1.0 -0.1504345662
C  C23  1  0.48040000  0.04220000  0.52368000  1.0 -0.1504345662
C  C24  1  0.01960000  0.54220000  0.47632000  1.0 -0.1504345662
O  O1  1  0.76640000  0.81530000  0.15002000  1.0 -0.6764406948
O  O2  1  0.73360000  0.31530000  0.84998000  1.0 -0.6764406948
O  O3  1  0.23360000  0.18470000  0.84998000  1.0 -0.6764406948
O  O4  1  0.26640000  0.68470000  0.15002000  1.0 -0.6764406948
O  O5  1  0.48930000  0.84772000  0.11907000  1.0 -0.5554924546
O  O6  1  0.01070000  0.34772000  0.88093000  1.0 -0.5554924546
O  O7  1  0.51070000  0.15228000  0.88093000  1.0 -0.5554924546
O  O8  1  0.98930000  0.65228000  0.11907000  1.0 -0.5548685132
O  O9  1  0.60910000  0.84180000  0.33040000  1.0 -0.5792500614
O  O10  1  0.89090000  0.34180000  0.66960000  1.0 -0.5792500614
O  O11  1  0.39090000  0.15820000  0.66960000  1.0 -0.5792500614
O  O12  1  0.10910000  0.65820000  0.33040000  1.0 -0.5792500614
O  O13  1  0.32740000  0.82138000  0.29559000  1.0 -0.6630877494
O  O14  1  0.17260000  0.32138000  0.70441000  1.0 -0.6630877494
O  O15  1  0.67260000  0.17862000  0.70441000  1.0 -0.6630877494
O  O16  1  0.82740000  0.67862000  0.29559000  1.0 -0.6630877494
