# DDEC6 charges by PACMAN v1.1 (https://github.com/mtap-research/PACMAN-charge/)
data_PARNIH_ASR_pacman
_symmetry_space_group_name_H-M   'P 1'
_cell_length_a   16.15440000
_cell_length_b   16.15440000
_cell_length_c   21.81990000
_cell_angle_alpha   84.60070000
_cell_angle_beta   95.39930000
_cell_angle_gamma   119.51800000
_symmetry_Int_Tables_number   1
_chemical_formula_structural   CuH9C14O5
_chemical_formula_sum   'Cu8 H72 C112 O40'
_cell_volume   4925.63822406
_cell_formula_units_Z   8
loop_
 _symmetry_equiv_pos_site_id
 _symmetry_equiv_pos_as_xyz
  1  'x, y, z'
loop_
 _atom_site_type_symbol
 _atom_site_label
 _atom_site_symmetry_multiplicity
 _atom_site_fract_x
 _atom_site_fract_y
 _atom_site_fract_z
 _atom_site_occupancy
 _atom_site_charge
Cu  Cu1  1  0.49445000  0.51023000  0.18678000  1.0 0.8336954302
Cu  Cu2  1  0.51023000  0.49445000  0.31322000  1.0 0.8336954302
Cu  Cu3  1  0.50555000  0.48977000  0.81322000  1.0 0.8336954302
Cu  Cu4  1  0.48977000  0.50555000  0.68678000  1.0 0.8336954302
Cu  Cu5  1  0.46042000  0.05878000  0.49488000  1.0 0.8672307915
Cu  Cu6  1  0.05878000  0.46042000  0.00512000  1.0 0.8672307915
Cu  Cu7  1  0.53958000  0.94122000  0.50512000  1.0 0.8672307915
Cu  Cu8  1  0.94122000  0.53958000  0.99488000  1.0 0.8672307915
H  H1  1  0.73410000  0.35190000  0.13350000  1.0 0.1094391755
H  H2  1  0.35190000  0.73410000  0.36650000  1.0 0.1094391755
H  H3  1  0.26590000  0.64810000  0.86650000  1.0 0.1094391755
H  H4  1  0.64810000  0.26590000  0.63350000  1.0 0.1094391755
H  H5  1  0.65950000  0.28590000  0.36720000  1.0 0.1190802331
H  H6  1  0.28590000  0.65950000  0.13280000  1.0 0.1190802331
H  H7  1  0.34050000  0.71410000  0.63280000  1.0 0.1190802331
H  H8  1  0.71410000  0.34050000  0.86720000  1.0 0.1190802331
H  H9  1  0.80480000  0.10340000  0.21120000  1.0 0.1297202724
H  H10  1  0.10340000  0.80480000  0.28880000  1.0 0.1297202724
H  H11  1  0.19520000  0.89660000  0.78880000  1.0 0.1297202724
H  H12  1  0.89660000  0.19520000  0.71120000  1.0 0.1297202724
H  H13  1  0.19520000  0.46360000  0.17850000  1.0 0.1297202724
H  H14  1  0.46360000  0.19520000  0.32150000  1.0 0.1297202724
H  H15  1  0.80480000  0.53640000  0.82150000  1.0 0.1297202724
H  H16  1  0.53640000  0.80480000  0.67850000  1.0 0.1297202724
H  H17  1  0.03870000  0.43690000  0.18600000  1.0 0.1425181822
H  H18  1  0.43690000  0.03870000  0.31400000  1.0 0.1425181822
H  H19  1  0.96130000  0.56310000  0.81400000  1.0 0.1425181822
H  H20  1  0.56310000  0.96130000  0.68600000  1.0 0.1425181822
H  H21  1  0.54990000  0.79170000  0.34540000  1.0 0.1190802331
H  H22  1  0.79170000  0.54990000  0.15460000  1.0 0.1190802331
H  H23  1  0.45010000  0.20830000  0.65460000  1.0 0.1190802331
H  H24  1  0.20830000  0.45010000  0.84540000  1.0 0.1190802331
H  H25  1  0.59570000  0.81330000  0.16060000  1.0 0.1297202724
H  H26  1  0.81330000  0.59570000  0.33940000  1.0 0.1297202724
H  H27  1  0.40430000  0.18670000  0.83940000  1.0 0.1297202724
H  H28  1  0.18670000  0.40430000  0.66060000  1.0 0.1297202724
H  H29  1  0.21910000  0.41510000  0.36620000  1.0 0.1190802331
H  H30  1  0.41510000  0.21910000  0.13380000  1.0 0.1190802331
H  H31  1  0.78090000  0.58490000  0.63380000  1.0 0.1190802331
H  H32  1  0.58490000  0.78090000  0.86620000  1.0 0.1190802331
H  H33  1  0.91640000  0.23680000  0.14950000  1.0 0.1190802331
H  H34  1  0.23680000  0.91640000  0.35050000  1.0 0.1190802331
H  H35  1  0.08360000  0.76320000  0.85050000  1.0 0.1190802331
H  H36  1  0.76320000  0.08360000  0.64950000  1.0 0.1190802331
H  H37  1  0.79670000  0.40650000  0.31310000  1.0 0.1297202724
H  H38  1  0.40650000  0.79670000  0.18690000  1.0 0.1297202724
H  H39  1  0.20330000  0.59350000  0.68690000  1.0 0.1297202724
H  H40  1  0.59350000  0.20330000  0.81310000  1.0 0.1297202724
H  H41  1  0.06160000  0.38220000  0.37480000  1.0 0.1425181822
H  H42  1  0.38220000  0.06160000  0.12520000  1.0 0.1425181822
H  H43  1  0.93840000  0.61780000  0.62520000  1.0 0.1425181822
H  H44  1  0.61780000  0.93840000  0.87480000  1.0 0.1425181822
H  H45  1  0.60270000  0.95870000  0.34140000  1.0 0.1513110435
H  H46  1  0.95870000  0.60270000  0.15860000  1.0 0.1513110435
H  H47  1  0.39730000  0.04130000  0.65860000  1.0 0.1513110435
H  H48  1  0.04130000  0.39730000  0.84140000  1.0 0.1513110435
H  H49  1  0.78830000  0.11690000  0.39460000  1.0 0.1190802331
H  H50  1  0.11690000  0.78830000  0.10540000  1.0 0.1190802331
H  H51  1  0.21170000  0.88310000  0.60540000  1.0 0.1190802331
H  H52  1  0.88310000  0.21170000  0.89460000  1.0 0.1190802331
H  H53  1  0.91740000  0.23080000  0.33360000  1.0 0.1297202724
H  H54  1  0.23080000  0.91740000  0.16640000  1.0 0.1297202724
H  H55  1  0.08260000  0.76920000  0.66640000  1.0 0.1297202724
H  H56  1  0.76920000  0.08260000  0.83360000  1.0 0.1297202724
H  H57  1  0.65160000  0.97980000  0.15810000  1.0 0.1297202724
H  H58  1  0.97980000  0.65160000  0.34190000  1.0 0.1297202724
H  H59  1  0.34840000  0.02020000  0.84190000  1.0 0.1297202724
H  H60  1  0.02020000  0.34840000  0.65810000  1.0 0.1297202724
H  H61  1  0.53860000  0.64160000  0.29100000  1.0 0.0620458106
H  H62  1  0.64160000  0.53860000  0.20900000  1.0 0.0620458106
H  H63  1  0.46140000  0.35840000  0.70900000  1.0 0.0620458106
H  H64  1  0.35840000  0.46140000  0.79100000  1.0 0.0620458106
H  H65  1  0.67550000  0.25010000  0.22420000  1.0 0.1425181822
H  H66  1  0.25010000  0.67550000  0.27580000  1.0 0.1425181822
H  H67  1  0.32450000  0.74990000  0.77580000  1.0 0.1425181822
H  H68  1  0.74990000  0.32450000  0.72420000  1.0 0.1425181822
H  H69  1  0.62190000  0.19290000  0.16720000  1.0 0.1425181822
H  H70  1  0.19290000  0.62190000  0.33280000  1.0 0.1425181822
H  H71  1  0.37810000  0.80710000  0.83280000  1.0 0.1425181822
H  H72  1  0.80710000  0.37810000  0.66720000  1.0 0.1425181822
C  C1  1  0.57560000  0.78620000  0.25280000  1.0 0.0055643082
C  C2  1  0.78620000  0.57560000  0.24720000  1.0 0.0055643082
C  C3  1  0.42440000  0.21380000  0.74720000  1.0 0.0055643082
C  C4  1  0.21380000  0.42440000  0.75280000  1.0 0.0055643082
C  C5  1  0.54900000  0.68120000  0.25350000  1.0 0.3732866085
C  C6  1  0.68120000  0.54900000  0.24650000  1.0 0.3732866085
C  C7  1  0.45100000  0.31880000  0.74650000  1.0 0.3732866085
C  C8  1  0.31880000  0.45100000  0.75350000  1.0 0.3732866085
C  C9  1  0.22290000  0.44030000  0.27250000  1.0 -0.0322673672
C  C10  1  0.44030000  0.22290000  0.22750000  1.0 -0.0322673672
C  C11  1  0.77710000  0.55970000  0.72750000  1.0 -0.0322673672
C  C12  1  0.55970000  0.77710000  0.77250000  1.0 -0.0322673672
C  C13  1  0.74700000  0.30120000  0.14890000  1.0 -0.0385005136
C  C14  1  0.30120000  0.74700000  0.35110000  1.0 -0.0385005136
C  C15  1  0.25300000  0.69880000  0.85110000  1.0 -0.0385005136
C  C16  1  0.69880000  0.25300000  0.64890000  1.0 -0.0385005136
C  C17  1  0.62860000  0.11740000  0.42630000  1.0 0.5771606111
C  C18  1  0.11740000  0.62860000  0.07370000  1.0 0.5771606111
C  C19  1  0.37140000  0.88260000  0.57370000  1.0 0.5771606111
C  C20  1  0.88260000  0.37140000  0.92630000  1.0 0.5771606111
C  C21  1  0.68240000  0.22340000  0.18880000  1.0 -0.3071810344
C  C22  1  0.22340000  0.68240000  0.31120000  1.0 -0.3071810344
C  C23  1  0.31760000  0.77660000  0.81120000  1.0 -0.3071810344
C  C24  1  0.77660000  0.31760000  0.68880000  1.0 -0.3071810344
C  C25  1  0.71230000  0.27590000  0.36240000  1.0 -0.0789468454
C  C26  1  0.27590000  0.71230000  0.13760000  1.0 -0.0789468454
C  C27  1  0.28770000  0.72410000  0.63760000  1.0 -0.0789468454
C  C28  1  0.72410000  0.28770000  0.86240000  1.0 -0.0789468454
C  C29  1  0.62320000  0.98180000  0.25140000  1.0 0.2595903015
C  C30  1  0.98180000  0.62320000  0.24860000  1.0 0.2595903015
C  C31  1  0.37680000  0.01820000  0.74860000  1.0 0.2595903015
C  C32  1  0.01820000  0.37680000  0.75140000  1.0 0.2595903015
C  C33  1  0.83080000  0.30420000  0.13160000  1.0 -0.0385005136
C  C34  1  0.30420000  0.83080000  0.36840000  1.0 -0.0385005136
C  C35  1  0.16920000  0.69580000  0.86840000  1.0 -0.0385005136
C  C36  1  0.69580000  0.16920000  0.63160000  1.0 -0.0385005136
C  C37  1  0.79220000  0.15440000  0.19580000  1.0 -0.2517870163
C  C38  1  0.15440000  0.79220000  0.30420000  1.0 -0.2517870163
C  C39  1  0.20780000  0.84560000  0.80420000  1.0 -0.2517870163
C  C40  1  0.84560000  0.20780000  0.69580000  1.0 -0.2517870163
C  C41  1  0.70640000  0.15100000  0.21040000  1.0 0.3128908164
C  C42  1  0.15100000  0.70640000  0.28960000  1.0 0.3128908164
C  C43  1  0.29360000  0.84900000  0.78960000  1.0 0.3128908164
C  C44  1  0.84900000  0.29360000  0.71040000  1.0 0.3128908164
C  C45  1  0.70980000  0.18820000  0.38740000  1.0 -0.0322673672
C  C46  1  0.18820000  0.70980000  0.11260000  1.0 -0.0322673672
C  C47  1  0.29020000  0.81180000  0.61260000  1.0 -0.0322673672
C  C48  1  0.81180000  0.29020000  0.88740000  1.0 -0.0322673672
C  C49  1  0.16770000  0.44730000  0.21810000  1.0 -0.087335316
C  C50  1  0.44730000  0.16770000  0.28190000  1.0 -0.087335316
C  C51  1  0.83230000  0.55270000  0.78190000  1.0 -0.087335316
C  C52  1  0.55270000  0.83230000  0.71810000  1.0 -0.087335316
C  C53  1  0.07470000  0.43130000  0.22200000  1.0 -0.1915834622
C  C54  1  0.43130000  0.07470000  0.27800000  1.0 -0.1915834622
C  C55  1  0.92530000  0.56870000  0.77800000  1.0 -0.1915834622
C  C56  1  0.56870000  0.92530000  0.72200000  1.0 -0.1915834622
C  C57  1  0.57150000  0.83010000  0.30760000  1.0 -0.087335316
C  C58  1  0.83010000  0.57150000  0.19240000  1.0 -0.087335316
C  C59  1  0.42850000  0.16990000  0.69240000  1.0 -0.087335316
C  C60  1  0.16990000  0.42850000  0.80760000  1.0 -0.087335316
C  C61  1  0.03440000  0.40600000  0.28280000  1.0 0.2774758524
C  C62  1  0.40600000  0.03440000  0.21720000  1.0 0.2774758524
C  C63  1  0.96560000  0.59400000  0.71720000  1.0 0.2774758524
C  C64  1  0.59400000  0.96560000  0.78280000  1.0 0.2774758524
C  C65  1  0.59930000  0.84270000  0.19770000  1.0 -0.096623879
C  C66  1  0.84270000  0.59930000  0.30230000  1.0 -0.096623879
C  C67  1  0.40070000  0.15730000  0.80230000  1.0 -0.096623879
C  C68  1  0.15730000  0.40070000  0.69770000  1.0 -0.096623879
C  C69  1  0.32760000  0.45940000  0.26890000  1.0 0.5771606111
C  C70  1  0.45940000  0.32760000  0.23110000  1.0 0.5729572421
C  C71  1  0.67240000  0.54060000  0.73110000  1.0 0.5771606111
C  C72  1  0.54060000  0.67240000  0.76890000  1.0 0.5771606111
C  C73  1  0.18260000  0.41840000  0.32980000  1.0 -0.087335316
C  C74  1  0.41840000  0.18260000  0.17020000  1.0 -0.087335316
C  C75  1  0.81740000  0.58160000  0.67020000  1.0 -0.087335316
C  C76  1  0.58160000  0.81740000  0.82980000  1.0 -0.087335316
C  C77  1  0.85670000  0.23090000  0.15790000  1.0 -0.0603462487
C  C78  1  0.23090000  0.85670000  0.34210000  1.0 -0.0603462487
C  C79  1  0.14330000  0.76910000  0.84210000  1.0 -0.0603462487
C  C80  1  0.76910000  0.14330000  0.65790000  1.0 -0.0603462487
C  C81  1  0.79380000  0.34720000  0.32910000  1.0 -0.2067742883
C  C82  1  0.34720000  0.79380000  0.17090000  1.0 -0.2067742883
C  C83  1  0.20620000  0.65280000  0.67090000  1.0 -0.2067742883
C  C84  1  0.65280000  0.20620000  0.82910000  1.0 -0.2067742883
C  C85  1  0.87380000  0.33080000  0.32100000  1.0 0.3004411048
C  C86  1  0.33080000  0.87380000  0.17900000  1.0 0.3004411048
C  C87  1  0.12620000  0.66920000  0.67900000  1.0 0.3004411048
C  C88  1  0.66920000  0.12620000  0.82100000  1.0 0.3004411048
C  C89  1  0.89820000  0.38280000  0.08510000  1.0 0.5729572421
C  C90  1  0.38280000  0.89820000  0.41490000  1.0 0.5729572421
C  C91  1  0.10180000  0.61720000  0.91490000  1.0 0.5729572421
C  C92  1  0.61720000  0.10180000  0.58510000  1.0 0.5729572421
C  C93  1  0.08890000  0.39990000  0.33510000  1.0 -0.2357410305
C  C94  1  0.39990000  0.08890000  0.16490000  1.0 -0.2319708257
C  C95  1  0.91110000  0.60010000  0.66490000  1.0 -0.2319708257
C  C96  1  0.60010000  0.91110000  0.83510000  1.0 -0.2357410305
C  C97  1  0.60020000  0.92880000  0.30480000  1.0 -0.2067742883
C  C98  1  0.92880000  0.60020000  0.19520000  1.0 -0.2067742883
C  C99  1  0.39980000  0.07120000  0.69520000  1.0 -0.2067742883
C  C100  1  0.07120000  0.39980000  0.80480000  1.0 -0.2067742883
C  C101  1  0.78880000  0.17440000  0.37720000  1.0 -0.0741728359
C  C102  1  0.17440000  0.78880000  0.12280000  1.0 -0.0789468454
C  C103  1  0.21120000  0.82560000  0.62280000  1.0 -0.0789468454
C  C104  1  0.82560000  0.21120000  0.87720000  1.0 -0.0789468454
C  C105  1  0.86810000  0.24390000  0.34230000  1.0 -0.2517870163
C  C106  1  0.24390000  0.86810000  0.15770000  1.0 -0.2517870163
C  C107  1  0.13190000  0.75610000  0.65770000  1.0 -0.2517870163
C  C108  1  0.75610000  0.13190000  0.84230000  1.0 -0.2517870163
C  C109  1  0.62840000  0.94020000  0.19530000  1.0 -0.2067742883
C  C110  1  0.94020000  0.62840000  0.30470000  1.0 -0.2067742883
C  C111  1  0.37160000  0.05980000  0.80470000  1.0 -0.2067742883
C  C112  1  0.05980000  0.37160000  0.69530000  1.0 -0.2067742883
O  O1  1  0.56300000  0.13900000  0.43520000  1.0 -0.5525183741
O  O2  1  0.13900000  0.56300000  0.06480000  1.0 -0.5525183741
O  O3  1  0.43700000  0.86100000  0.56480000  1.0 -0.5525183741
O  O4  1  0.86100000  0.43700000  0.93520000  1.0 -0.5525183741
O  O5  1  0.63020000  0.03860000  0.44440000  1.0 -0.5646483415
O  O6  1  0.03860000  0.63020000  0.05560000  1.0 -0.565719735
O  O7  1  0.36980000  0.96140000  0.55560000  1.0 -0.565719735
O  O8  1  0.96140000  0.36980000  0.94440000  1.0 -0.5646483415
O  O9  1  0.54080000  0.64800000  0.19990000  1.0 -0.4853555375
O  O10  1  0.64800000  0.54080000  0.30010000  1.0 -0.4849506134
O  O11  1  0.45920000  0.35200000  0.80010000  1.0 -0.4849506134
O  O12  1  0.35200000  0.45920000  0.69990000  1.0 -0.4849506134
O  O13  1  0.53390000  0.63310000  0.30690000  1.0 -0.4514275008
O  O14  1  0.63310000  0.53390000  0.19310000  1.0 -0.4514275008
O  O15  1  0.46610000  0.36690000  0.69310000  1.0 -0.4514275008
O  O16  1  0.36690000  0.46610000  0.80690000  1.0 -0.4514275008
O  O17  1  0.64130000  0.07670000  0.25060000  1.0 -0.2319708257
O  O18  1  0.07670000  0.64130000  0.24940000  1.0 -0.2319708257
O  O19  1  0.35870000  0.92330000  0.74940000  1.0 -0.2319708257
O  O20  1  0.92330000  0.35870000  0.75060000  1.0 -0.2319708257
O  O21  1  0.87210000  0.44590000  0.06470000  1.0 -0.5525183741
O  O22  1  0.44590000  0.87210000  0.43530000  1.0 -0.5525183741
O  O23  1  0.12790000  0.55410000  0.93530000  1.0 -0.5525183741
O  O24  1  0.55410000  0.12790000  0.56470000  1.0 -0.5525183741
O  O25  1  0.97180000  0.37860000  0.07290000  1.0 -0.5525183741
O  O26  1  0.37860000  0.97180000  0.42710000  1.0 -0.5525183741
O  O27  1  0.02820000  0.62140000  0.92710000  1.0 -0.5525183741
O  O28  1  0.62140000  0.02820000  0.57290000  1.0 -0.5525183741
O  O29  1  0.36120000  0.48340000  0.21150000  1.0 -0.5935048276
O  O30  1  0.48340000  0.36120000  0.28850000  1.0 -0.5935048276
O  O31  1  0.63880000  0.51660000  0.78850000  1.0 -0.5935048276
O  O32  1  0.51660000  0.63880000  0.71150000  1.0 -0.5935048276
O  O33  1  0.37250000  0.45110000  0.31450000  1.0 -0.4431629791
O  O34  1  0.45110000  0.37250000  0.18550000  1.0 -0.4514275008
O  O35  1  0.62750000  0.54890000  0.68550000  1.0 -0.4431629791
O  O36  1  0.54890000  0.62750000  0.81450000  1.0 -0.4431629791
O  O37  1  0.94200000  0.40100000  0.28450000  1.0 -0.2193417774
O  O38  1  0.40100000  0.94200000  0.21550000  1.0 -0.2193417774
O  O39  1  0.05800000  0.59900000  0.71550000  1.0 -0.2193417774
O  O40  1  0.59900000  0.05800000  0.78450000  1.0 -0.2193417774
