# DDEC6 charges by PACMAN v1.1 (https://github.com/mtap-research/PACMAN-charge/)
data_PARSEJ_ASR_pacman
_symmetry_space_group_name_H-M   'P 1'
_cell_length_a   19.56150000
_cell_length_b   19.56150000
_cell_length_c   24.30400000
_cell_angle_alpha   90.00000000
_cell_angle_beta   90.00000000
_cell_angle_gamma   90.00000000
_symmetry_Int_Tables_number   1
_chemical_formula_structural   Sr2In3H48C44N4(ClO16)2
_chemical_formula_sum   'Sr8 In12 H192 C176 N16 Cl8 O128'
_cell_volume   9299.98106780
_cell_formula_units_Z   4
loop_
 _symmetry_equiv_pos_site_id
 _symmetry_equiv_pos_as_xyz
  1  'x, y, z'
loop_
 _atom_site_type_symbol
 _atom_site_label
 _atom_site_symmetry_multiplicity
 _atom_site_fract_x
 _atom_site_fract_y
 _atom_site_fract_z
 _atom_site_occupancy
 _atom_site_charge
Sr  Sr1  1  0.33500000  0.16500000  0.06997000  1.0 1.2936090724
Sr  Sr2  1  0.66500000  0.83500000  0.06997000  1.0 1.2936090724
Sr  Sr3  1  0.33500000  0.83500000  0.56997000  1.0 1.2936090724
Sr  Sr4  1  0.66500000  0.16500000  0.56997000  1.0 1.2936090724
Sr  Sr5  1  0.16500000  0.66500000  0.93003000  1.0 1.2936090724
Sr  Sr6  1  0.83500000  0.33500000  0.93003000  1.0 1.2936090724
Sr  Sr7  1  0.16500000  0.33500000  0.43003000  1.0 1.2936090724
Sr  Sr8  1  0.83500000  0.66500000  0.43003000  1.0 1.2936090724
In  In1  1  0.25029000  0.24971000  0.94268000  1.0 1.3891935693
In  In2  1  0.74971000  0.75029000  0.94268000  1.0 1.3891935693
In  In3  1  0.25029000  0.75029000  0.44268000  1.0 1.3891935693
In  In4  1  0.74971000  0.24971000  0.44268000  1.0 1.3891935693
In  In5  1  0.24971000  0.74971000  0.05732000  1.0 1.3891935693
In  In6  1  0.75029000  0.25029000  0.05732000  1.0 1.3891935693
In  In7  1  0.24971000  0.25029000  0.55732000  1.0 1.3891935693
In  In8  1  0.75029000  0.74971000  0.55732000  1.0 1.3891935693
In  In9  1  0.50000000  0.50000000  0.25000000  1.0 1.3448300855
In  In10  1  0.00000000  0.00000000  0.75000000  1.0 1.3448300855
In  In11  1  0.00000000  0.00000000  0.25000000  1.0 1.3453836934
In  In12  1  0.50000000  0.50000000  0.75000000  1.0 1.3448300855
H  H1  1  0.23520000  0.46780000  0.01030000  1.0 0.1200728109
H  H2  1  0.76480000  0.53220000  0.01030000  1.0 0.1200728109
H  H3  1  0.03220000  0.73520000  0.51030000  1.0 0.1200728109
H  H4  1  0.96780000  0.26480000  0.51030000  1.0 0.1200728109
H  H5  1  0.26480000  0.96780000  0.98970000  1.0 0.1200728109
H  H6  1  0.73520000  0.03220000  0.98970000  1.0 0.1200728109
H  H7  1  0.46780000  0.23520000  0.48970000  1.0 0.1200728109
H  H8  1  0.53220000  0.76480000  0.48970000  1.0 0.1200728109
H  H9  1  0.26480000  0.03220000  0.48970000  1.0 0.1200728109
H  H10  1  0.73520000  0.96780000  0.48970000  1.0 0.1200728109
H  H11  1  0.46780000  0.76480000  0.98970000  1.0 0.1200728109
H  H12  1  0.53220000  0.23520000  0.98970000  1.0 0.1200728109
H  H13  1  0.23520000  0.53220000  0.51030000  1.0 0.1200728109
H  H14  1  0.76480000  0.46780000  0.51030000  1.0 0.1200728109
H  H15  1  0.03220000  0.26480000  0.01030000  1.0 0.1200728109
H  H16  1  0.96780000  0.73520000  0.01030000  1.0 0.1200728109
H  H17  1  0.32490000  0.56810000  0.13380000  1.0 0.1486529912
H  H18  1  0.67510000  0.43190000  0.13380000  1.0 0.1486529912
H  H19  1  0.93190000  0.82490000  0.63380000  1.0 0.1486529912
H  H20  1  0.06810000  0.17510000  0.63380000  1.0 0.1486529912
H  H21  1  0.17510000  0.06810000  0.86620000  1.0 0.1486529912
H  H22  1  0.82490000  0.93190000  0.86620000  1.0 0.1486529912
H  H23  1  0.56810000  0.32490000  0.36620000  1.0 0.1486529912
H  H24  1  0.43190000  0.67510000  0.36620000  1.0 0.1486529912
H  H25  1  0.17510000  0.93190000  0.36620000  1.0 0.1486529912
H  H26  1  0.82490000  0.06810000  0.36620000  1.0 0.1486529912
H  H27  1  0.56810000  0.67510000  0.86620000  1.0 0.1486529912
H  H28  1  0.43190000  0.32490000  0.86620000  1.0 0.1486529912
H  H29  1  0.32490000  0.43190000  0.63380000  1.0 0.1486529912
H  H30  1  0.67510000  0.56810000  0.63380000  1.0 0.1486529912
H  H31  1  0.93190000  0.17510000  0.13380000  1.0 0.1486529912
H  H32  1  0.06810000  0.82490000  0.13380000  1.0 0.1486529912
H  H33  1  0.36380000  0.36880000  0.11220000  1.0 0.1107048094
H  H34  1  0.63620000  0.63120000  0.11220000  1.0 0.1107048094
H  H35  1  0.13120000  0.86380000  0.61220000  1.0 0.1107048094
H  H36  1  0.86880000  0.13620000  0.61220000  1.0 0.1107048094
H  H37  1  0.13620000  0.86880000  0.88780000  1.0 0.1107048094
H  H38  1  0.86380000  0.13120000  0.88780000  1.0 0.1107048094
H  H39  1  0.36880000  0.36380000  0.38780000  1.0 0.1107048094
H  H40  1  0.63120000  0.63620000  0.38780000  1.0 0.1107048094
H  H41  1  0.13620000  0.13120000  0.38780000  1.0 0.1107048094
H  H42  1  0.86380000  0.86880000  0.38780000  1.0 0.1107048094
H  H43  1  0.36880000  0.63620000  0.88780000  1.0 0.1107048094
H  H44  1  0.63120000  0.36380000  0.88780000  1.0 0.1107048094
H  H45  1  0.36380000  0.63120000  0.61220000  1.0 0.1107048094
H  H46  1  0.63620000  0.36880000  0.61220000  1.0 0.1107048094
H  H47  1  0.13120000  0.13620000  0.11220000  1.0 0.1107048094
H  H48  1  0.86880000  0.86380000  0.11220000  1.0 0.1107048094
H  H49  1  0.41560000  0.05590000  0.98510000  1.0 0.0710267123
H  H50  1  0.58440000  0.94410000  0.98510000  1.0 0.0710267123
H  H51  1  0.44410000  0.91560000  0.48510000  1.0 0.0710267123
H  H52  1  0.55590000  0.08440000  0.48510000  1.0 0.0710267123
H  H53  1  0.08440000  0.55590000  0.01490000  1.0 0.0710267123
H  H54  1  0.91560000  0.44410000  0.01490000  1.0 0.0710267123
H  H55  1  0.05590000  0.41560000  0.51490000  1.0 0.0710267123
H  H56  1  0.94410000  0.58440000  0.51490000  1.0 0.0710267123
H  H57  1  0.08440000  0.44410000  0.51490000  1.0 0.0710267123
H  H58  1  0.91560000  0.55590000  0.51490000  1.0 0.0710267123
H  H59  1  0.05590000  0.58440000  0.01490000  1.0 0.0710267123
H  H60  1  0.94410000  0.41560000  0.01490000  1.0 0.0710267123
H  H61  1  0.41560000  0.94410000  0.48510000  1.0 0.0710267123
H  H62  1  0.58440000  0.05590000  0.48510000  1.0 0.0710267123
H  H63  1  0.44410000  0.08440000  0.98510000  1.0 0.0710267123
H  H64  1  0.55590000  0.91560000  0.98510000  1.0 0.0710267123
H  H65  1  0.41980000  0.87360000  0.96430000  1.0 0.0710267123
H  H66  1  0.58020000  0.12640000  0.96430000  1.0 0.0710267123
H  H67  1  0.62640000  0.91980000  0.46430000  1.0 0.0710267123
H  H68  1  0.37360000  0.08020000  0.46430000  1.0 0.0710267123
H  H69  1  0.08020000  0.37360000  0.03570000  1.0 0.0710267123
H  H70  1  0.91980000  0.62640000  0.03570000  1.0 0.0710267123
H  H71  1  0.87360000  0.41980000  0.53570000  1.0 0.0710267123
H  H72  1  0.12640000  0.58020000  0.53570000  1.0 0.0710267123
H  H73  1  0.08020000  0.62640000  0.53570000  1.0 0.0710267123
H  H74  1  0.91980000  0.37360000  0.53570000  1.0 0.0710267123
H  H75  1  0.87360000  0.58020000  0.03570000  1.0 0.0710267123
H  H76  1  0.12640000  0.41980000  0.03570000  1.0 0.0710267123
H  H77  1  0.41980000  0.12640000  0.46430000  1.0 0.0710267123
H  H78  1  0.58020000  0.87360000  0.46430000  1.0 0.0710267123
H  H79  1  0.62640000  0.08020000  0.96430000  1.0 0.0710267123
H  H80  1  0.37360000  0.91980000  0.96430000  1.0 0.0710267123
H  H81  1  0.38630000  0.94080000  0.94150000  1.0 0.0477925405
H  H82  1  0.61370000  0.05920000  0.94150000  1.0 0.0477925405
H  H83  1  0.55920000  0.88630000  0.44150000  1.0 0.0477925405
H  H84  1  0.44080000  0.11370000  0.44150000  1.0 0.0477925405
H  H85  1  0.11370000  0.44080000  0.05850000  1.0 0.0477925405
H  H86  1  0.88630000  0.55920000  0.05850000  1.0 0.0477925405
H  H87  1  0.94080000  0.38630000  0.55850000  1.0 0.0477925405
H  H88  1  0.05920000  0.61370000  0.55850000  1.0 0.0477925405
H  H89  1  0.11370000  0.55920000  0.55850000  1.0 0.0477925405
H  H90  1  0.88630000  0.44080000  0.55850000  1.0 0.0477925405
H  H91  1  0.94080000  0.61370000  0.05850000  1.0 0.0477925405
H  H92  1  0.05920000  0.38630000  0.05850000  1.0 0.0477925405
H  H93  1  0.38630000  0.05920000  0.44150000  1.0 0.0477925405
H  H94  1  0.61370000  0.94080000  0.44150000  1.0 0.0477925405
H  H95  1  0.55920000  0.11370000  0.94150000  1.0 0.0477925405
H  H96  1  0.44080000  0.88630000  0.94150000  1.0 0.0477925405
H  H97  1  0.46590000  0.93680000  0.94980000  1.0 0.0768890245
H  H98  1  0.53410000  0.06320000  0.94980000  1.0 0.0768890245
H  H99  1  0.56320000  0.96590000  0.44980000  1.0 0.0768890245
H  H100  1  0.43680000  0.03410000  0.44980000  1.0 0.0768890245
H  H101  1  0.03410000  0.43680000  0.05020000  1.0 0.0768890245
H  H102  1  0.96590000  0.56320000  0.05020000  1.0 0.0768890245
H  H103  1  0.93680000  0.46590000  0.55020000  1.0 0.0768890245
H  H104  1  0.06320000  0.53410000  0.55020000  1.0 0.0768890245
H  H105  1  0.03410000  0.56320000  0.55020000  1.0 0.0768890245
H  H106  1  0.96590000  0.43680000  0.55020000  1.0 0.0768890245
H  H107  1  0.93680000  0.53410000  0.05020000  1.0 0.0768890245
H  H108  1  0.06320000  0.46590000  0.05020000  1.0 0.0768890245
H  H109  1  0.46590000  0.06320000  0.44980000  1.0 0.0768890245
H  H110  1  0.53410000  0.93680000  0.44980000  1.0 0.0768890245
H  H111  1  0.56320000  0.03410000  0.94980000  1.0 0.0768890245
H  H112  1  0.43680000  0.96590000  0.94980000  1.0 0.0768890245
H  H113  1  0.41110000  0.85930000  0.05930000  1.0 0.0943821789
H  H114  1  0.58890000  0.14070000  0.05930000  1.0 0.0943821789
H  H115  1  0.64070000  0.91110000  0.55930000  1.0 0.0943821789
H  H116  1  0.35930000  0.08890000  0.55930000  1.0 0.0943821789
H  H117  1  0.08890000  0.35930000  0.94070000  1.0 0.0943821789
H  H118  1  0.91110000  0.64070000  0.94070000  1.0 0.0943821789
H  H119  1  0.85930000  0.41110000  0.44070000  1.0 0.0943821789
H  H120  1  0.14070000  0.58890000  0.44070000  1.0 0.0943821789
H  H121  1  0.08890000  0.64070000  0.44070000  1.0 0.0943821789
H  H122  1  0.91110000  0.35930000  0.44070000  1.0 0.0943821789
H  H123  1  0.85930000  0.58890000  0.94070000  1.0 0.0943821789
H  H124  1  0.14070000  0.41110000  0.94070000  1.0 0.0943821789
H  H125  1  0.41110000  0.14070000  0.55930000  1.0 0.0943821789
H  H126  1  0.58890000  0.85930000  0.55930000  1.0 0.0943821789
H  H127  1  0.64070000  0.08890000  0.05930000  1.0 0.0943821789
H  H128  1  0.35930000  0.91110000  0.05930000  1.0 0.0943821789
H  H129  1  0.45010000  0.91510000  0.09360000  1.0 0.0710267123
H  H130  1  0.54990000  0.08490000  0.09360000  1.0 0.0710267123
H  H131  1  0.58490000  0.95010000  0.59360000  1.0 0.0710267123
H  H132  1  0.41510000  0.04990000  0.59360000  1.0 0.0710267123
H  H133  1  0.04990000  0.41510000  0.90640000  1.0 0.0710267123
H  H134  1  0.95010000  0.58490000  0.90640000  1.0 0.0710267123
H  H135  1  0.91510000  0.45010000  0.40640000  1.0 0.0710267123
H  H136  1  0.08490000  0.54990000  0.40640000  1.0 0.0710267123
H  H137  1  0.04990000  0.58490000  0.40640000  1.0 0.0710267123
H  H138  1  0.95010000  0.41510000  0.40640000  1.0 0.0710267123
H  H139  1  0.91510000  0.54990000  0.90640000  1.0 0.0710267123
H  H140  1  0.08490000  0.45010000  0.90640000  1.0 0.0710267123
H  H141  1  0.45010000  0.08490000  0.59360000  1.0 0.0710267123
H  H142  1  0.54990000  0.91510000  0.59360000  1.0 0.0710267123
H  H143  1  0.58490000  0.04990000  0.09360000  1.0 0.0710267123
H  H144  1  0.41510000  0.95010000  0.09360000  1.0 0.0710267123
H  H145  1  0.37030000  0.91910000  0.08730000  1.0 0.0477925405
H  H146  1  0.62970000  0.08090000  0.08730000  1.0 0.0477925405
H  H147  1  0.58090000  0.87030000  0.58730000  1.0 0.0477925405
H  H148  1  0.41910000  0.12970000  0.58730000  1.0 0.0477925405
H  H149  1  0.12970000  0.41910000  0.91270000  1.0 0.0477925405
H  H150  1  0.87030000  0.58090000  0.91270000  1.0 0.0477925405
H  H151  1  0.91910000  0.37030000  0.41270000  1.0 0.0477925405
H  H152  1  0.08090000  0.62970000  0.41270000  1.0 0.0477925405
H  H153  1  0.12970000  0.58090000  0.41270000  1.0 0.0477925405
H  H154  1  0.87030000  0.41910000  0.41270000  1.0 0.0477925405
H  H155  1  0.91910000  0.62970000  0.91270000  1.0 0.0477925405
H  H156  1  0.08090000  0.37030000  0.91270000  1.0 0.0477925405
H  H157  1  0.37030000  0.08090000  0.58730000  1.0 0.0477925405
H  H158  1  0.62970000  0.91910000  0.58730000  1.0 0.0477925405
H  H159  1  0.58090000  0.12970000  0.08730000  1.0 0.0477925405
H  H160  1  0.41910000  0.87030000  0.08730000  1.0 0.0477925405
H  H161  1  0.25560000  0.26230000  0.15230000  1.0 0.2337881252
H  H162  1  0.74440000  0.73770000  0.15230000  1.0 0.2337881252
H  H163  1  0.23770000  0.75560000  0.65230000  1.0 0.2337881252
H  H164  1  0.76230000  0.24440000  0.65230000  1.0 0.2337881252
H  H165  1  0.24440000  0.76230000  0.84770000  1.0 0.2337881252
H  H166  1  0.75560000  0.23770000  0.84770000  1.0 0.2337881252
H  H167  1  0.26230000  0.25560000  0.34770000  1.0 0.2337881252
H  H168  1  0.73770000  0.74440000  0.34770000  1.0 0.2337881252
H  H169  1  0.24440000  0.23770000  0.34770000  1.0 0.2337881252
H  H170  1  0.75560000  0.76230000  0.34770000  1.0 0.2337881252
H  H171  1  0.26230000  0.74440000  0.84770000  1.0 0.2337881252
H  H172  1  0.73770000  0.25560000  0.84770000  1.0 0.2337881252
H  H173  1  0.25560000  0.73770000  0.65230000  1.0 0.2337881252
H  H174  1  0.74440000  0.26230000  0.65230000  1.0 0.2337881252
H  H175  1  0.23770000  0.24440000  0.15230000  1.0 0.2337881252
H  H176  1  0.76230000  0.75560000  0.15230000  1.0 0.2337881252
H  H177  1  0.29910000  0.22360000  0.19100000  1.0 0.1889968058
H  H178  1  0.70090000  0.77640000  0.19100000  1.0 0.1889968058
H  H179  1  0.27640000  0.79910000  0.69100000  1.0 0.1889968058
H  H180  1  0.72360000  0.20090000  0.69100000  1.0 0.1889968058
H  H181  1  0.20090000  0.72360000  0.80900000  1.0 0.1889968058
H  H182  1  0.79910000  0.27640000  0.80900000  1.0 0.1889968058
H  H183  1  0.22360000  0.29910000  0.30900000  1.0 0.1889968058
H  H184  1  0.77640000  0.70090000  0.30900000  1.0 0.1889968058
H  H185  1  0.20090000  0.27640000  0.30900000  1.0 0.1889968058
H  H186  1  0.79910000  0.72360000  0.30900000  1.0 0.1889968058
H  H187  1  0.22360000  0.70090000  0.80900000  1.0 0.1889968058
H  H188  1  0.77640000  0.29910000  0.80900000  1.0 0.1889968058
H  H189  1  0.29910000  0.77640000  0.69100000  1.0 0.1889968058
H  H190  1  0.70090000  0.22360000  0.69100000  1.0 0.1889968058
H  H191  1  0.27640000  0.20090000  0.19100000  1.0 0.1889968058
H  H192  1  0.72360000  0.79910000  0.19100000  1.0 0.1889968058
C  C1  1  0.28700000  0.34560000  0.02400000  1.0 0.5571847456
C  C2  1  0.71300000  0.65440000  0.02400000  1.0 0.5571847456
C  C3  1  0.15440000  0.78700000  0.52400000  1.0 0.5571847456
C  C4  1  0.84560000  0.21300000  0.52400000  1.0 0.5571847456
C  C5  1  0.21300000  0.84560000  0.97600000  1.0 0.5571847456
C  C6  1  0.78700000  0.15440000  0.97600000  1.0 0.5571847456
C  C7  1  0.34560000  0.28700000  0.47600000  1.0 0.5571847456
C  C8  1  0.65440000  0.71300000  0.47600000  1.0 0.5571847456
C  C9  1  0.21300000  0.15440000  0.47600000  1.0 0.5571847456
C  C10  1  0.78700000  0.84560000  0.47600000  1.0 0.5571847456
C  C11  1  0.34560000  0.71300000  0.97600000  1.0 0.5571847456
C  C12  1  0.65440000  0.28700000  0.97600000  1.0 0.5571847456
C  C13  1  0.28700000  0.65440000  0.52400000  1.0 0.5571847456
C  C14  1  0.71300000  0.34560000  0.52400000  1.0 0.5571847456
C  C15  1  0.15440000  0.21300000  0.02400000  1.0 0.5571847456
C  C16  1  0.84560000  0.78700000  0.02400000  1.0 0.5571847456
C  C17  1  0.40420000  0.47240000  0.17640000  1.0 0.5437520342
C  C18  1  0.59580000  0.52760000  0.17640000  1.0 0.5437520342
C  C19  1  0.02760000  0.90420000  0.67640000  1.0 0.5437520342
C  C20  1  0.97240000  0.09580000  0.67640000  1.0 0.5437520342
C  C21  1  0.09580000  0.97240000  0.82360000  1.0 0.5437520342
C  C22  1  0.90420000  0.02760000  0.82360000  1.0 0.5437520342
C  C23  1  0.47240000  0.40420000  0.32360000  1.0 0.5437520342
C  C24  1  0.52760000  0.59580000  0.32360000  1.0 0.5437520342
C  C25  1  0.09580000  0.02760000  0.32360000  1.0 0.5437520342
C  C26  1  0.90420000  0.97240000  0.32360000  1.0 0.5437520342
C  C27  1  0.47240000  0.59580000  0.82360000  1.0 0.5437520342
C  C28  1  0.52760000  0.40420000  0.82360000  1.0 0.5437520342
C  C29  1  0.40420000  0.52760000  0.67640000  1.0 0.5437520342
C  C30  1  0.59580000  0.47240000  0.67640000  1.0 0.5437520342
C  C31  1  0.02760000  0.09580000  0.17640000  1.0 0.5437520342
C  C32  1  0.97240000  0.90420000  0.17640000  1.0 0.5437520342
C  C33  1  0.23790000  0.59100000  0.05220000  1.0 0.5900444546
C  C34  1  0.76210000  0.40900000  0.05220000  1.0 0.5900444546
C  C35  1  0.90900000  0.73790000  0.55220000  1.0 0.5900444546
C  C36  1  0.09100000  0.26210000  0.55220000  1.0 0.5900444546
C  C37  1  0.26210000  0.09100000  0.94780000  1.0 0.5900444546
C  C38  1  0.73790000  0.90900000  0.94780000  1.0 0.5900444546
C  C39  1  0.59100000  0.23790000  0.44780000  1.0 0.5900444546
C  C40  1  0.40900000  0.76210000  0.44780000  1.0 0.5900444546
C  C41  1  0.26210000  0.90900000  0.44780000  1.0 0.5900444546
C  C42  1  0.73790000  0.09100000  0.44780000  1.0 0.5900444546
C  C43  1  0.59100000  0.76210000  0.94780000  1.0 0.5900444546
C  C44  1  0.40900000  0.23790000  0.94780000  1.0 0.5900444546
C  C45  1  0.23790000  0.40900000  0.55220000  1.0 0.5900444546
C  C46  1  0.76210000  0.59100000  0.55220000  1.0 0.5900444546
C  C47  1  0.90900000  0.26210000  0.05220000  1.0 0.5900444546
C  C48  1  0.09100000  0.73790000  0.05220000  1.0 0.5900444546
C  C49  1  0.29690000  0.40850000  0.05690000  1.0 -0.0490297941
C  C50  1  0.70310000  0.59150000  0.05690000  1.0 -0.0490297941
C  C51  1  0.09150000  0.79690000  0.55690000  1.0 -0.0490297941
C  C52  1  0.90850000  0.20310000  0.55690000  1.0 -0.0490297941
C  C53  1  0.20310000  0.90850000  0.94310000  1.0 -0.0490297941
C  C54  1  0.79690000  0.09150000  0.94310000  1.0 -0.0490297941
C  C55  1  0.40850000  0.29690000  0.44310000  1.0 -0.0490297941
C  C56  1  0.59150000  0.70310000  0.44310000  1.0 -0.0490297941
C  C57  1  0.20310000  0.09150000  0.44310000  1.0 -0.0490297941
C  C58  1  0.79690000  0.90850000  0.44310000  1.0 -0.0490297941
C  C59  1  0.40850000  0.70310000  0.94310000  1.0 -0.0490297941
C  C60  1  0.59150000  0.29690000  0.94310000  1.0 -0.0490297941
C  C61  1  0.29690000  0.59150000  0.55690000  1.0 -0.0490297941
C  C62  1  0.70310000  0.40850000  0.55690000  1.0 -0.0490297941
C  C63  1  0.09150000  0.20310000  0.05690000  1.0 -0.0490297941
C  C64  1  0.90850000  0.79690000  0.05690000  1.0 -0.0490297941
C  C65  1  0.26350000  0.46750000  0.04100000  1.0 -0.1298282004
C  C66  1  0.73650000  0.53250000  0.04100000  1.0 -0.1298282004
C  C67  1  0.03250000  0.76350000  0.54100000  1.0 -0.1298282004
C  C68  1  0.96750000  0.23650000  0.54100000  1.0 -0.1238834762
C  C69  1  0.23650000  0.96750000  0.95900000  1.0 -0.1298282004
C  C70  1  0.76350000  0.03250000  0.95900000  1.0 -0.1298282004
C  C71  1  0.46750000  0.26350000  0.45900000  1.0 -0.1238834762
C  C72  1  0.53250000  0.73650000  0.45900000  1.0 -0.1298282004
C  C73  1  0.23650000  0.03250000  0.45900000  1.0 -0.1298282004
C  C74  1  0.76350000  0.96750000  0.45900000  1.0 -0.1238834762
C  C75  1  0.46750000  0.73650000  0.95900000  1.0 -0.1298282004
C  C76  1  0.53250000  0.26350000  0.95900000  1.0 -0.1238834762
C  C77  1  0.26350000  0.53250000  0.54100000  1.0 -0.1238834762
C  C78  1  0.73650000  0.46750000  0.54100000  1.0 -0.1298282004
C  C79  1  0.03250000  0.23650000  0.04100000  1.0 -0.1298282004
C  C80  1  0.96750000  0.76350000  0.04100000  1.0 -0.1238834762
C  C81  1  0.27340000  0.52710000  0.07210000  1.0 -0.0330226064
C  C82  1  0.72660000  0.47290000  0.07210000  1.0 -0.0330226064
C  C83  1  0.97290000  0.77340000  0.57210000  1.0 -0.0330226064
C  C84  1  0.02710000  0.22660000  0.57210000  1.0 -0.0330226064
C  C85  1  0.22660000  0.02710000  0.92790000  1.0 -0.0330226064
C  C86  1  0.77340000  0.97290000  0.92790000  1.0 -0.0330226064
C  C87  1  0.52710000  0.27340000  0.42790000  1.0 -0.0330226064
C  C88  1  0.47290000  0.72660000  0.42790000  1.0 -0.0330226064
C  C89  1  0.22660000  0.97290000  0.42790000  1.0 -0.0330226064
C  C90  1  0.77340000  0.02710000  0.42790000  1.0 -0.0330226064
C  C91  1  0.52710000  0.72660000  0.92790000  1.0 -0.0330226064
C  C92  1  0.47290000  0.27340000  0.92790000  1.0 -0.0330226064
C  C93  1  0.27340000  0.47290000  0.57210000  1.0 -0.0330226064
C  C94  1  0.72660000  0.52710000  0.57210000  1.0 -0.0330226064
C  C95  1  0.97290000  0.22660000  0.07210000  1.0 -0.0330226064
C  C96  1  0.02710000  0.77340000  0.07210000  1.0 -0.0330226064
C  C97  1  0.31740000  0.52780000  0.11430000  1.0 -0.0953353097
C  C98  1  0.68260000  0.47220000  0.11430000  1.0 -0.0942274882
C  C99  1  0.97220000  0.81740000  0.61430000  1.0 -0.0953353097
C  C100  1  0.02780000  0.18260000  0.61430000  1.0 -0.0953353097
C  C101  1  0.18260000  0.02780000  0.88570000  1.0 -0.0953353097
C  C102  1  0.81740000  0.97220000  0.88570000  1.0 -0.0953353097
C  C103  1  0.52780000  0.31740000  0.38570000  1.0 -0.0953353097
C  C104  1  0.47220000  0.68260000  0.38570000  1.0 -0.0942274882
C  C105  1  0.18260000  0.97220000  0.38570000  1.0 -0.0953353097
C  C106  1  0.81740000  0.02780000  0.38570000  1.0 -0.0953353097
C  C107  1  0.52780000  0.68260000  0.88570000  1.0 -0.0953353097
C  C108  1  0.47220000  0.31740000  0.88570000  1.0 -0.0953353097
C  C109  1  0.31740000  0.47220000  0.61430000  1.0 -0.0953353097
C  C110  1  0.68260000  0.52780000  0.61430000  1.0 -0.0953353097
C  C111  1  0.97220000  0.18260000  0.11430000  1.0 -0.0953353097
C  C112  1  0.02780000  0.81740000  0.11430000  1.0 -0.0953353097
C  C113  1  0.35210000  0.46800000  0.12920000  1.0 -0.0085148651
C  C114  1  0.64790000  0.53200000  0.12920000  1.0 -0.0085148651
C  C115  1  0.03200000  0.85210000  0.62920000  1.0 -0.0085148651
C  C116  1  0.96800000  0.14790000  0.62920000  1.0 -0.0085148651
C  C117  1  0.14790000  0.96800000  0.87080000  1.0 -0.0085148651
C  C118  1  0.85210000  0.03200000  0.87080000  1.0 -0.0085148651
C  C119  1  0.46800000  0.35210000  0.37080000  1.0 -0.0085148651
C  C120  1  0.53200000  0.64790000  0.37080000  1.0 -0.0085148651
C  C121  1  0.14790000  0.03200000  0.37080000  1.0 -0.0085148651
C  C122  1  0.85210000  0.96800000  0.37080000  1.0 -0.0085148651
C  C123  1  0.46800000  0.64790000  0.87080000  1.0 -0.0085148651
C  C124  1  0.53200000  0.35210000  0.87080000  1.0 -0.0085148651
C  C125  1  0.35210000  0.53200000  0.62920000  1.0 -0.0085148651
C  C126  1  0.64790000  0.46800000  0.62920000  1.0 -0.0085148651
C  C127  1  0.03200000  0.14790000  0.12920000  1.0 -0.0085148651
C  C128  1  0.96800000  0.85210000  0.12920000  1.0 -0.0085148651
C  C129  1  0.34150000  0.40870000  0.10160000  1.0 -0.1298282004
C  C130  1  0.65850000  0.59130000  0.10160000  1.0 -0.1298282004
C  C131  1  0.09130000  0.84150000  0.60160000  1.0 -0.1298282004
C  C132  1  0.90870000  0.15850000  0.60160000  1.0 -0.1298282004
C  C133  1  0.15850000  0.90870000  0.89840000  1.0 -0.1298282004
C  C134  1  0.84150000  0.09130000  0.89840000  1.0 -0.1298282004
C  C135  1  0.40870000  0.34150000  0.39840000  1.0 -0.1298282004
C  C136  1  0.59130000  0.65850000  0.39840000  1.0 -0.1298282004
C  C137  1  0.15850000  0.09130000  0.39840000  1.0 -0.1298282004
C  C138  1  0.84150000  0.90870000  0.39840000  1.0 -0.1298282004
C  C139  1  0.40870000  0.65850000  0.89840000  1.0 -0.1298282004
C  C140  1  0.59130000  0.34150000  0.89840000  1.0 -0.1298282004
C  C141  1  0.34150000  0.59130000  0.60160000  1.0 -0.1298282004
C  C142  1  0.65850000  0.40870000  0.60160000  1.0 -0.1298282004
C  C143  1  0.09130000  0.15850000  0.10160000  1.0 -0.1298282004
C  C144  1  0.90870000  0.84150000  0.10160000  1.0 -0.1298282004
C  C145  1  0.41200000  0.02650000  0.01660000  1.0 0.0444187463
C  C146  1  0.58800000  0.97350000  0.01660000  1.0 0.0444187463
C  C147  1  0.47350000  0.91200000  0.51660000  1.0 0.0444187463
C  C148  1  0.52650000  0.08800000  0.51660000  1.0 0.0444187463
C  C149  1  0.08800000  0.52650000  0.98340000  1.0 0.0444187463
C  C150  1  0.91200000  0.47350000  0.98340000  1.0 0.0444187463
C  C151  1  0.02650000  0.41200000  0.48340000  1.0 0.0444187463
C  C152  1  0.97350000  0.58800000  0.48340000  1.0 0.0444187463
C  C153  1  0.08800000  0.47350000  0.48340000  1.0 0.0477925405
C  C154  1  0.91200000  0.52650000  0.48340000  1.0 0.0477925405
C  C155  1  0.02650000  0.58800000  0.98340000  1.0 0.0444187463
C  C156  1  0.97350000  0.41200000  0.98340000  1.0 0.0444187463
C  C157  1  0.41200000  0.97350000  0.51660000  1.0 0.0444187463
C  C158  1  0.58800000  0.02650000  0.51660000  1.0 0.0444187463
C  C159  1  0.47350000  0.08800000  0.01660000  1.0 0.0477925405
C  C160  1  0.52650000  0.91200000  0.01660000  1.0 0.0444187463
C  C161  1  0.42230000  0.92230000  0.96420000  1.0 -0.267676252
C  C162  1  0.57770000  0.07770000  0.96420000  1.0 -0.267676252
C  C163  1  0.57770000  0.92230000  0.46420000  1.0 -0.267676252
C  C164  1  0.42230000  0.07770000  0.46420000  1.0 -0.267676252
C  C165  1  0.07770000  0.42230000  0.03580000  1.0 -0.267676252
C  C166  1  0.92230000  0.57770000  0.03580000  1.0 -0.267676252
C  C167  1  0.92230000  0.42230000  0.53580000  1.0 -0.267676252
C  C168  1  0.07770000  0.57770000  0.53580000  1.0 -0.267676252
C  C169  1  0.41230000  0.91230000  0.06920000  1.0 -0.2423089343
C  C170  1  0.58770000  0.08770000  0.06920000  1.0 -0.2423089343
C  C171  1  0.58770000  0.91230000  0.56920000  1.0 -0.2423089343
C  C172  1  0.41230000  0.08770000  0.56920000  1.0 -0.2423089343
C  C173  1  0.08770000  0.41230000  0.93080000  1.0 -0.2423089343
C  C174  1  0.91230000  0.58770000  0.93080000  1.0 -0.2423089343
C  C175  1  0.91230000  0.41230000  0.43080000  1.0 -0.2423089343
C  C176  1  0.08770000  0.58770000  0.43080000  1.0 -0.2423089343
N  N1  1  0.41690000  0.95160000  0.01880000  1.0 -0.0330226064
N  N2  1  0.58310000  0.04840000  0.01880000  1.0 -0.0330226064
N  N3  1  0.54840000  0.91690000  0.51880000  1.0 -0.0330226064
N  N4  1  0.45160000  0.08310000  0.51880000  1.0 -0.0330226064
N  N5  1  0.08310000  0.45160000  0.98120000  1.0 -0.0330226064
N  N6  1  0.91690000  0.54840000  0.98120000  1.0 -0.0330226064
N  N7  1  0.95160000  0.41690000  0.48120000  1.0 -0.0330226064
N  N8  1  0.04840000  0.58310000  0.48120000  1.0 -0.0330226064
N  N9  1  0.08310000  0.54840000  0.48120000  1.0 -0.0330226064
N  N10  1  0.91690000  0.45160000  0.48120000  1.0 -0.0330226064
N  N11  1  0.95160000  0.58310000  0.98120000  1.0 -0.0330226064
N  N12  1  0.04840000  0.41690000  0.98120000  1.0 -0.0330226064
N  N13  1  0.41690000  0.04840000  0.51880000  1.0 -0.0330226064
N  N14  1  0.58310000  0.95160000  0.51880000  1.0 -0.0330226064
N  N15  1  0.54840000  0.08310000  0.01880000  1.0 -0.0330226064
N  N16  1  0.45160000  0.91690000  0.01880000  1.0 -0.0330226064
Cl  Cl1  1  0.20950000  0.29050000  0.85600000  1.0 -0.5320568908
Cl  Cl2  1  0.79050000  0.70950000  0.85600000  1.0 -0.5320568908
Cl  Cl3  1  0.20950000  0.70950000  0.35600000  1.0 -0.5320568908
Cl  Cl4  1  0.79050000  0.29050000  0.35600000  1.0 -0.5320568908
Cl  Cl5  1  0.29050000  0.79050000  0.14400000  1.0 -0.5320568908
Cl  Cl6  1  0.70950000  0.20950000  0.14400000  1.0 -0.5320568908
Cl  Cl7  1  0.29050000  0.20950000  0.64400000  1.0 -0.5320568908
Cl  Cl8  1  0.70950000  0.79050000  0.64400000  1.0 -0.5320568908
O  O1  1  0.31240000  0.28900000  0.03800000  1.0 -0.6214364646
O  O2  1  0.68760000  0.71100000  0.03800000  1.0 -0.6214364646
O  O3  1  0.21100000  0.81240000  0.53800000  1.0 -0.6214364646
O  O4  1  0.78900000  0.18760000  0.53800000  1.0 -0.6214364646
O  O5  1  0.18760000  0.78900000  0.96200000  1.0 -0.6214364646
O  O6  1  0.81240000  0.21100000  0.96200000  1.0 -0.6214364646
O  O7  1  0.28900000  0.31240000  0.46200000  1.0 -0.6214364646
O  O8  1  0.71100000  0.68760000  0.46200000  1.0 -0.6214364646
O  O9  1  0.18760000  0.21100000  0.46200000  1.0 -0.6214364646
O  O10  1  0.81240000  0.78900000  0.46200000  1.0 -0.6214364646
O  O11  1  0.28900000  0.68760000  0.96200000  1.0 -0.6214364646
O  O12  1  0.71100000  0.31240000  0.96200000  1.0 -0.6214364646
O  O13  1  0.31240000  0.71100000  0.53800000  1.0 -0.6214364646
O  O14  1  0.68760000  0.28900000  0.53800000  1.0 -0.6214364646
O  O15  1  0.21100000  0.18760000  0.03800000  1.0 -0.6214364646
O  O16  1  0.78900000  0.81240000  0.03800000  1.0 -0.6214364646
O  O17  1  0.25530000  0.35070000  0.97960000  1.0 -0.5320568908
O  O18  1  0.74470000  0.64930000  0.97960000  1.0 -0.5320568908
O  O19  1  0.14930000  0.75530000  0.47960000  1.0 -0.5320568908
O  O20  1  0.85070000  0.24470000  0.47960000  1.0 -0.5320568908
O  O21  1  0.24470000  0.85070000  0.02040000  1.0 -0.5320568908
O  O22  1  0.75530000  0.14930000  0.02040000  1.0 -0.5320568908
O  O23  1  0.35070000  0.25530000  0.52040000  1.0 -0.5320568908
O  O24  1  0.64930000  0.74470000  0.52040000  1.0 -0.5320568908
O  O25  1  0.24470000  0.14930000  0.52040000  1.0 -0.5320568908
O  O26  1  0.75530000  0.85070000  0.52040000  1.0 -0.5320568908
O  O27  1  0.35070000  0.74470000  0.02040000  1.0 -0.5320568908
O  O28  1  0.64930000  0.25530000  0.02040000  1.0 -0.5320568908
O  O29  1  0.25530000  0.64930000  0.47960000  1.0 -0.5320568908
O  O30  1  0.74470000  0.35070000  0.47960000  1.0 -0.5320568908
O  O31  1  0.14930000  0.24470000  0.97960000  1.0 -0.5320568908
O  O32  1  0.85070000  0.75530000  0.97960000  1.0 -0.5320568908
O  O33  1  0.40860000  0.52800000  0.20200000  1.0 -0.5208205721
O  O34  1  0.59140000  0.47200000  0.20200000  1.0 -0.5208205721
O  O35  1  0.97200000  0.90860000  0.70200000  1.0 -0.5208205721
O  O36  1  0.02800000  0.09140000  0.70200000  1.0 -0.5208205721
O  O37  1  0.09140000  0.02800000  0.79800000  1.0 -0.5208205721
O  O38  1  0.90860000  0.97200000  0.79800000  1.0 -0.5208205721
O  O39  1  0.52800000  0.40860000  0.29800000  1.0 -0.5208205721
O  O40  1  0.47200000  0.59140000  0.29800000  1.0 -0.5208205721
O  O41  1  0.09140000  0.97200000  0.29800000  1.0 -0.5208205721
O  O42  1  0.90860000  0.02800000  0.29800000  1.0 -0.5208205721
O  O43  1  0.52800000  0.59140000  0.79800000  1.0 -0.5208205721
O  O44  1  0.47200000  0.40860000  0.79800000  1.0 -0.5208205721
O  O45  1  0.40860000  0.47200000  0.70200000  1.0 -0.5208205721
O  O46  1  0.59140000  0.52800000  0.70200000  1.0 -0.5208205721
O  O47  1  0.97200000  0.09140000  0.20200000  1.0 -0.5208205721
O  O48  1  0.02800000  0.90860000  0.20200000  1.0 -0.5208205721
O  O49  1  0.44150000  0.42250000  0.18570000  1.0 -0.5374788595
O  O50  1  0.55850000  0.57750000  0.18570000  1.0 -0.5374788595
O  O51  1  0.07750000  0.94150000  0.68570000  1.0 -0.5374788595
O  O52  1  0.92250000  0.05850000  0.68570000  1.0 -0.5374788595
O  O53  1  0.05850000  0.92250000  0.81430000  1.0 -0.5374788595
O  O54  1  0.94150000  0.07750000  0.81430000  1.0 -0.5374788595
O  O55  1  0.42250000  0.44150000  0.31430000  1.0 -0.5374788595
O  O56  1  0.57750000  0.55850000  0.31430000  1.0 -0.5374788595
O  O57  1  0.05850000  0.07750000  0.31430000  1.0 -0.5374788595
O  O58  1  0.94150000  0.92250000  0.31430000  1.0 -0.5374788595
O  O59  1  0.42250000  0.55850000  0.81430000  1.0 -0.5374788595
O  O60  1  0.57750000  0.44150000  0.81430000  1.0 -0.5374788595
O  O61  1  0.44150000  0.57750000  0.68570000  1.0 -0.5374788595
O  O62  1  0.55850000  0.42250000  0.68570000  1.0 -0.5374788595
O  O63  1  0.07750000  0.05850000  0.18570000  1.0 -0.5374788595
O  O64  1  0.92250000  0.94150000  0.18570000  1.0 -0.5374788595
O  O65  1  0.25670000  0.64580000  0.08010000  1.0 -0.5756141817
O  O66  1  0.74330000  0.35420000  0.08010000  1.0 -0.5756141817
O  O67  1  0.85420000  0.75670000  0.58010000  1.0 -0.5756141817
O  O68  1  0.14580000  0.24330000  0.58010000  1.0 -0.5746311648
O  O69  1  0.24330000  0.14580000  0.91990000  1.0 -0.5746311648
O  O70  1  0.75670000  0.85420000  0.91990000  1.0 -0.5756141817
O  O71  1  0.64580000  0.25670000  0.41990000  1.0 -0.5756141817
O  O72  1  0.35420000  0.74330000  0.41990000  1.0 -0.5756141817
O  O73  1  0.24330000  0.85420000  0.41990000  1.0 -0.5756141817
O  O74  1  0.75670000  0.14580000  0.41990000  1.0 -0.5756141817
O  O75  1  0.64580000  0.74330000  0.91990000  1.0 -0.5756141817
O  O76  1  0.35420000  0.25670000  0.91990000  1.0 -0.5756141817
O  O77  1  0.25670000  0.35420000  0.58010000  1.0 -0.5756141817
O  O78  1  0.74330000  0.64580000  0.58010000  1.0 -0.5756141817
O  O79  1  0.85420000  0.24330000  0.08010000  1.0 -0.5756141817
O  O80  1  0.14580000  0.75670000  0.08010000  1.0 -0.5756141817
O  O81  1  0.19990000  0.59210000  0.01180000  1.0 -0.6131454548
O  O82  1  0.80010000  0.40790000  0.01180000  1.0 -0.6131454548
O  O83  1  0.90790000  0.69990000  0.51180000  1.0 -0.6131454548
O  O84  1  0.09210000  0.30010000  0.51180000  1.0 -0.6131454548
O  O85  1  0.30010000  0.09210000  0.98820000  1.0 -0.6131454548
O  O86  1  0.69990000  0.90790000  0.98820000  1.0 -0.6131454548
O  O87  1  0.59210000  0.19990000  0.48820000  1.0 -0.6131454548
O  O88  1  0.40790000  0.80010000  0.48820000  1.0 -0.6131454548
O  O89  1  0.30010000  0.90790000  0.48820000  1.0 -0.6131454548
O  O90  1  0.69990000  0.09210000  0.48820000  1.0 -0.6131454548
O  O91  1  0.59210000  0.80010000  0.98820000  1.0 -0.6131454548
O  O92  1  0.40790000  0.19990000  0.98820000  1.0 -0.6131454548
O  O93  1  0.19990000  0.40790000  0.51180000  1.0 -0.6131454548
O  O94  1  0.80010000  0.59210000  0.51180000  1.0 -0.6131454548
O  O95  1  0.90790000  0.30010000  0.01180000  1.0 -0.6131454548
O  O96  1  0.09210000  0.69990000  0.01180000  1.0 -0.6131454548
O  O97  1  0.40750000  0.05420000  0.06250000  1.0 -0.13585266
O  O98  1  0.59250000  0.94580000  0.06250000  1.0 -0.1298282004
O  O99  1  0.44580000  0.90750000  0.56250000  1.0 -0.1298282004
O  O100  1  0.55420000  0.09250000  0.56250000  1.0 -0.1298282004
O  O101  1  0.09250000  0.55420000  0.93750000  1.0 -0.1298282004
O  O102  1  0.90750000  0.44580000  0.93750000  1.0 -0.1298282004
O  O103  1  0.05420000  0.40750000  0.43750000  1.0 -0.13585266
O  O104  1  0.94580000  0.59250000  0.43750000  1.0 -0.1298282004
O  O105  1  0.09250000  0.44580000  0.43750000  1.0 -0.13585266
O  O106  1  0.90750000  0.55420000  0.43750000  1.0 -0.1298282004
O  O107  1  0.05420000  0.59250000  0.93750000  1.0 -0.1298282004
O  O108  1  0.94580000  0.40750000  0.93750000  1.0 -0.1298282004
O  O109  1  0.40750000  0.94580000  0.56250000  1.0 -0.1298282004
O  O110  1  0.59250000  0.05420000  0.56250000  1.0 -0.1298282004
O  O111  1  0.44580000  0.09250000  0.06250000  1.0 -0.13585266
O  O112  1  0.55420000  0.90750000  0.06250000  1.0 -0.1298282004
O  O113  1  0.28970000  0.23620000  0.15830000  1.0 -0.1668292405
O  O114  1  0.71030000  0.76380000  0.15830000  1.0 -0.1668292405
O  O115  1  0.26380000  0.78970000  0.65830000  1.0 -0.1668292405
O  O116  1  0.73620000  0.21030000  0.65830000  1.0 -0.1668292405
O  O117  1  0.21030000  0.73620000  0.84170000  1.0 -0.1668292405
O  O118  1  0.78970000  0.26380000  0.84170000  1.0 -0.1668292405
O  O119  1  0.23620000  0.28970000  0.34170000  1.0 -0.1668292405
O  O120  1  0.76380000  0.71030000  0.34170000  1.0 -0.1668292405
O  O121  1  0.21030000  0.26380000  0.34170000  1.0 -0.1668292405
O  O122  1  0.78970000  0.73620000  0.34170000  1.0 -0.1668292405
O  O123  1  0.23620000  0.71030000  0.84170000  1.0 -0.1668292405
O  O124  1  0.76380000  0.28970000  0.84170000  1.0 -0.1668292405
O  O125  1  0.28970000  0.76380000  0.65830000  1.0 -0.1668292405
O  O126  1  0.71030000  0.23620000  0.65830000  1.0 -0.1668292405
O  O127  1  0.26380000  0.21030000  0.15830000  1.0 -0.1668292405
O  O128  1  0.73620000  0.78970000  0.15830000  1.0 -0.1668292405
