# DDEC6 charges by PACMAN v1.1 (https://github.com/mtap-research/PACMAN-charge/)
data_PARSAF_ASR_pacman
_symmetry_space_group_name_H-M   'P 1'
_cell_length_a   19.51890000
_cell_length_b   19.51890000
_cell_length_c   24.25300000
_cell_angle_alpha   90.00000000
_cell_angle_beta   90.00000000
_cell_angle_gamma   90.00000000
_symmetry_Int_Tables_number   1
_chemical_formula_structural   Ca2In3H48C44N4(ClO16)2
_chemical_formula_sum   'Ca8 In12 H192 C176 N16 Cl8 O128'
_cell_volume   9240.08879971
_cell_formula_units_Z   4
loop_
 _symmetry_equiv_pos_site_id
 _symmetry_equiv_pos_as_xyz
  1  'x, y, z'
loop_
 _atom_site_type_symbol
 _atom_site_label
 _atom_site_symmetry_multiplicity
 _atom_site_fract_x
 _atom_site_fract_y
 _atom_site_fract_z
 _atom_site_occupancy
 _atom_site_charge
Ca  Ca1  1  0.32921000  0.17079000  0.06218000  1.0 1.1482182777
Ca  Ca2  1  0.67079000  0.82921000  0.06218000  1.0 1.1482182777
Ca  Ca3  1  0.32921000  0.82921000  0.56218000  1.0 1.1482182777
Ca  Ca4  1  0.67079000  0.17079000  0.56218000  1.0 1.1482182777
Ca  Ca5  1  0.17079000  0.67079000  0.93782000  1.0 1.1482182777
Ca  Ca6  1  0.82921000  0.32921000  0.93782000  1.0 1.1482182777
Ca  Ca7  1  0.17079000  0.32921000  0.43782000  1.0 1.1482182777
Ca  Ca8  1  0.82921000  0.67079000  0.43782000  1.0 1.1482182777
In  In1  1  0.24606000  0.25394000  0.93996000  1.0 1.3656382895
In  In2  1  0.75394000  0.74606000  0.93996000  1.0 1.3656382895
In  In3  1  0.24606000  0.74606000  0.43996000  1.0 1.364923749
In  In4  1  0.75394000  0.25394000  0.43996000  1.0 1.3656382895
In  In5  1  0.25394000  0.75394000  0.06004000  1.0 1.364923749
In  In6  1  0.74606000  0.24606000  0.06004000  1.0 1.3656382895
In  In7  1  0.25394000  0.24606000  0.56004000  1.0 1.3656382895
In  In8  1  0.74606000  0.75394000  0.56004000  1.0 1.3656382895
In  In9  1  0.50000000  0.50000000  0.25000000  1.0 1.3441332316
In  In10  1  0.00000000  0.00000000  0.75000000  1.0 1.3441332316
In  In11  1  0.00000000  0.00000000  0.25000000  1.0 1.3441332316
In  In12  1  0.50000000  0.50000000  0.75000000  1.0 1.3441332316
H  H1  1  0.23380000  0.47120000  0.01080000  1.0 0.131549009
H  H2  1  0.76620000  0.52880000  0.01080000  1.0 0.131549009
H  H3  1  0.02880000  0.73380000  0.51080000  1.0 0.131549009
H  H4  1  0.97120000  0.26620000  0.51080000  1.0 0.131549009
H  H5  1  0.26620000  0.97120000  0.98920000  1.0 0.131549009
H  H6  1  0.73380000  0.02880000  0.98920000  1.0 0.131549009
H  H7  1  0.47120000  0.23380000  0.48920000  1.0 0.131549009
H  H8  1  0.52880000  0.76620000  0.48920000  1.0 0.131549009
H  H9  1  0.26620000  0.02880000  0.48920000  1.0 0.131549009
H  H10  1  0.73380000  0.97120000  0.48920000  1.0 0.131549009
H  H11  1  0.47120000  0.76620000  0.98920000  1.0 0.131549009
H  H12  1  0.52880000  0.23380000  0.98920000  1.0 0.131549009
H  H13  1  0.23380000  0.52880000  0.51080000  1.0 0.131549009
H  H14  1  0.76620000  0.47120000  0.51080000  1.0 0.131549009
H  H15  1  0.02880000  0.26620000  0.01080000  1.0 0.131549009
H  H16  1  0.97120000  0.73380000  0.01080000  1.0 0.131549009
H  H17  1  0.32600000  0.56970000  0.13540000  1.0 0.1475628799
H  H18  1  0.67400000  0.43030000  0.13540000  1.0 0.1475628799
H  H19  1  0.93030000  0.82600000  0.63540000  1.0 0.1475628799
H  H20  1  0.06970000  0.17400000  0.63540000  1.0 0.1475628799
H  H21  1  0.17400000  0.06970000  0.86460000  1.0 0.1475628799
H  H22  1  0.82600000  0.93030000  0.86460000  1.0 0.1475628799
H  H23  1  0.56970000  0.32600000  0.36460000  1.0 0.1475628799
H  H24  1  0.43030000  0.67400000  0.36460000  1.0 0.1475628799
H  H25  1  0.17400000  0.93030000  0.36460000  1.0 0.1475628799
H  H26  1  0.82600000  0.06970000  0.36460000  1.0 0.1475628799
H  H27  1  0.56970000  0.67400000  0.86460000  1.0 0.1475628799
H  H28  1  0.43030000  0.32600000  0.86460000  1.0 0.1475628799
H  H29  1  0.32600000  0.43030000  0.63540000  1.0 0.1475628799
H  H30  1  0.67400000  0.56970000  0.63540000  1.0 0.1475628799
H  H31  1  0.93030000  0.17400000  0.13540000  1.0 0.1475628799
H  H32  1  0.06970000  0.82600000  0.13540000  1.0 0.1475628799
H  H33  1  0.36070000  0.36880000  0.11040000  1.0 0.1097107268
H  H34  1  0.63930000  0.63120000  0.11040000  1.0 0.1097107268
H  H35  1  0.13120000  0.86070000  0.61040000  1.0 0.1097107268
H  H36  1  0.86880000  0.13930000  0.61040000  1.0 0.1097107268
H  H37  1  0.13930000  0.86880000  0.88960000  1.0 0.1097107268
H  H38  1  0.86070000  0.13120000  0.88960000  1.0 0.1097107268
H  H39  1  0.36880000  0.36070000  0.38960000  1.0 0.1097107268
H  H40  1  0.63120000  0.63930000  0.38960000  1.0 0.1097107268
H  H41  1  0.13930000  0.13120000  0.38960000  1.0 0.1097107268
H  H42  1  0.86070000  0.86880000  0.38960000  1.0 0.1097107268
H  H43  1  0.36880000  0.63930000  0.88960000  1.0 0.1097107268
H  H44  1  0.63120000  0.36070000  0.88960000  1.0 0.1097107268
H  H45  1  0.36070000  0.63120000  0.61040000  1.0 0.1097107268
H  H46  1  0.63930000  0.36880000  0.61040000  1.0 0.1097107268
H  H47  1  0.13120000  0.13930000  0.11040000  1.0 0.1097107268
H  H48  1  0.86880000  0.86070000  0.11040000  1.0 0.1097107268
H  H49  1  0.40350000  0.04460000  0.99800000  1.0 0.0613753999
H  H50  1  0.59650000  0.95540000  0.99800000  1.0 0.0613753999
H  H51  1  0.45540000  0.90350000  0.49800000  1.0 0.0613753999
H  H52  1  0.54460000  0.09650000  0.49800000  1.0 0.0613753999
H  H53  1  0.09650000  0.54460000  0.00200000  1.0 0.0613753999
H  H54  1  0.90350000  0.45540000  0.00200000  1.0 0.0613753999
H  H55  1  0.04460000  0.40350000  0.50200000  1.0 0.0613753999
H  H56  1  0.95540000  0.59650000  0.50200000  1.0 0.0613753999
H  H57  1  0.09650000  0.45540000  0.50200000  1.0 0.0613753999
H  H58  1  0.90350000  0.54460000  0.50200000  1.0 0.0613753999
H  H59  1  0.04460000  0.59650000  0.00200000  1.0 0.0613753999
H  H60  1  0.95540000  0.40350000  0.00200000  1.0 0.0613753999
H  H61  1  0.40350000  0.95540000  0.49800000  1.0 0.0613753999
H  H62  1  0.59650000  0.04460000  0.49800000  1.0 0.0613753999
H  H63  1  0.45540000  0.09650000  0.99800000  1.0 0.0613753999
H  H64  1  0.54460000  0.90350000  0.99800000  1.0 0.0613753999
H  H65  1  0.43980000  0.88200000  0.99810000  1.0 0.0891574951
H  H66  1  0.56020000  0.11800000  0.99810000  1.0 0.0891574951
H  H67  1  0.61800000  0.93980000  0.49810000  1.0 0.0891574951
H  H68  1  0.38200000  0.06020000  0.49810000  1.0 0.0891574951
H  H69  1  0.06020000  0.38200000  0.00190000  1.0 0.0891574951
H  H70  1  0.93980000  0.61800000  0.00190000  1.0 0.0891574951
H  H71  1  0.88200000  0.43980000  0.50190000  1.0 0.0891574951
H  H72  1  0.11800000  0.56020000  0.50190000  1.0 0.0891574951
H  H73  1  0.06020000  0.61800000  0.50190000  1.0 0.0891574951
H  H74  1  0.93980000  0.38200000  0.50190000  1.0 0.0891574951
H  H75  1  0.88200000  0.56020000  0.00190000  1.0 0.0891574951
H  H76  1  0.11800000  0.43980000  0.00190000  1.0 0.0891574951
H  H77  1  0.43980000  0.11800000  0.49810000  1.0 0.0891574951
H  H78  1  0.56020000  0.88200000  0.49810000  1.0 0.0891574951
H  H79  1  0.61800000  0.06020000  0.99810000  1.0 0.0891574951
H  H80  1  0.38200000  0.93980000  0.99810000  1.0 0.0891574951
H  H81  1  0.38900000  0.93620000  0.97360000  1.0 0.0458987482
H  H82  1  0.61100000  0.06380000  0.97360000  1.0 0.0458987482
H  H83  1  0.56380000  0.88900000  0.47360000  1.0 0.0458987482
H  H84  1  0.43620000  0.11100000  0.47360000  1.0 0.0458987482
H  H85  1  0.11100000  0.43620000  0.02640000  1.0 0.0458987482
H  H86  1  0.88900000  0.56380000  0.02640000  1.0 0.0458987482
H  H87  1  0.93620000  0.38900000  0.52640000  1.0 0.0458987482
H  H88  1  0.06380000  0.61100000  0.52640000  1.0 0.0458987482
H  H89  1  0.11100000  0.56380000  0.52640000  1.0 0.0458987482
H  H90  1  0.88900000  0.43620000  0.52640000  1.0 0.0458987482
H  H91  1  0.93620000  0.61100000  0.02640000  1.0 0.0458987482
H  H92  1  0.06380000  0.38900000  0.02640000  1.0 0.0458987482
H  H93  1  0.38900000  0.06380000  0.47360000  1.0 0.0458987482
H  H94  1  0.61100000  0.93620000  0.47360000  1.0 0.0458987482
H  H95  1  0.56380000  0.11100000  0.97360000  1.0 0.0458987482
H  H96  1  0.43620000  0.88900000  0.97360000  1.0 0.0458987482
H  H97  1  0.46700000  0.95390000  0.97960000  1.0 0.0891574951
H  H98  1  0.53300000  0.04610000  0.97960000  1.0 0.0891574951
H  H99  1  0.54610000  0.96700000  0.47960000  1.0 0.0891574951
H  H100  1  0.45390000  0.03300000  0.47960000  1.0 0.0891574951
H  H101  1  0.03300000  0.45390000  0.02040000  1.0 0.0891574951
H  H102  1  0.96700000  0.54610000  0.02040000  1.0 0.0891574951
H  H103  1  0.95390000  0.46700000  0.52040000  1.0 0.0891574951
H  H104  1  0.04610000  0.53300000  0.52040000  1.0 0.0891574951
H  H105  1  0.03300000  0.54610000  0.52040000  1.0 0.0891574951
H  H106  1  0.96700000  0.45390000  0.52040000  1.0 0.0891574951
H  H107  1  0.95390000  0.53300000  0.02040000  1.0 0.0891574951
H  H108  1  0.04610000  0.46700000  0.02040000  1.0 0.0891574951
H  H109  1  0.46700000  0.04610000  0.47960000  1.0 0.0891574951
H  H110  1  0.53300000  0.95390000  0.47960000  1.0 0.0891574951
H  H111  1  0.54610000  0.03300000  0.97960000  1.0 0.0891574951
H  H112  1  0.45390000  0.96700000  0.97960000  1.0 0.0891574951
H  H113  1  0.43760000  0.88190000  0.10300000  1.0 0.0891574951
H  H114  1  0.56240000  0.11810000  0.10300000  1.0 0.0891574951
H  H115  1  0.61810000  0.93760000  0.60300000  1.0 0.0891574951
H  H116  1  0.38190000  0.06240000  0.60300000  1.0 0.0891574951
H  H117  1  0.06240000  0.38190000  0.89700000  1.0 0.0891574951
H  H118  1  0.93760000  0.61810000  0.89700000  1.0 0.0891574951
H  H119  1  0.88190000  0.43760000  0.39700000  1.0 0.0891574951
H  H120  1  0.11810000  0.56240000  0.39700000  1.0 0.0891574951
H  H121  1  0.06240000  0.61810000  0.39700000  1.0 0.0891574951
H  H122  1  0.93760000  0.38190000  0.39700000  1.0 0.0891574951
H  H123  1  0.88190000  0.56240000  0.89700000  1.0 0.0891574951
H  H124  1  0.11810000  0.43760000  0.89700000  1.0 0.0891574951
H  H125  1  0.43760000  0.11810000  0.60300000  1.0 0.0891574951
H  H126  1  0.56240000  0.88190000  0.60300000  1.0 0.0891574951
H  H127  1  0.61810000  0.06240000  0.10300000  1.0 0.0891574951
H  H128  1  0.38190000  0.93760000  0.10300000  1.0 0.0891574951
H  H129  1  0.46920000  0.95270000  0.11990000  1.0 0.07337795
H  H130  1  0.53080000  0.04730000  0.11990000  1.0 0.07337795
H  H131  1  0.54730000  0.96920000  0.61990000  1.0 0.07337795
H  H132  1  0.45270000  0.03080000  0.61990000  1.0 0.07337795
H  H133  1  0.03080000  0.45270000  0.88010000  1.0 0.07337795
H  H134  1  0.96920000  0.54730000  0.88010000  1.0 0.07337795
H  H135  1  0.95270000  0.46920000  0.38010000  1.0 0.07337795
H  H136  1  0.04730000  0.53080000  0.38010000  1.0 0.07337795
H  H137  1  0.03080000  0.54730000  0.38010000  1.0 0.07337795
H  H138  1  0.96920000  0.45270000  0.38010000  1.0 0.07337795
H  H139  1  0.95270000  0.53080000  0.88010000  1.0 0.07337795
H  H140  1  0.04730000  0.46920000  0.88010000  1.0 0.07337795
H  H141  1  0.46920000  0.04730000  0.61990000  1.0 0.07337795
H  H142  1  0.53080000  0.95270000  0.61990000  1.0 0.07337795
H  H143  1  0.54730000  0.03080000  0.11990000  1.0 0.07337795
H  H144  1  0.45270000  0.96920000  0.11990000  1.0 0.07337795
H  H145  1  0.39060000  0.93920000  0.12790000  1.0 0.0416214204
H  H146  1  0.60940000  0.06080000  0.12790000  1.0 0.0416214204
H  H147  1  0.56080000  0.89060000  0.62790000  1.0 0.0416214204
H  H148  1  0.43920000  0.10940000  0.62790000  1.0 0.0416214204
H  H149  1  0.10940000  0.43920000  0.87210000  1.0 0.0416214204
H  H150  1  0.89060000  0.56080000  0.87210000  1.0 0.0416214204
H  H151  1  0.93920000  0.39060000  0.37210000  1.0 0.0416214204
H  H152  1  0.06080000  0.60940000  0.37210000  1.0 0.0416214204
H  H153  1  0.10940000  0.56080000  0.37210000  1.0 0.0416214204
H  H154  1  0.89060000  0.43920000  0.37210000  1.0 0.0416214204
H  H155  1  0.93920000  0.60940000  0.87210000  1.0 0.0416214204
H  H156  1  0.06080000  0.39060000  0.87210000  1.0 0.0416214204
H  H157  1  0.39060000  0.06080000  0.62790000  1.0 0.0416214204
H  H158  1  0.60940000  0.93920000  0.62790000  1.0 0.0416214204
H  H159  1  0.56080000  0.10940000  0.12790000  1.0 0.0416214204
H  H160  1  0.43920000  0.89060000  0.12790000  1.0 0.0416214204
H  H161  1  0.23220000  0.20890000  0.14840000  1.0 0.240988735
H  H162  1  0.76780000  0.79110000  0.14840000  1.0 0.240988735
H  H163  1  0.29110000  0.73220000  0.64840000  1.0 0.240988735
H  H164  1  0.70890000  0.26780000  0.64840000  1.0 0.240988735
H  H165  1  0.26780000  0.70890000  0.85160000  1.0 0.240988735
H  H166  1  0.73220000  0.29110000  0.85160000  1.0 0.240988735
H  H167  1  0.20890000  0.23220000  0.35160000  1.0 0.240988735
H  H168  1  0.79110000  0.76780000  0.35160000  1.0 0.240988735
H  H169  1  0.26780000  0.29110000  0.35160000  1.0 0.240988735
H  H170  1  0.73220000  0.70890000  0.35160000  1.0 0.240988735
H  H171  1  0.20890000  0.76780000  0.85160000  1.0 0.240988735
H  H172  1  0.79110000  0.23220000  0.85160000  1.0 0.240988735
H  H173  1  0.23220000  0.79110000  0.64840000  1.0 0.240988735
H  H174  1  0.76780000  0.20890000  0.64840000  1.0 0.240988735
H  H175  1  0.29110000  0.26780000  0.14840000  1.0 0.240988735
H  H176  1  0.70890000  0.73220000  0.14840000  1.0 0.240988735
H  H177  1  0.28530000  0.16870000  0.17690000  1.0 0.1615858785
H  H178  1  0.71470000  0.83130000  0.17690000  1.0 0.1615858785
H  H179  1  0.33130000  0.78530000  0.67690000  1.0 0.1615858785
H  H180  1  0.66870000  0.21470000  0.67690000  1.0 0.1615858785
H  H181  1  0.21470000  0.66870000  0.82310000  1.0 0.1615858785
H  H182  1  0.78530000  0.33130000  0.82310000  1.0 0.1615858785
H  H183  1  0.16870000  0.28530000  0.32310000  1.0 0.1615858785
H  H184  1  0.83130000  0.71470000  0.32310000  1.0 0.1615858785
H  H185  1  0.21470000  0.33130000  0.32310000  1.0 0.1615858785
H  H186  1  0.78530000  0.66870000  0.32310000  1.0 0.1615858785
H  H187  1  0.16870000  0.71470000  0.82310000  1.0 0.1615858785
H  H188  1  0.83130000  0.28530000  0.82310000  1.0 0.1615858785
H  H189  1  0.28530000  0.83130000  0.67690000  1.0 0.1615858785
H  H190  1  0.71470000  0.16870000  0.67690000  1.0 0.1615858785
H  H191  1  0.33130000  0.21470000  0.17690000  1.0 0.1615858785
H  H192  1  0.66870000  0.78530000  0.17690000  1.0 0.1615858785
C  C1  1  0.28440000  0.34660000  0.02490000  1.0 0.5510684586
C  C2  1  0.71560000  0.65340000  0.02490000  1.0 0.5510684586
C  C3  1  0.15340000  0.78440000  0.52490000  1.0 0.5510684586
C  C4  1  0.84660000  0.21560000  0.52490000  1.0 0.5510684586
C  C5  1  0.21560000  0.84660000  0.97510000  1.0 0.5510684586
C  C6  1  0.78440000  0.15340000  0.97510000  1.0 0.5510684586
C  C7  1  0.34660000  0.28440000  0.47510000  1.0 0.5510684586
C  C8  1  0.65340000  0.71560000  0.47510000  1.0 0.5510684586
C  C9  1  0.21560000  0.15340000  0.47510000  1.0 0.5510684586
C  C10  1  0.78440000  0.84660000  0.47510000  1.0 0.5510684586
C  C11  1  0.34660000  0.71560000  0.97510000  1.0 0.5510684586
C  C12  1  0.65340000  0.28440000  0.97510000  1.0 0.5510684586
C  C13  1  0.28440000  0.65340000  0.52490000  1.0 0.5510684586
C  C14  1  0.71560000  0.34660000  0.52490000  1.0 0.5510684586
C  C15  1  0.15340000  0.21560000  0.02490000  1.0 0.5510684586
C  C16  1  0.84660000  0.78440000  0.02490000  1.0 0.5510684586
C  C17  1  0.40340000  0.47390000  0.17560000  1.0 0.5394399351
C  C18  1  0.59660000  0.52610000  0.17560000  1.0 0.5394399351
C  C19  1  0.02610000  0.90340000  0.67560000  1.0 0.5394399351
C  C20  1  0.97390000  0.09660000  0.67560000  1.0 0.5394399351
C  C21  1  0.09660000  0.97390000  0.82440000  1.0 0.5394399351
C  C22  1  0.90340000  0.02610000  0.82440000  1.0 0.5394399351
C  C23  1  0.47390000  0.40340000  0.32440000  1.0 0.5394399351
C  C24  1  0.52610000  0.59660000  0.32440000  1.0 0.5394399351
C  C25  1  0.09660000  0.02610000  0.32440000  1.0 0.5394399351
C  C26  1  0.90340000  0.97390000  0.32440000  1.0 0.5394399351
C  C27  1  0.47390000  0.59660000  0.82440000  1.0 0.5394399351
C  C28  1  0.52610000  0.40340000  0.82440000  1.0 0.5394399351
C  C29  1  0.40340000  0.52610000  0.67560000  1.0 0.5394399351
C  C30  1  0.59660000  0.47390000  0.67560000  1.0 0.5394399351
C  C31  1  0.02610000  0.09660000  0.17560000  1.0 0.5394399351
C  C32  1  0.97390000  0.90340000  0.17560000  1.0 0.5394399351
C  C33  1  0.24010000  0.59600000  0.05130000  1.0 0.5877892113
C  C34  1  0.75990000  0.40400000  0.05130000  1.0 0.5877892113
C  C35  1  0.90400000  0.74010000  0.55130000  1.0 0.5877892113
C  C36  1  0.09600000  0.25990000  0.55130000  1.0 0.5877892113
C  C37  1  0.25990000  0.09600000  0.94870000  1.0 0.5877892113
C  C38  1  0.74010000  0.90400000  0.94870000  1.0 0.5877892113
C  C39  1  0.59600000  0.24010000  0.44870000  1.0 0.5877892113
C  C40  1  0.40400000  0.75990000  0.44870000  1.0 0.5877892113
C  C41  1  0.25990000  0.90400000  0.44870000  1.0 0.5877892113
C  C42  1  0.74010000  0.09600000  0.44870000  1.0 0.5877892113
C  C43  1  0.59600000  0.75990000  0.94870000  1.0 0.5877892113
C  C44  1  0.40400000  0.24010000  0.94870000  1.0 0.5877892113
C  C45  1  0.24010000  0.40400000  0.55130000  1.0 0.5877892113
C  C46  1  0.75990000  0.59600000  0.55130000  1.0 0.5877892113
C  C47  1  0.90400000  0.25990000  0.05130000  1.0 0.5877892113
C  C48  1  0.09600000  0.74010000  0.05130000  1.0 0.5877892113
C  C49  1  0.29420000  0.41000000  0.05590000  1.0 -0.0540900376
C  C50  1  0.70580000  0.59000000  0.05590000  1.0 -0.0540900376
C  C51  1  0.09000000  0.79420000  0.55590000  1.0 -0.0540900376
C  C52  1  0.91000000  0.20580000  0.55590000  1.0 -0.0540900376
C  C53  1  0.20580000  0.91000000  0.94410000  1.0 -0.0540900376
C  C54  1  0.79420000  0.09000000  0.94410000  1.0 -0.0540900376
C  C55  1  0.41000000  0.29420000  0.44410000  1.0 -0.0540900376
C  C56  1  0.59000000  0.70580000  0.44410000  1.0 -0.0540900376
C  C57  1  0.20580000  0.09000000  0.44410000  1.0 -0.0540900376
C  C58  1  0.79420000  0.91000000  0.44410000  1.0 -0.0540900376
C  C59  1  0.41000000  0.70580000  0.94410000  1.0 -0.0540900376
C  C60  1  0.59000000  0.29420000  0.94410000  1.0 -0.0540900376
C  C61  1  0.29420000  0.59000000  0.55590000  1.0 -0.0540900376
C  C62  1  0.70580000  0.41000000  0.55590000  1.0 -0.0540900376
C  C63  1  0.09000000  0.20580000  0.05590000  1.0 -0.0540900376
C  C64  1  0.91000000  0.79420000  0.05590000  1.0 -0.0540900376
C  C65  1  0.26300000  0.47050000  0.04110000  1.0 -0.1120975366
C  C66  1  0.73700000  0.52950000  0.04110000  1.0 -0.1120975366
C  C67  1  0.02950000  0.76300000  0.54110000  1.0 -0.1120975366
C  C68  1  0.97050000  0.23700000  0.54110000  1.0 -0.1120975366
C  C69  1  0.23700000  0.97050000  0.95890000  1.0 -0.1120975366
C  C70  1  0.76300000  0.02950000  0.95890000  1.0 -0.1120975366
C  C71  1  0.47050000  0.26300000  0.45890000  1.0 -0.1120975366
C  C72  1  0.52950000  0.73700000  0.45890000  1.0 -0.1120975366
C  C73  1  0.23700000  0.02950000  0.45890000  1.0 -0.1120975366
C  C74  1  0.76300000  0.97050000  0.45890000  1.0 -0.1120975366
C  C75  1  0.47050000  0.73700000  0.95890000  1.0 -0.1120975366
C  C76  1  0.52950000  0.26300000  0.95890000  1.0 -0.1120975366
C  C77  1  0.26300000  0.52950000  0.54110000  1.0 -0.1120975366
C  C78  1  0.73700000  0.47050000  0.54110000  1.0 -0.1120975366
C  C79  1  0.02950000  0.23700000  0.04110000  1.0 -0.1120975366
C  C80  1  0.97050000  0.76300000  0.04110000  1.0 -0.1120975366
C  C81  1  0.27410000  0.52990000  0.07040000  1.0 -0.028762946
C  C82  1  0.72590000  0.47010000  0.07040000  1.0 -0.028762946
C  C83  1  0.97010000  0.77410000  0.57040000  1.0 -0.028762946
C  C84  1  0.02990000  0.22590000  0.57040000  1.0 -0.028762946
C  C85  1  0.22590000  0.02990000  0.92960000  1.0 -0.028762946
C  C86  1  0.77410000  0.97010000  0.92960000  1.0 -0.028762946
C  C87  1  0.52990000  0.27410000  0.42960000  1.0 -0.028762946
C  C88  1  0.47010000  0.72590000  0.42960000  1.0 -0.028762946
C  C89  1  0.22590000  0.97010000  0.42960000  1.0 -0.028762946
C  C90  1  0.77410000  0.02990000  0.42960000  1.0 -0.028762946
C  C91  1  0.52990000  0.72590000  0.92960000  1.0 -0.028762946
C  C92  1  0.47010000  0.27410000  0.92960000  1.0 -0.028762946
C  C93  1  0.27410000  0.47010000  0.57040000  1.0 -0.028762946
C  C94  1  0.72590000  0.52990000  0.57040000  1.0 -0.028762946
C  C95  1  0.97010000  0.22590000  0.07040000  1.0 -0.028762946
C  C96  1  0.02990000  0.77410000  0.07040000  1.0 -0.028762946
C  C97  1  0.31860000  0.52970000  0.11540000  1.0 -0.0870939597
C  C98  1  0.68140000  0.47030000  0.11540000  1.0 -0.0870939597
C  C99  1  0.97030000  0.81860000  0.61540000  1.0 -0.0870939597
C  C100  1  0.02970000  0.18140000  0.61540000  1.0 -0.0870939597
C  C101  1  0.18140000  0.02970000  0.88460000  1.0 -0.0870939597
C  C102  1  0.81860000  0.97030000  0.88460000  1.0 -0.0870939597
C  C103  1  0.52970000  0.31860000  0.38460000  1.0 -0.0870939597
C  C104  1  0.47030000  0.68140000  0.38460000  1.0 -0.0870939597
C  C105  1  0.18140000  0.97030000  0.38460000  1.0 -0.0870939597
C  C106  1  0.81860000  0.02970000  0.38460000  1.0 -0.0870939597
C  C107  1  0.52970000  0.68140000  0.88460000  1.0 -0.0870939597
C  C108  1  0.47030000  0.31860000  0.88460000  1.0 -0.0870939597
C  C109  1  0.31860000  0.47030000  0.61540000  1.0 -0.0870939597
C  C110  1  0.68140000  0.52970000  0.61540000  1.0 -0.0870939597
C  C111  1  0.97030000  0.18140000  0.11540000  1.0 -0.0870939597
C  C112  1  0.02970000  0.81860000  0.11540000  1.0 -0.0870939597
C  C113  1  0.35200000  0.46910000  0.13040000  1.0 -0.0105588448
C  C114  1  0.64800000  0.53090000  0.13040000  1.0 -0.0105588448
C  C115  1  0.03090000  0.85200000  0.63040000  1.0 -0.0105588448
C  C116  1  0.96910000  0.14800000  0.63040000  1.0 -0.0105588448
C  C117  1  0.14800000  0.96910000  0.86960000  1.0 -0.0105588448
C  C118  1  0.85200000  0.03090000  0.86960000  1.0 -0.0105588448
C  C119  1  0.46910000  0.35200000  0.36960000  1.0 -0.0105588448
C  C120  1  0.53090000  0.64800000  0.36960000  1.0 -0.0105588448
C  C121  1  0.14800000  0.03090000  0.36960000  1.0 -0.0105588448
C  C122  1  0.85200000  0.96910000  0.36960000  1.0 -0.0105588448
C  C123  1  0.46910000  0.64800000  0.86960000  1.0 -0.0105588448
C  C124  1  0.53090000  0.35200000  0.86960000  1.0 -0.0105588448
C  C125  1  0.35200000  0.53090000  0.63040000  1.0 -0.0105588448
C  C126  1  0.64800000  0.46910000  0.63040000  1.0 -0.0105588448
C  C127  1  0.03090000  0.14800000  0.13040000  1.0 -0.0105588448
C  C128  1  0.96910000  0.85200000  0.13040000  1.0 -0.0105588448
C  C129  1  0.33910000  0.40940000  0.10050000  1.0 -0.1120975366
C  C130  1  0.66090000  0.59060000  0.10050000  1.0 -0.1120975366
C  C131  1  0.09060000  0.83910000  0.60050000  1.0 -0.1120975366
C  C132  1  0.90940000  0.16090000  0.60050000  1.0 -0.1120975366
C  C133  1  0.16090000  0.90940000  0.89950000  1.0 -0.1120975366
C  C134  1  0.83910000  0.09060000  0.89950000  1.0 -0.1120975366
C  C135  1  0.40940000  0.33910000  0.39950000  1.0 -0.1120975366
C  C136  1  0.59060000  0.66090000  0.39950000  1.0 -0.1120975366
C  C137  1  0.16090000  0.09060000  0.39950000  1.0 -0.1120975366
C  C138  1  0.83910000  0.90940000  0.39950000  1.0 -0.1120975366
C  C139  1  0.40940000  0.66090000  0.89950000  1.0 -0.1120975366
C  C140  1  0.59060000  0.33910000  0.89950000  1.0 -0.1120975366
C  C141  1  0.33910000  0.59060000  0.60050000  1.0 -0.1120975366
C  C142  1  0.66090000  0.40940000  0.60050000  1.0 -0.1120975366
C  C143  1  0.09060000  0.16090000  0.10050000  1.0 -0.1120975366
C  C144  1  0.90940000  0.83910000  0.10050000  1.0 -0.1120975366
C  C145  1  0.40410000  0.02940000  0.03560000  1.0 0.0024226159
C  C146  1  0.59590000  0.97060000  0.03560000  1.0 0.0024226159
C  C147  1  0.47060000  0.90410000  0.53560000  1.0 0.0024226159
C  C148  1  0.52940000  0.09590000  0.53560000  1.0 0.0024226159
C  C149  1  0.09590000  0.52940000  0.96440000  1.0 0.0024226159
C  C150  1  0.90410000  0.47060000  0.96440000  1.0 0.0024226159
C  C151  1  0.02940000  0.40410000  0.46440000  1.0 -0.0009980846
C  C152  1  0.97060000  0.59590000  0.46440000  1.0 0.0024226159
C  C153  1  0.09590000  0.47060000  0.46440000  1.0 -0.0009980846
C  C154  1  0.90410000  0.52940000  0.46440000  1.0 0.0024226159
C  C155  1  0.02940000  0.59590000  0.96440000  1.0 0.0024226159
C  C156  1  0.97060000  0.40410000  0.96440000  1.0 0.0024226159
C  C157  1  0.40410000  0.97060000  0.53560000  1.0 0.0024226159
C  C158  1  0.59590000  0.02940000  0.53560000  1.0 0.0024226159
C  C159  1  0.47060000  0.09590000  0.03560000  1.0 0.0024226159
C  C160  1  0.52940000  0.90410000  0.03560000  1.0 0.0024226159
C  C161  1  0.42900000  0.92900000  0.99590000  1.0 -0.3012993188
C  C162  1  0.57100000  0.07100000  0.99590000  1.0 -0.3012993188
C  C163  1  0.57100000  0.92900000  0.49590000  1.0 -0.3012993188
C  C164  1  0.42900000  0.07100000  0.49590000  1.0 -0.3012993188
C  C165  1  0.07100000  0.42900000  0.00410000  1.0 -0.3012993188
C  C166  1  0.92900000  0.57100000  0.00410000  1.0 -0.3012993188
C  C167  1  0.92900000  0.42900000  0.50410000  1.0 -0.3012993188
C  C168  1  0.07100000  0.57100000  0.50410000  1.0 -0.3012993188
C  C169  1  0.42960000  0.92960000  0.10480000  1.0 -0.2652117872
C  C170  1  0.57040000  0.07040000  0.10480000  1.0 -0.2652117872
C  C171  1  0.57040000  0.92960000  0.60480000  1.0 -0.2652117872
C  C172  1  0.42960000  0.07040000  0.60480000  1.0 -0.2652117872
C  C173  1  0.07040000  0.42960000  0.89520000  1.0 -0.2652117872
C  C174  1  0.92960000  0.57040000  0.89520000  1.0 -0.2643459105
C  C175  1  0.92960000  0.42960000  0.39520000  1.0 -0.2643459105
C  C176  1  0.07040000  0.57040000  0.39520000  1.0 -0.2652117872
N  N1  1  0.41680000  0.95720000  0.05030000  1.0 -0.028762946
N  N2  1  0.58320000  0.04280000  0.05030000  1.0 -0.028762946
N  N3  1  0.54280000  0.91680000  0.55030000  1.0 -0.028762946
N  N4  1  0.45720000  0.08320000  0.55030000  1.0 -0.028762946
N  N5  1  0.08320000  0.45720000  0.94970000  1.0 -0.028762946
N  N6  1  0.91680000  0.54280000  0.94970000  1.0 -0.028762946
N  N7  1  0.95720000  0.41680000  0.44970000  1.0 -0.028762946
N  N8  1  0.04280000  0.58320000  0.44970000  1.0 -0.028762946
N  N9  1  0.08320000  0.54280000  0.44970000  1.0 -0.028762946
N  N10  1  0.91680000  0.45720000  0.44970000  1.0 -0.028762946
N  N11  1  0.95720000  0.58320000  0.94970000  1.0 -0.028762946
N  N12  1  0.04280000  0.41680000  0.94970000  1.0 -0.028762946
N  N13  1  0.41680000  0.04280000  0.55030000  1.0 -0.028762946
N  N14  1  0.58320000  0.95720000  0.55030000  1.0 -0.028762946
N  N15  1  0.54280000  0.08320000  0.05030000  1.0 -0.028762946
N  N16  1  0.45720000  0.91680000  0.05030000  1.0 -0.028762946
Cl  Cl1  1  0.20749000  0.29251000  0.85279000  1.0 -0.5273307317
Cl  Cl2  1  0.79251000  0.70749000  0.85279000  1.0 -0.5273307317
Cl  Cl3  1  0.20749000  0.70749000  0.35279000  1.0 -0.5273307317
Cl  Cl4  1  0.79251000  0.29251000  0.35279000  1.0 -0.5378030039
Cl  Cl5  1  0.29251000  0.79251000  0.14721000  1.0 -0.5378030039
Cl  Cl6  1  0.70749000  0.20749000  0.14721000  1.0 -0.5378030039
Cl  Cl7  1  0.29251000  0.20749000  0.64721000  1.0 -0.5273307317
Cl  Cl8  1  0.70749000  0.79251000  0.64721000  1.0 -0.5378030039
O  O1  1  0.30620000  0.29100000  0.03770000  1.0 -0.5378030039
O  O2  1  0.69380000  0.70900000  0.03770000  1.0 -0.5378030039
O  O3  1  0.20900000  0.80620000  0.53770000  1.0 -0.5378030039
O  O4  1  0.79100000  0.19380000  0.53770000  1.0 -0.5378030039
O  O5  1  0.19380000  0.79100000  0.96230000  1.0 -0.5378030039
O  O6  1  0.80620000  0.20900000  0.96230000  1.0 -0.5378030039
O  O7  1  0.29100000  0.30620000  0.46230000  1.0 -0.5378030039
O  O8  1  0.70900000  0.69380000  0.46230000  1.0 -0.5378030039
O  O9  1  0.19380000  0.20900000  0.46230000  1.0 -0.5378030039
O  O10  1  0.80620000  0.79100000  0.46230000  1.0 -0.5378030039
O  O11  1  0.29100000  0.69380000  0.96230000  1.0 -0.5378030039
O  O12  1  0.70900000  0.30620000  0.96230000  1.0 -0.5378030039
O  O13  1  0.30620000  0.70900000  0.53770000  1.0 -0.5378030039
O  O14  1  0.69380000  0.29100000  0.53770000  1.0 -0.5378030039
O  O15  1  0.20900000  0.19380000  0.03770000  1.0 -0.5378030039
O  O16  1  0.79100000  0.80620000  0.03770000  1.0 -0.5378030039
O  O17  1  0.25230000  0.35230000  0.97900000  1.0 -0.5273307317
O  O18  1  0.74770000  0.64770000  0.97900000  1.0 -0.5273307317
O  O19  1  0.14770000  0.75230000  0.47900000  1.0 -0.5273307317
O  O20  1  0.85230000  0.24770000  0.47900000  1.0 -0.5273307317
O  O21  1  0.24770000  0.85230000  0.02100000  1.0 -0.5273307317
O  O22  1  0.75230000  0.14770000  0.02100000  1.0 -0.5273307317
O  O23  1  0.35230000  0.25230000  0.52100000  1.0 -0.5273307317
O  O24  1  0.64770000  0.74770000  0.52100000  1.0 -0.5273307317
O  O25  1  0.24770000  0.14770000  0.52100000  1.0 -0.5273307317
O  O26  1  0.75230000  0.85230000  0.52100000  1.0 -0.5273307317
O  O27  1  0.35230000  0.74770000  0.02100000  1.0 -0.5273307317
O  O28  1  0.64770000  0.25230000  0.02100000  1.0 -0.5273307317
O  O29  1  0.25230000  0.64770000  0.47900000  1.0 -0.5273307317
O  O30  1  0.74770000  0.35230000  0.47900000  1.0 -0.5273307317
O  O31  1  0.14770000  0.24770000  0.97900000  1.0 -0.5273307317
O  O32  1  0.85230000  0.75230000  0.97900000  1.0 -0.5273307317
O  O33  1  0.41090000  0.52810000  0.20110000  1.0 -0.5123210253
O  O34  1  0.58910000  0.47190000  0.20110000  1.0 -0.5123210253
O  O35  1  0.97190000  0.91090000  0.70110000  1.0 -0.5123210253
O  O36  1  0.02810000  0.08910000  0.70110000  1.0 -0.5123210253
O  O37  1  0.08910000  0.02810000  0.79890000  1.0 -0.5123210253
O  O38  1  0.91090000  0.97190000  0.79890000  1.0 -0.5123210253
O  O39  1  0.52810000  0.41090000  0.29890000  1.0 -0.5123210253
O  O40  1  0.47190000  0.58910000  0.29890000  1.0 -0.5123210253
O  O41  1  0.08910000  0.97190000  0.29890000  1.0 -0.5123210253
O  O42  1  0.91090000  0.02810000  0.29890000  1.0 -0.5123210253
O  O43  1  0.52810000  0.58910000  0.79890000  1.0 -0.5123210253
O  O44  1  0.47190000  0.41090000  0.79890000  1.0 -0.5123210253
O  O45  1  0.41090000  0.47190000  0.70110000  1.0 -0.5123210253
O  O46  1  0.58910000  0.52810000  0.70110000  1.0 -0.5123210253
O  O47  1  0.97190000  0.08910000  0.20110000  1.0 -0.5123210253
O  O48  1  0.02810000  0.91090000  0.20110000  1.0 -0.5123210253
O  O49  1  0.44140000  0.42380000  0.18560000  1.0 -0.5378030039
O  O50  1  0.55860000  0.57620000  0.18560000  1.0 -0.5378030039
O  O51  1  0.07620000  0.94140000  0.68560000  1.0 -0.5378030039
O  O52  1  0.92380000  0.05860000  0.68560000  1.0 -0.5378030039
O  O53  1  0.05860000  0.92380000  0.81440000  1.0 -0.5378030039
O  O54  1  0.94140000  0.07620000  0.81440000  1.0 -0.5378030039
O  O55  1  0.42380000  0.44140000  0.31440000  1.0 -0.5378030039
O  O56  1  0.57620000  0.55860000  0.31440000  1.0 -0.5378030039
O  O57  1  0.05860000  0.07620000  0.31440000  1.0 -0.5378030039
O  O58  1  0.94140000  0.92380000  0.31440000  1.0 -0.5378030039
O  O59  1  0.42380000  0.55860000  0.81440000  1.0 -0.5378030039
O  O60  1  0.57620000  0.44140000  0.81440000  1.0 -0.5378030039
O  O61  1  0.44140000  0.57620000  0.68560000  1.0 -0.5378030039
O  O62  1  0.55860000  0.42380000  0.68560000  1.0 -0.5378030039
O  O63  1  0.07620000  0.05860000  0.18560000  1.0 -0.5378030039
O  O64  1  0.92380000  0.94140000  0.18560000  1.0 -0.5378030039
O  O65  1  0.25900000  0.64890000  0.07990000  1.0 -0.5621987992
O  O66  1  0.74100000  0.35110000  0.07990000  1.0 -0.5621987992
O  O67  1  0.85110000  0.75900000  0.57990000  1.0 -0.5621987992
O  O68  1  0.14890000  0.24100000  0.57990000  1.0 -0.5621987992
O  O69  1  0.24100000  0.14890000  0.92010000  1.0 -0.5621987992
O  O70  1  0.75900000  0.85110000  0.92010000  1.0 -0.5621987992
O  O71  1  0.64890000  0.25900000  0.42010000  1.0 -0.5621987992
O  O72  1  0.35110000  0.74100000  0.42010000  1.0 -0.5621987992
O  O73  1  0.24100000  0.85110000  0.42010000  1.0 -0.5621987992
O  O74  1  0.75900000  0.14890000  0.42010000  1.0 -0.5621987992
O  O75  1  0.64890000  0.74100000  0.92010000  1.0 -0.5621987992
O  O76  1  0.35110000  0.25900000  0.92010000  1.0 -0.5621987992
O  O77  1  0.25900000  0.35110000  0.57990000  1.0 -0.5621987992
O  O78  1  0.74100000  0.64890000  0.57990000  1.0 -0.5621987992
O  O79  1  0.85110000  0.24100000  0.07990000  1.0 -0.5621987992
O  O80  1  0.14890000  0.75900000  0.07990000  1.0 -0.5621987992
O  O81  1  0.20250000  0.59580000  0.01170000  1.0 -0.5906669052
O  O82  1  0.79750000  0.40420000  0.01170000  1.0 -0.5906669052
O  O83  1  0.90420000  0.70250000  0.51170000  1.0 -0.5906669052
O  O84  1  0.09580000  0.29750000  0.51170000  1.0 -0.5906669052
O  O85  1  0.29750000  0.09580000  0.98830000  1.0 -0.5906669052
O  O86  1  0.70250000  0.90420000  0.98830000  1.0 -0.5906669052
O  O87  1  0.59580000  0.20250000  0.48830000  1.0 -0.5906669052
O  O88  1  0.40420000  0.79750000  0.48830000  1.0 -0.5906669052
O  O89  1  0.29750000  0.90420000  0.48830000  1.0 -0.5906669052
O  O90  1  0.70250000  0.09580000  0.48830000  1.0 -0.5906669052
O  O91  1  0.59580000  0.79750000  0.98830000  1.0 -0.5906669052
O  O92  1  0.40420000  0.20250000  0.98830000  1.0 -0.5906669052
O  O93  1  0.20250000  0.40420000  0.51170000  1.0 -0.5906669052
O  O94  1  0.79750000  0.59580000  0.51170000  1.0 -0.5906669052
O  O95  1  0.90420000  0.29750000  0.01170000  1.0 -0.5906669052
O  O96  1  0.09580000  0.70250000  0.01170000  1.0 -0.5906669052
O  O97  1  0.39150000  0.06810000  0.07490000  1.0 -0.0982035447
O  O98  1  0.60850000  0.93190000  0.07490000  1.0 -0.0982035447
O  O99  1  0.43190000  0.89150000  0.57490000  1.0 -0.0982035447
O  O100  1  0.56810000  0.10850000  0.57490000  1.0 -0.0982035447
O  O101  1  0.10850000  0.56810000  0.92510000  1.0 -0.0982035447
O  O102  1  0.89150000  0.43190000  0.92510000  1.0 -0.0982035447
O  O103  1  0.06810000  0.39150000  0.42510000  1.0 -0.0982035447
O  O104  1  0.93190000  0.60850000  0.42510000  1.0 -0.0982035447
O  O105  1  0.10850000  0.43190000  0.42510000  1.0 -0.0982035447
O  O106  1  0.89150000  0.56810000  0.42510000  1.0 -0.0982035447
O  O107  1  0.06810000  0.60850000  0.92510000  1.0 -0.0982035447
O  O108  1  0.93190000  0.39150000  0.92510000  1.0 -0.0982035447
O  O109  1  0.39150000  0.93190000  0.57490000  1.0 -0.0982035447
O  O110  1  0.60850000  0.06810000  0.57490000  1.0 -0.0982035447
O  O111  1  0.43190000  0.10850000  0.07490000  1.0 -0.0982035447
O  O112  1  0.56810000  0.89150000  0.07490000  1.0 -0.0982035447
O  O113  1  0.26940000  0.18620000  0.14750000  1.0 -0.2056191478
O  O114  1  0.73060000  0.81380000  0.14750000  1.0 -0.2056191478
O  O115  1  0.31380000  0.76940000  0.64750000  1.0 -0.2056191478
O  O116  1  0.68620000  0.23060000  0.64750000  1.0 -0.2056191478
O  O117  1  0.23060000  0.68620000  0.85250000  1.0 -0.2056191478
O  O118  1  0.76940000  0.31380000  0.85250000  1.0 -0.2056191478
O  O119  1  0.18620000  0.26940000  0.35250000  1.0 -0.2034888231
O  O120  1  0.81380000  0.73060000  0.35250000  1.0 -0.2034888231
O  O121  1  0.23060000  0.31380000  0.35250000  1.0 -0.2034888231
O  O122  1  0.76940000  0.68620000  0.35250000  1.0 -0.2034888231
O  O123  1  0.18620000  0.73060000  0.85250000  1.0 -0.2056191478
O  O124  1  0.81380000  0.26940000  0.85250000  1.0 -0.2056191478
O  O125  1  0.26940000  0.81380000  0.64750000  1.0 -0.2056191478
O  O126  1  0.73060000  0.18620000  0.64750000  1.0 -0.2056191478
O  O127  1  0.31380000  0.23060000  0.14750000  1.0 -0.2056191478
O  O128  1  0.68620000  0.76940000  0.14750000  1.0 -0.2056191478
