# DDEC6 charges by PACMAN v1.1 (https://github.com/mtap-research/PACMAN-charge/)
data_PAVKIH_ion_pacman
_symmetry_space_group_name_H-M   'P 1'
_cell_length_a   24.03950000
_cell_length_b   14.81680000
_cell_length_c   42.37340000
_cell_angle_alpha   90.00000000
_cell_angle_beta   97.12100000
_cell_angle_gamma   90.00000000
_symmetry_Int_Tables_number   1
_chemical_formula_structural   Ag3H34C41S3N10O13F9
_chemical_formula_sum   'Ag24 H272 C328 S24 N80 O104 F72'
_cell_volume   14976.49807436
_cell_formula_units_Z   8
loop_
 _symmetry_equiv_pos_site_id
 _symmetry_equiv_pos_as_xyz
  1  'x, y, z'
loop_
 _atom_site_type_symbol
 _atom_site_label
 _atom_site_symmetry_multiplicity
 _atom_site_fract_x
 _atom_site_fract_y
 _atom_site_fract_z
 _atom_site_occupancy
 _atom_site_charge
Ag  Ag1  1  0.82873000  0.38835000  0.73189000  1.0 0.2797877041
Ag  Ag2  1  0.17127000  0.88835000  0.76811000  1.0 0.2797877041
Ag  Ag3  1  0.17127000  0.61165000  0.26811000  1.0 0.2797877041
Ag  Ag4  1  0.82873000  0.11165000  0.23189000  1.0 0.2797877041
Ag  Ag5  1  0.66898000  0.16321000  0.77344000  1.0 0.2947650624
Ag  Ag6  1  0.33102000  0.66321000  0.72656000  1.0 0.2947650624
Ag  Ag7  1  0.33102000  0.83679000  0.22656000  1.0 0.2947650624
Ag  Ag8  1  0.66898000  0.33679000  0.27344000  1.0 0.2963778449
Ag  Ag9  1  0.25171000  0.22375000  0.50209000  1.0 0.3930646476
Ag  Ag10  1  0.74829000  0.72375000  0.99791000  1.0 0.3930646476
Ag  Ag11  1  0.74829000  0.77625000  0.49791000  1.0 0.3969485186
Ag  Ag12  1  0.25171000  0.27625000  0.00209000  1.0 0.3930646476
Ag  Ag13  1  0.50000000  0.50000000  0.50000000  1.0 0.3786545787
Ag  Ag14  1  0.50000000  0.00000000  0.00000000  1.0 0.3786545787
Ag  Ag15  1  0.00000000  0.50000000  0.50000000  1.0 0.3674488637
Ag  Ag16  1  0.00000000  0.00000000  0.00000000  1.0 0.3674488637
Ag  Ag17  1  0.46384000  0.54045000  0.66298000  1.0 0.4425472205
Ag  Ag18  1  0.53616000  0.04045000  0.83702000  1.0 0.4425472205
Ag  Ag19  1  0.53616000  0.45955000  0.33702000  1.0 0.4425472205
Ag  Ag20  1  0.46384000  0.95955000  0.16298000  1.0 0.4425472205
Ag  Ag21  1  0.03532000  0.49782000  0.33624000  1.0 0.4327129868
Ag  Ag22  1  0.96468000  0.99782000  0.16376000  1.0 0.4327129868
Ag  Ag23  1  0.96468000  0.50218000  0.66376000  1.0 0.4327129868
Ag  Ag24  1  0.03532000  0.00218000  0.83624000  1.0 0.4327129868
H  H1  1  0.89390000  0.26800000  0.78520000  1.0 0.1199615135
H  H2  1  0.10610000  0.76800000  0.71480000  1.0 0.1199615135
H  H3  1  0.10610000  0.73200000  0.21480000  1.0 0.1199615135
H  H4  1  0.89390000  0.23200000  0.28520000  1.0 0.1199615135
H  H5  1  0.97780000  0.18220000  0.79460000  1.0 0.1502900691
H  H6  1  0.02220000  0.68220000  0.70540000  1.0 0.1502900691
H  H7  1  0.02220000  0.81780000  0.20540000  1.0 0.1502900691
H  H8  1  0.97780000  0.31780000  0.29460000  1.0 0.1502900691
H  H9  1  0.00780000  0.24920000  0.70580000  1.0 0.1502900691
H  H10  1  0.99220000  0.74920000  0.79420000  1.0 0.1502900691
H  H11  1  0.99220000  0.75080000  0.29420000  1.0 0.1502900691
H  H12  1  0.00780000  0.25080000  0.20580000  1.0 0.1502900691
H  H13  1  0.92670000  0.33520000  0.70040000  1.0 0.1093615136
H  H14  1  0.07330000  0.83520000  0.79960000  1.0 0.1093615136
H  H15  1  0.07330000  0.66480000  0.29960000  1.0 0.1093615136
H  H16  1  0.92670000  0.16480000  0.20040000  1.0 0.1093615136
H  H17  1  0.09810000  0.25620000  0.74510000  1.0 0.1309542055
H  H18  1  0.90190000  0.75620000  0.75490000  1.0 0.1309542055
H  H19  1  0.90190000  0.74380000  0.25490000  1.0 0.1309542055
H  H20  1  0.09810000  0.24380000  0.24510000  1.0 0.1309542055
H  H21  1  0.12510000  0.19340000  0.77370000  1.0 0.1502900691
H  H22  1  0.87490000  0.69340000  0.72630000  1.0 0.1502900691
H  H23  1  0.87490000  0.80660000  0.22630000  1.0 0.1502900691
H  H24  1  0.12510000  0.30660000  0.27370000  1.0 0.1502900691
H  H25  1  0.12380000  0.16000000  0.73770000  1.0 0.1309542055
H  H26  1  0.87620000  0.66000000  0.76230000  1.0 0.1309542055
H  H27  1  0.87620000  0.84000000  0.26230000  1.0 0.1309542055
H  H28  1  0.12380000  0.34000000  0.23770000  1.0 0.1309542055
H  H29  1  0.79760000  0.16710000  0.79140000  1.0 0.1093615136
H  H30  1  0.20240000  0.66710000  0.70860000  1.0 0.1093615136
H  H31  1  0.20240000  0.83290000  0.20860000  1.0 0.1093615136
H  H32  1  0.79760000  0.33290000  0.29140000  1.0 0.1093615136
H  H33  1  0.87270000  0.07740000  0.81330000  1.0 0.1404678049
H  H34  1  0.12730000  0.57740000  0.68670000  1.0 0.1404678049
H  H35  1  0.12730000  0.92260000  0.18670000  1.0 0.1404678049
H  H36  1  0.87270000  0.42260000  0.31330000  1.0 0.1404678049
H  H37  1  0.76090000  0.87140000  0.81340000  1.0 0.1502900691
H  H38  1  0.23910000  0.37140000  0.68660000  1.0 0.1502900691
H  H39  1  0.23910000  0.12860000  0.18660000  1.0 0.1502900691
H  H40  1  0.76090000  0.62860000  0.31340000  1.0 0.1502900691
H  H41  1  0.69000000  0.97290000  0.79630000  1.0 0.1309542055
H  H42  1  0.31000000  0.47290000  0.70370000  1.0 0.1309542055
H  H43  1  0.31000000  0.02710000  0.20370000  1.0 0.1309542055
H  H44  1  0.69000000  0.52710000  0.29630000  1.0 0.1309542055
H  H45  1  0.89220000  0.81650000  0.86420000  1.0 0.1404678049
H  H46  1  0.10780000  0.31650000  0.63580000  1.0 0.1404678049
H  H47  1  0.10780000  0.18350000  0.13580000  1.0 0.1404678049
H  H48  1  0.89220000  0.68350000  0.36420000  1.0 0.1404678049
H  H49  1  0.85620000  0.89960000  0.87470000  1.0 0.1404678049
H  H50  1  0.14380000  0.39960000  0.62530000  1.0 0.1404678049
H  H51  1  0.14380000  0.10040000  0.12530000  1.0 0.1404678049
H  H52  1  0.85620000  0.60040000  0.37470000  1.0 0.1404678049
H  H53  1  0.82580000  0.81850000  0.85440000  1.0 0.1309542055
H  H54  1  0.17420000  0.31850000  0.64560000  1.0 0.1309542055
H  H55  1  0.17420000  0.18150000  0.14560000  1.0 0.1309542055
H  H56  1  0.82580000  0.68150000  0.35440000  1.0 0.1309542055
H  H57  1  0.22080000  0.10060000  0.44200000  1.0 0.1309542055
H  H58  1  0.77920000  0.60060000  0.05800000  1.0 0.1309542055
H  H59  1  0.77920000  0.89940000  0.55800000  1.0 0.1309542055
H  H60  1  0.22080000  0.39940000  0.94200000  1.0 0.1309542055
H  H61  1  0.17070000  0.10680000  0.39300000  1.0 0.1404678049
H  H62  1  0.82930000  0.60680000  0.10700000  1.0 0.1404678049
H  H63  1  0.82930000  0.89320000  0.60700000  1.0 0.1404678049
H  H64  1  0.17070000  0.39320000  0.89300000  1.0 0.1404678049
H  H65  1  0.09880000  0.33980000  0.41770000  1.0 0.1404678049
H  H66  1  0.90120000  0.83980000  0.08230000  1.0 0.1502900691
H  H67  1  0.90120000  0.66020000  0.58230000  1.0 0.1502900691
H  H68  1  0.09880000  0.16020000  0.91770000  1.0 0.1404678049
H  H69  1  0.14460000  0.32480000  0.46950000  1.0 0.1199615135
H  H70  1  0.85540000  0.82480000  0.03050000  1.0 0.1199615135
H  H71  1  0.85540000  0.67520000  0.53050000  1.0 0.1199615135
H  H72  1  0.14460000  0.17520000  0.96950000  1.0 0.1199615135
H  H73  1  0.05620000  0.18080000  0.33220000  1.0 0.1502900691
H  H74  1  0.94380000  0.68080000  0.16780000  1.0 0.1502900691
H  H75  1  0.94380000  0.81920000  0.66780000  1.0 0.1502900691
H  H76  1  0.05620000  0.31920000  0.83220000  1.0 0.1502900691
H  H77  1  0.04160000  0.15210000  0.36660000  1.0 0.1502900691
H  H78  1  0.95840000  0.65210000  0.13340000  1.0 0.1502900691
H  H79  1  0.95840000  0.84790000  0.63340000  1.0 0.1502900691
H  H80  1  0.04160000  0.34790000  0.86660000  1.0 0.1502900691
H  H81  1  0.09550000  0.11060000  0.35320000  1.0 0.1309542055
H  H82  1  0.90450000  0.61060000  0.14680000  1.0 0.1309542055
H  H83  1  0.90450000  0.88940000  0.64680000  1.0 0.1309542055
H  H84  1  0.09550000  0.38940000  0.85320000  1.0 0.1309542055
H  H85  1  0.38870000  0.53970000  0.52560000  1.0 0.1093615136
H  H86  1  0.61130000  0.03970000  0.97440000  1.0 0.1093615136
H  H87  1  0.61130000  0.46030000  0.47440000  1.0 0.1093615136
H  H88  1  0.38870000  0.96030000  0.02560000  1.0 0.1093615136
H  H89  1  0.35390000  0.61660000  0.56640000  1.0 0.1404678049
H  H90  1  0.64610000  0.11660000  0.93360000  1.0 0.1404678049
H  H91  1  0.64610000  0.38340000  0.43360000  1.0 0.1404678049
H  H92  1  0.35390000  0.88340000  0.06640000  1.0 0.1404678049
H  H93  1  0.51120000  0.66130000  0.60720000  1.0 0.1502900691
H  H94  1  0.48880000  0.16130000  0.89280000  1.0 0.1502900691
H  H95  1  0.48880000  0.33870000  0.39280000  1.0 0.1502900691
H  H96  1  0.51120000  0.83870000  0.10720000  1.0 0.1502900691
H  H97  1  0.54360000  0.59490000  0.56390000  1.0 0.1199615135
H  H98  1  0.45640000  0.09490000  0.93610000  1.0 0.1199615135
H  H99  1  0.45640000  0.40510000  0.43610000  1.0 0.1199615135
H  H100  1  0.54360000  0.90510000  0.06390000  1.0 0.1199615135
H  H101  1  0.42490000  0.82380000  0.63940000  1.0 0.1404678049
H  H102  1  0.57510000  0.32380000  0.86060000  1.0 0.1404678049
H  H103  1  0.57510000  0.17620000  0.36060000  1.0 0.1404678049
H  H104  1  0.42490000  0.67620000  0.13940000  1.0 0.1404678049
H  H105  1  0.47960000  0.78130000  0.62720000  1.0 0.1309542055
H  H106  1  0.52040000  0.28130000  0.87280000  1.0 0.1309542055
H  H107  1  0.52040000  0.21870000  0.37280000  1.0 0.1309542055
H  H108  1  0.47960000  0.71870000  0.12720000  1.0 0.1309542055
H  H109  1  0.43280000  0.82880000  0.60250000  1.0 0.1404678049
H  H110  1  0.56720000  0.32880000  0.89750000  1.0 0.1404678049
H  H111  1  0.56720000  0.17120000  0.39750000  1.0 0.1404678049
H  H112  1  0.43280000  0.67120000  0.10250000  1.0 0.1404678049
H  H113  1  0.95750000  0.55970000  0.43250000  1.0 0.1199615135
H  H114  1  0.04250000  0.05970000  0.06750000  1.0 0.1199615135
H  H115  1  0.04250000  0.44030000  0.56750000  1.0 0.1199615135
H  H116  1  0.95750000  0.94030000  0.93250000  1.0 0.1199615135
H  H117  1  0.99030000  0.63730000  0.39140000  1.0 0.1502900691
H  H118  1  0.00970000  0.13730000  0.10860000  1.0 0.1502900691
H  H119  1  0.00970000  0.36270000  0.60860000  1.0 0.1502900691
H  H120  1  0.99030000  0.86270000  0.89140000  1.0 0.1502900691
H  H121  1  0.15020000  0.59440000  0.43000000  1.0 0.1404678049
H  H122  1  0.84980000  0.09440000  0.07000000  1.0 0.1404678049
H  H123  1  0.84980000  0.40560000  0.57000000  1.0 0.1404678049
H  H124  1  0.15020000  0.90560000  0.93000000  1.0 0.1404678049
H  H125  1  0.11240000  0.52360000  0.47140000  1.0 0.1199615135
H  H126  1  0.88760000  0.02360000  0.02860000  1.0 0.1199615135
H  H127  1  0.88760000  0.47640000  0.52860000  1.0 0.1199615135
H  H128  1  0.11240000  0.97640000  0.97140000  1.0 0.1199615135
H  H129  1  0.08340000  0.78610000  0.35470000  1.0 0.1404678049
H  H130  1  0.91660000  0.28610000  0.14530000  1.0 0.1404678049
H  H131  1  0.91660000  0.21390000  0.64530000  1.0 0.1404678049
H  H132  1  0.08340000  0.71390000  0.85470000  1.0 0.1404678049
H  H133  1  0.07270000  0.79860000  0.39090000  1.0 0.1404678049
H  H134  1  0.92730000  0.29860000  0.10910000  1.0 0.1404678049
H  H135  1  0.92730000  0.20140000  0.60910000  1.0 0.1404678049
H  H136  1  0.07270000  0.70140000  0.89090000  1.0 0.1404678049
H  H137  1  0.02560000  0.75310000  0.36590000  1.0 0.1404678049
H  H138  1  0.97440000  0.25310000  0.13410000  1.0 0.1404678049
H  H139  1  0.97440000  0.24690000  0.63410000  1.0 0.1404678049
H  H140  1  0.02560000  0.74690000  0.86590000  1.0 0.1309542055
H  H141  1  0.63800000  0.65070000  0.73790000  1.0 0.1309542055
H  H142  1  0.36200000  0.15070000  0.76210000  1.0 0.1309542055
H  H143  1  0.36200000  0.34930000  0.26210000  1.0 0.1309542055
H  H144  1  0.63800000  0.84930000  0.23790000  1.0 0.1309542055
H  H145  1  0.61450000  0.59490000  0.78640000  1.0 0.1309542055
H  H146  1  0.38550000  0.09490000  0.71360000  1.0 0.1309542055
H  H147  1  0.38550000  0.40510000  0.21360000  1.0 0.1309542055
H  H148  1  0.61450000  0.90510000  0.28640000  1.0 0.1309542055
H  H149  1  0.52800000  0.51580000  0.78430000  1.0 0.1309542055
H  H150  1  0.47200000  0.01580000  0.71570000  1.0 0.1309542055
H  H151  1  0.47200000  0.48420000  0.21570000  1.0 0.1309542055
H  H152  1  0.52800000  0.98420000  0.28430000  1.0 0.1309542055
H  H153  1  0.85970000  0.90200000  0.76010000  1.0 0.1404678049
H  H154  1  0.14030000  0.40200000  0.73990000  1.0 0.1404678049
H  H155  1  0.14030000  0.09800000  0.23990000  1.0 0.1404678049
H  H156  1  0.85970000  0.59800000  0.26010000  1.0 0.1404678049
H  H157  1  0.88890000  0.95480000  0.71160000  1.0 0.1309542055
H  H158  1  0.11110000  0.45480000  0.78840000  1.0 0.1309542055
H  H159  1  0.11110000  0.04520000  0.28840000  1.0 0.1309542055
H  H160  1  0.88890000  0.54520000  0.21160000  1.0 0.1309542055
H  H161  1  0.97430000  0.03350000  0.71470000  1.0 0.1404678049
H  H162  1  0.02570000  0.53350000  0.78530000  1.0 0.1404678049
H  H163  1  0.02570000  0.96650000  0.28530000  1.0 0.1404678049
H  H164  1  0.97430000  0.46650000  0.21470000  1.0 0.1404678049
H  H165  1  0.60410000  0.28110000  0.71920000  1.0 0.1199615135
H  H166  1  0.39590000  0.78110000  0.78080000  1.0 0.1199615135
H  H167  1  0.39590000  0.71890000  0.28080000  1.0 0.1199615135
H  H168  1  0.60410000  0.21890000  0.21920000  1.0 0.1199615135
H  H169  1  0.52020000  0.36370000  0.70850000  1.0 0.1502900691
H  H170  1  0.47980000  0.86370000  0.79150000  1.0 0.1502900691
H  H171  1  0.47980000  0.63630000  0.29150000  1.0 0.1502900691
H  H172  1  0.52020000  0.13630000  0.20850000  1.0 0.1502900691
H  H173  1  0.49060000  0.31090000  0.79750000  1.0 0.1502900691
H  H174  1  0.50940000  0.81090000  0.70250000  1.0 0.1502900691
H  H175  1  0.50940000  0.68910000  0.20250000  1.0 0.1502900691
H  H176  1  0.49060000  0.18910000  0.29750000  1.0 0.1502900691
H  H177  1  0.56590000  0.21520000  0.80390000  1.0 0.1199615135
H  H178  1  0.43410000  0.71520000  0.69610000  1.0 0.1199615135
H  H179  1  0.43410000  0.78480000  0.19610000  1.0 0.1199615135
H  H180  1  0.56590000  0.28480000  0.30390000  1.0 0.1199615135
H  H181  1  0.36510000  0.40470000  0.74870000  1.0 0.1404678049
H  H182  1  0.63490000  0.90470000  0.75130000  1.0 0.1404678049
H  H183  1  0.63490000  0.59530000  0.25130000  1.0 0.1404678049
H  H184  1  0.36510000  0.09530000  0.24870000  1.0 0.1404678049
H  H185  1  0.38590000  0.31050000  0.73580000  1.0 0.1502900691
H  H186  1  0.61410000  0.81050000  0.76420000  1.0 0.1502900691
H  H187  1  0.61410000  0.68950000  0.26420000  1.0 0.1502900691
H  H188  1  0.38590000  0.18950000  0.23580000  1.0 0.1502900691
H  H189  1  0.39620000  0.33300000  0.77300000  1.0 0.1199615135
H  H190  1  0.60380000  0.83300000  0.72700000  1.0 0.1309542055
H  H191  1  0.60380000  0.66700000  0.22700000  1.0 0.1199615135
H  H192  1  0.39620000  0.16700000  0.27300000  1.0 0.1199615135
H  H193  1  0.70000000  0.38070000  0.70900000  1.0 0.1093615136
H  H194  1  0.30000000  0.88070000  0.79100000  1.0 0.1093615136
H  H195  1  0.30000000  0.61930000  0.29100000  1.0 0.1093615136
H  H196  1  0.70000000  0.11930000  0.20900000  1.0 0.1093615136
H  H197  1  0.62770000  0.47230000  0.68690000  1.0 0.1404678049
H  H198  1  0.37230000  0.97230000  0.81310000  1.0 0.1404678049
H  H199  1  0.37230000  0.52770000  0.31310000  1.0 0.1404678049
H  H200  1  0.62770000  0.02770000  0.18690000  1.0 0.1404678049
H  H201  1  0.74120000  0.67520000  0.68640000  1.0 0.1502900691
H  H202  1  0.25880000  0.17520000  0.81360000  1.0 0.1502900691
H  H203  1  0.25880000  0.32480000  0.31360000  1.0 0.1502900691
H  H204  1  0.74120000  0.82480000  0.18640000  1.0 0.1502900691
H  H205  1  0.80740000  0.57720000  0.70690000  1.0 0.1199615135
H  H206  1  0.19260000  0.07720000  0.79310000  1.0 0.1199615135
H  H207  1  0.19260000  0.42280000  0.29310000  1.0 0.1199615135
H  H208  1  0.80740000  0.92280000  0.20690000  1.0 0.1199615135
H  H209  1  0.60640000  0.72900000  0.63440000  1.0 0.1404678049
H  H210  1  0.39360000  0.22900000  0.86560000  1.0 0.1404678049
H  H211  1  0.39360000  0.27100000  0.36560000  1.0 0.1404678049
H  H212  1  0.60640000  0.77100000  0.13440000  1.0 0.1404678049
H  H213  1  0.67310000  0.72630000  0.64300000  1.0 0.1404678049
H  H214  1  0.32690000  0.22630000  0.85700000  1.0 0.1404678049
H  H215  1  0.32690000  0.27370000  0.35700000  1.0 0.1404678049
H  H216  1  0.67310000  0.77370000  0.14300000  1.0 0.1404678049
H  H217  1  0.64120000  0.64460000  0.62380000  1.0 0.1502900691
H  H218  1  0.35880000  0.14460000  0.87620000  1.0 0.1502900691
H  H219  1  0.35880000  0.35540000  0.37620000  1.0 0.1502900691
H  H220  1  0.64120000  0.85540000  0.12380000  1.0 0.1502900691
H  H221  1  0.28410000  0.12130000  0.56510000  1.0 0.1199615135
H  H222  1  0.71590000  0.62130000  0.93490000  1.0 0.1199615135
H  H223  1  0.71590000  0.87870000  0.43490000  1.0 0.1199615135
H  H224  1  0.28410000  0.37870000  0.06510000  1.0 0.1199615135
H  H225  1  0.32650000  0.14560000  0.61590000  1.0 0.1502900691
H  H226  1  0.67350000  0.64560000  0.88410000  1.0 0.1502900691
H  H227  1  0.67350000  0.85440000  0.38410000  1.0 0.1502900691
H  H228  1  0.32650000  0.35440000  0.11590000  1.0 0.1502900691
H  H229  1  0.40100000  0.36610000  0.58100000  1.0 0.1502900691
H  H230  1  0.59900000  0.86610000  0.91900000  1.0 0.1502900691
H  H231  1  0.59900000  0.63390000  0.41900000  1.0 0.1502900691
H  H232  1  0.40100000  0.13390000  0.08100000  1.0 0.1502900691
H  H233  1  0.35550000  0.33510000  0.53280000  1.0 0.1199615135
H  H234  1  0.64450000  0.83510000  0.96720000  1.0 0.1199615135
H  H235  1  0.64450000  0.66490000  0.46720000  1.0 0.1199615135
H  H236  1  0.35550000  0.16490000  0.03280000  1.0 0.1199615135
H  H237  1  0.44480000  0.22180000  0.67340000  1.0 0.1502900691
H  H238  1  0.55520000  0.72180000  0.82660000  1.0 0.1502900691
H  H239  1  0.55520000  0.77820000  0.32660000  1.0 0.1502900691
H  H240  1  0.44480000  0.27820000  0.17340000  1.0 0.1502900691
H  H241  1  0.40350000  0.15030000  0.65440000  1.0 0.1309542055
H  H242  1  0.59650000  0.65030000  0.84560000  1.0 0.1309542055
H  H243  1  0.59650000  0.84970000  0.34560000  1.0 0.1309542055
H  H244  1  0.40350000  0.34970000  0.15440000  1.0 0.1309542055
H  H245  1  0.45850000  0.18350000  0.63990000  1.0 0.1502900691
H  H246  1  0.54150000  0.68350000  0.86010000  1.0 0.1502900691
H  H247  1  0.54150000  0.81650000  0.36010000  1.0 0.1502900691
H  H248  1  0.45850000  0.31650000  0.13990000  1.0 0.1502900691
H  H249  1  0.28650000  0.35670000  0.62140000  1.0 0.1404678049
H  H250  1  0.71350000  0.85670000  0.87860000  1.0 0.1404678049
H  H251  1  0.71350000  0.64330000  0.37860000  1.0 0.1404678049
H  H252  1  0.28650000  0.14330000  0.12140000  1.0 0.1404678049
H  H253  1  0.22850000  0.47490000  0.60730000  1.0 0.1404678049
H  H254  1  0.77150000  0.97490000  0.89270000  1.0 0.1404678049
H  H255  1  0.77150000  0.52510000  0.39270000  1.0 0.1404678049
H  H256  1  0.22850000  0.02510000  0.10730000  1.0 0.1404678049
H  H257  1  0.26180000  0.62360000  0.61100000  1.0 0.1502900691
H  H258  1  0.73820000  0.12360000  0.88900000  1.0 0.1502900691
H  H259  1  0.73820000  0.37640000  0.38900000  1.0 0.1502900691
H  H260  1  0.26180000  0.87640000  0.11100000  1.0 0.1502900691
H  H261  1  0.23710000  0.58460000  0.38600000  1.0 0.1404678049
H  H262  1  0.76290000  0.08460000  0.11400000  1.0 0.1404678049
H  H263  1  0.76290000  0.41540000  0.61400000  1.0 0.1404678049
H  H264  1  0.23710000  0.91540000  0.88600000  1.0 0.1404678049
H  H265  1  0.27510000  0.44280000  0.38730000  1.0 0.1309542055
H  H266  1  0.72490000  0.94280000  0.11270000  1.0 0.1309542055
H  H267  1  0.72490000  0.55720000  0.61270000  1.0 0.1309542055
H  H268  1  0.27510000  0.05720000  0.88730000  1.0 0.1309542055
H  H269  1  0.21280000  0.31870000  0.37650000  1.0 0.1404678049
H  H270  1  0.78720000  0.81870000  0.12350000  1.0 0.1404678049
H  H271  1  0.78720000  0.68130000  0.62350000  1.0 0.1404678049
H  H272  1  0.21280000  0.18130000  0.87650000  1.0 0.1404678049
C  C1  1  0.91840000  0.26500000  0.76930000  1.0 0.0411544999
C  C2  1  0.08160000  0.76500000  0.73070000  1.0 0.0411544999
C  C3  1  0.08160000  0.73500000  0.23070000  1.0 0.0411544999
C  C4  1  0.91840000  0.23500000  0.26930000  1.0 0.0411544999
C  C5  1  0.96800000  0.21280000  0.77500000  1.0 -0.1990169278
C  C6  1  0.03200000  0.71280000  0.72500000  1.0 -0.1990169278
C  C7  1  0.03200000  0.78720000  0.22500000  1.0 -0.1990169278
C  C8  1  0.96800000  0.28720000  0.27500000  1.0 -0.1990169278
C  C9  1  0.00250000  0.20820000  0.75010000  1.0 0.200705451
C  C10  1  0.99750000  0.70820000  0.74990000  1.0 0.200705451
C  C11  1  0.99750000  0.79180000  0.24990000  1.0 0.200705451
C  C12  1  0.00250000  0.29180000  0.25010000  1.0 0.200705451
C  C13  1  0.98600000  0.25270000  0.72300000  1.0 -0.2296102399
C  C14  1  0.01400000  0.75270000  0.77700000  1.0 -0.2296102399
C  C15  1  0.01400000  0.74730000  0.27700000  1.0 -0.2296102399
C  C16  1  0.98600000  0.24730000  0.22300000  1.0 -0.2296102399
C  C17  1  0.93690000  0.30390000  0.71980000  1.0 0.1093615136
C  C18  1  0.06310000  0.80390000  0.78020000  1.0 0.1199615135
C  C19  1  0.06310000  0.69610000  0.28020000  1.0 0.1093615136
C  C20  1  0.93690000  0.19610000  0.21980000  1.0 0.1199615135
C  C21  1  0.10350000  0.19380000  0.75250000  1.0 -0.3097415793
C  C22  1  0.89650000  0.69380000  0.74750000  1.0 -0.3097415793
C  C23  1  0.89650000  0.80620000  0.24750000  1.0 -0.3097415793
C  C24  1  0.10350000  0.30620000  0.25250000  1.0 -0.3097415793
C  C25  1  0.05090000  0.06070000  0.76450000  1.0 0.3969485186
C  C26  1  0.94910000  0.56070000  0.73550000  1.0 0.3969485186
C  C27  1  0.94910000  0.93930000  0.23550000  1.0 0.3969485186
C  C28  1  0.05090000  0.43930000  0.26450000  1.0 0.3969485186
C  C29  1  0.79050000  0.10630000  0.79680000  1.0 0.0808671977
C  C30  1  0.20950000  0.60630000  0.70320000  1.0 0.0808671977
C  C31  1  0.20950000  0.89370000  0.20320000  1.0 0.0808671977
C  C32  1  0.79050000  0.39370000  0.29680000  1.0 0.0808671977
C  C33  1  0.83570000  0.05400000  0.80940000  1.0 -0.2164417975
C  C34  1  0.16430000  0.55400000  0.69060000  1.0 -0.2164417975
C  C35  1  0.16430000  0.94600000  0.19060000  1.0 -0.2164417975
C  C36  1  0.83570000  0.44600000  0.30940000  1.0 -0.2164417975
C  C37  1  0.82280000  0.96340000  0.81580000  1.0 0.200705451
C  C38  1  0.17720000  0.46340000  0.68420000  1.0 0.200705451
C  C39  1  0.17720000  0.03660000  0.18420000  1.0 0.200705451
C  C40  1  0.82280000  0.53660000  0.31580000  1.0 0.200705451
C  C41  1  0.76950000  0.93290000  0.81000000  1.0 -0.1876926844
C  C42  1  0.23050000  0.43290000  0.69000000  1.0 -0.1876926844
C  C43  1  0.23050000  0.06710000  0.19000000  1.0 -0.1876926844
C  C44  1  0.76950000  0.56710000  0.31000000  1.0 -0.1876926844
C  C45  1  0.72790000  0.99280000  0.79900000  1.0 0.0731405297
C  C46  1  0.27210000  0.49280000  0.70100000  1.0 0.0731405297
C  C47  1  0.27210000  0.00720000  0.20100000  1.0 0.0731405297
C  C48  1  0.72790000  0.50720000  0.29900000  1.0 0.0731405297
C  C49  1  0.85980000  0.85540000  0.85780000  1.0 -0.3375441122
C  C50  1  0.14020000  0.35540000  0.64220000  1.0 -0.3456104127
C  C51  1  0.14020000  0.14460000  0.14220000  1.0 -0.3456104127
C  C52  1  0.85980000  0.64460000  0.35780000  1.0 -0.3456104127
C  C53  1  0.91940000  0.90260000  0.81990000  1.0 0.3786545787
C  C54  1  0.08060000  0.40260000  0.68010000  1.0 0.3786545787
C  C55  1  0.08060000  0.09740000  0.18010000  1.0 0.3786545787
C  C56  1  0.91940000  0.59740000  0.31990000  1.0 0.3786545787
C  C57  1  0.19600000  0.15000000  0.43720000  1.0 0.0808671977
C  C58  1  0.80400000  0.65000000  0.06280000  1.0 0.0808671977
C  C59  1  0.80400000  0.85000000  0.56280000  1.0 0.0808671977
C  C60  1  0.19600000  0.35000000  0.93720000  1.0 0.0808671977
C  C61  1  0.16790000  0.15410000  0.40780000  1.0 -0.1702713111
C  C62  1  0.83210000  0.65410000  0.09220000  1.0 -0.1702713111
C  C63  1  0.83210000  0.84590000  0.59220000  1.0 -0.1702713111
C  C64  1  0.16790000  0.34590000  0.90780000  1.0 -0.1702713111
C  C65  1  0.13350000  0.23170000  0.39930000  1.0 0.200705451
C  C66  1  0.86650000  0.73170000  0.10070000  1.0 0.200705451
C  C67  1  0.86650000  0.76830000  0.60070000  1.0 0.200705451
C  C68  1  0.13350000  0.26830000  0.89930000  1.0 0.200705451
C  C69  1  0.12450000  0.29150000  0.42260000  1.0 -0.1990169278
C  C70  1  0.87550000  0.79150000  0.07740000  1.0 -0.1990169278
C  C71  1  0.87550000  0.70850000  0.57740000  1.0 -0.1990169278
C  C72  1  0.12450000  0.20850000  0.92260000  1.0 -0.1990169278
C  C73  1  0.15210000  0.28320000  0.45350000  1.0 0.0808671977
C  C74  1  0.84790000  0.78320000  0.04650000  1.0 0.0808671977
C  C75  1  0.84790000  0.71680000  0.54650000  1.0 0.0808671977
C  C76  1  0.15210000  0.21680000  0.95350000  1.0 0.0808671977
C  C77  1  0.07210000  0.16450000  0.35390000  1.0 -0.3097415793
C  C78  1  0.92790000  0.66450000  0.14610000  1.0 -0.3097415793
C  C79  1  0.92790000  0.83550000  0.64610000  1.0 -0.3097415793
C  C80  1  0.07210000  0.33550000  0.85390000  1.0 -0.3097415793
C  C81  1  0.10370000  0.31890000  0.35230000  1.0 0.3969485186
C  C82  1  0.89630000  0.81890000  0.14770000  1.0 0.3969485186
C  C83  1  0.89630000  0.68110000  0.64770000  1.0 0.3930646476
C  C84  1  0.10370000  0.18110000  0.85230000  1.0 0.3969485186
C  C85  1  0.41400000  0.56610000  0.54210000  1.0 0.100225123
C  C86  1  0.58600000  0.06610000  0.95790000  1.0 0.100225123
C  C87  1  0.58600000  0.43390000  0.45790000  1.0 0.100225123
C  C88  1  0.41400000  0.93390000  0.04210000  1.0 0.100225123
C  C89  1  0.39330000  0.61260000  0.56620000  1.0 -0.2296102399
C  C90  1  0.60670000  0.11260000  0.93380000  1.0 -0.2296102399
C  C91  1  0.60670000  0.38740000  0.43380000  1.0 -0.2296102399
C  C92  1  0.39330000  0.88740000  0.06620000  1.0 -0.2296102399
C  C93  1  0.42950000  0.65430000  0.59040000  1.0 0.1924395931
C  C94  1  0.57050000  0.15430000  0.90960000  1.0 0.1924395931
C  C95  1  0.57050000  0.34570000  0.40960000  1.0 0.1924395931
C  C96  1  0.42950000  0.84570000  0.09040000  1.0 0.1924395931
C  C97  1  0.48530000  0.64060000  0.59000000  1.0 -0.2083605126
C  C98  1  0.51470000  0.14060000  0.91000000  1.0 -0.2083605126
C  C99  1  0.51470000  0.35940000  0.41000000  1.0 -0.1990169278
C  C100  1  0.48530000  0.85940000  0.09000000  1.0 -0.1990169278
C  C101  1  0.50440000  0.59730000  0.56490000  1.0 0.100225123
C  C102  1  0.49560000  0.09730000  0.93510000  1.0 0.100225123
C  C103  1  0.49560000  0.40270000  0.43510000  1.0 0.100225123
C  C104  1  0.50440000  0.90270000  0.06490000  1.0 0.100225123
C  C105  1  0.43930000  0.79200000  0.62180000  1.0 -0.2969649511
C  C106  1  0.56070000  0.29200000  0.87820000  1.0 -0.2969649511
C  C107  1  0.56070000  0.20800000  0.37820000  1.0 -0.2969649511
C  C108  1  0.43930000  0.70800000  0.12180000  1.0 -0.2969649511
C  C109  1  0.36730000  0.68010000  0.63180000  1.0 0.3786545787
C  C110  1  0.63270000  0.18010000  0.86820000  1.0 0.3786545787
C  C111  1  0.63270000  0.31990000  0.36820000  1.0 0.3786545787
C  C112  1  0.36730000  0.81990000  0.13180000  1.0 0.3786545787
C  C113  1  0.99670000  0.56720000  0.43240000  1.0 0.0808671977
C  C114  1  0.00330000  0.06720000  0.06760000  1.0 0.0808671977
C  C115  1  0.00330000  0.43280000  0.56760000  1.0 0.0808671977
C  C116  1  0.99670000  0.93280000  0.93240000  1.0 0.0808671977
C  C117  1  0.01630000  0.61100000  0.40740000  1.0 -0.1876926844
C  C118  1  0.98370000  0.11100000  0.09260000  1.0 -0.1876926844
C  C119  1  0.98370000  0.38900000  0.59260000  1.0 -0.1876926844
C  C120  1  0.01630000  0.88900000  0.90740000  1.0 -0.1876926844
C  C121  1  0.07130000  0.61730000  0.40530000  1.0 0.1732776646
C  C122  1  0.92870000  0.11730000  0.09470000  1.0 0.1732776646
C  C123  1  0.92870000  0.38270000  0.59470000  1.0 0.1732776646
C  C124  1  0.07130000  0.88270000  0.90530000  1.0 0.1732776646
C  C125  1  0.11090000  0.58740000  0.43000000  1.0 -0.2360584771
C  C126  1  0.88910000  0.08740000  0.07000000  1.0 -0.2296102399
C  C127  1  0.88910000  0.41260000  0.57000000  1.0 -0.2360584771
C  C128  1  0.11090000  0.91260000  0.93000000  1.0 -0.2360584771
C  C129  1  0.08670000  0.54620000  0.45430000  1.0 0.100225123
C  C130  1  0.91330000  0.04620000  0.04570000  1.0 0.100225123
C  C131  1  0.91330000  0.45380000  0.54570000  1.0 0.100225123
C  C132  1  0.08670000  0.95380000  0.95430000  1.0 0.100225123
C  C133  1  0.06600000  0.75940000  0.37220000  1.0 -0.2969649511
C  C134  1  0.93400000  0.25940000  0.12780000  1.0 -0.2969649511
C  C135  1  0.93400000  0.24060000  0.62780000  1.0 -0.2969649511
C  C136  1  0.06600000  0.74060000  0.87220000  1.0 -0.2969649511
C  C137  1  0.13360000  0.64270000  0.36430000  1.0 0.3674488637
C  C138  1  0.86640000  0.14270000  0.13570000  1.0 0.3674488637
C  C139  1  0.86640000  0.35730000  0.63570000  1.0 0.3674488637
C  C140  1  0.13360000  0.85730000  0.86430000  1.0 0.3674488637
C  C141  1  0.56940000  0.60520000  0.70940000  1.0 0.0731405297
C  C142  1  0.43060000  0.10520000  0.79060000  1.0 0.0731405297
C  C143  1  0.43060000  0.39480000  0.29060000  1.0 0.0731405297
C  C144  1  0.56940000  0.89480000  0.20940000  1.0 0.0731405297
C  C145  1  0.60400000  0.61820000  0.73820000  1.0 -0.1515476268
C  C146  1  0.39600000  0.11820000  0.76180000  1.0 -0.1515476268
C  C147  1  0.39600000  0.38180000  0.26180000  1.0 -0.1515476268
C  C148  1  0.60400000  0.88180000  0.23820000  1.0 -0.1515476268
C  C149  1  0.59080000  0.58590000  0.76700000  1.0 -0.0026349968
C  C150  1  0.40920000  0.08590000  0.73300000  1.0 -0.0026349968
C  C151  1  0.40920000  0.41410000  0.23300000  1.0 -0.0026349968
C  C152  1  0.59080000  0.91410000  0.26700000  1.0 -0.0026349968
C  C153  1  0.54000000  0.53900000  0.76530000  1.0 -0.1702713111
C  C154  1  0.46000000  0.03900000  0.73470000  1.0 -0.1702713111
C  C155  1  0.46000000  0.46100000  0.23470000  1.0 -0.1702713111
C  C156  1  0.54000000  0.96100000  0.26530000  1.0 -0.1702713111
C  C157  1  0.50730000  0.52590000  0.73690000  1.0 0.1093615136
C  C158  1  0.49270000  0.02590000  0.76310000  1.0 0.1093615136
C  C159  1  0.49270000  0.47410000  0.26310000  1.0 0.1093615136
C  C160  1  0.50730000  0.97410000  0.23690000  1.0 0.1093615136
C  C161  1  0.93020000  0.94630000  0.78900000  1.0 0.1199615135
C  C162  1  0.06980000  0.44630000  0.71100000  1.0 0.1199615135
C  C163  1  0.06980000  0.05370000  0.21100000  1.0 0.1199615135
C  C164  1  0.93020000  0.55370000  0.28900000  1.0 0.1199615135
C  C165  1  0.89440000  0.93250000  0.76000000  1.0 -0.1592381878
C  C166  1  0.10560000  0.43250000  0.74000000  1.0 -0.1592381878
C  C167  1  0.10560000  0.06750000  0.24000000  1.0 -0.1592381878
C  C168  1  0.89440000  0.56750000  0.26000000  1.0 -0.1592381878
C  C169  1  0.91120000  0.96430000  0.73140000  1.0 0.0039235983
C  C170  1  0.08880000  0.46430000  0.76860000  1.0 0.0039235983
C  C171  1  0.08880000  0.03570000  0.26860000  1.0 0.0039235983
C  C172  1  0.91120000  0.53570000  0.23140000  1.0 0.0039235983
C  C173  1  0.96140000  0.01000000  0.73330000  1.0 -0.1515476268
C  C174  1  0.03860000  0.51000000  0.76670000  1.0 -0.1515476268
C  C175  1  0.03860000  0.99000000  0.26670000  1.0 -0.1515476268
C  C176  1  0.96140000  0.49000000  0.23330000  1.0 -0.1515476268
C  C177  1  0.99140000  0.02080000  0.76140000  1.0 0.0891651295
C  C178  1  0.00860000  0.52080000  0.73860000  1.0 0.0891651295
C  C179  1  0.00860000  0.97920000  0.23860000  1.0 0.0891651295
C  C180  1  0.99140000  0.47920000  0.26140000  1.0 0.0891651295
C  C181  1  0.58040000  0.28530000  0.73550000  1.0 0.1093615136
C  C182  1  0.41960000  0.78530000  0.76450000  1.0 0.1093615136
C  C183  1  0.41960000  0.71470000  0.26450000  1.0 0.1093615136
C  C184  1  0.58040000  0.21470000  0.23550000  1.0 0.1093615136
C  C185  1  0.52960000  0.33670000  0.72880000  1.0 -0.1990169278
C  C186  1  0.47040000  0.83670000  0.77120000  1.0 -0.2083605126
C  C187  1  0.47040000  0.66330000  0.27120000  1.0 -0.2083605126
C  C188  1  0.52960000  0.16330000  0.22880000  1.0 -0.2083605126
C  C189  1  0.49680000  0.34580000  0.75060000  1.0 0.184185445
C  C190  1  0.50320000  0.84580000  0.74940000  1.0 0.184185445
C  C191  1  0.50320000  0.65420000  0.24940000  1.0 0.184185445
C  C192  1  0.49680000  0.15420000  0.25060000  1.0 0.184185445
C  C193  1  0.51270000  0.30250000  0.78060000  1.0 -0.1990169278
C  C194  1  0.48730000  0.80250000  0.71940000  1.0 -0.1990169278
C  C195  1  0.48730000  0.69750000  0.21940000  1.0 -0.1990169278
C  C196  1  0.51270000  0.19750000  0.28060000  1.0 -0.1990169278
C  C197  1  0.55870000  0.24960000  0.78500000  1.0 0.0411544999
C  C198  1  0.44130000  0.74960000  0.71500000  1.0 0.0411544999
C  C199  1  0.44130000  0.75040000  0.21500000  1.0 0.0411544999
C  C200  1  0.55870000  0.25040000  0.28500000  1.0 0.0411544999
C  C201  1  0.39450000  0.35850000  0.75160000  1.0 -0.3328104841
C  C202  1  0.60550000  0.85850000  0.74840000  1.0 -0.3328104841
C  C203  1  0.60550000  0.64150000  0.24840000  1.0 -0.3328104841
C  C204  1  0.39450000  0.14150000  0.25160000  1.0 -0.3328104841
C  C205  1  0.44940000  0.48160000  0.73510000  1.0 0.3786545787
C  C206  1  0.55060000  0.98160000  0.76490000  1.0 0.3786545787
C  C207  1  0.55060000  0.51840000  0.26490000  1.0 0.3786545787
C  C208  1  0.44940000  0.01840000  0.23510000  1.0 0.3786545787
C  C209  1  0.70830000  0.44160000  0.70430000  1.0 0.0731405297
C  C210  1  0.29170000  0.94160000  0.79570000  1.0 0.0731405297
C  C211  1  0.29170000  0.55840000  0.29570000  1.0 0.0731405297
C  C212  1  0.70830000  0.05840000  0.20430000  1.0 0.0731405297
C  C213  1  0.66470000  0.49570000  0.69110000  1.0 -0.2083605126
C  C214  1  0.33530000  0.99570000  0.80890000  1.0 -0.2083605126
C  C215  1  0.33530000  0.50430000  0.30890000  1.0 -0.2083605126
C  C216  1  0.66470000  0.00430000  0.19110000  1.0 -0.2083605126
C  C217  1  0.67570000  0.58250000  0.68440000  1.0 0.1924395931
C  C218  1  0.32430000  0.08250000  0.81560000  1.0 0.1924395931
C  C219  1  0.32430000  0.41750000  0.31560000  1.0 0.1924395931
C  C220  1  0.67570000  0.91750000  0.18440000  1.0 0.1924395931
C  C221  1  0.73170000  0.61460000  0.69080000  1.0 -0.1809752963
C  C222  1  0.26830000  0.11460000  0.80920000  1.0 -0.1809752963
C  C223  1  0.26830000  0.38540000  0.30920000  1.0 -0.1809752963
C  C224  1  0.73170000  0.88540000  0.19080000  1.0 -0.1809752963
C  C225  1  0.76990000  0.55590000  0.70320000  1.0 0.058436468
C  C226  1  0.23010000  0.05590000  0.79680000  1.0 0.058436468
C  C227  1  0.23010000  0.44410000  0.29680000  1.0 0.058436468
C  C228  1  0.76990000  0.94410000  0.20320000  1.0 0.058436468
C  C229  1  0.63890000  0.68980000  0.64050000  1.0 -0.3375441122
C  C230  1  0.36110000  0.18980000  0.85950000  1.0 -0.3375441122
C  C231  1  0.36110000  0.31020000  0.35950000  1.0 -0.3375441122
C  C232  1  0.63890000  0.81020000  0.14050000  1.0 -0.3375441122
C  C233  1  0.57940000  0.64000000  0.67920000  1.0 0.3544637037
C  C234  1  0.42060000  0.14000000  0.82080000  1.0 0.3544637037
C  C235  1  0.42060000  0.36000000  0.32080000  1.0 0.3544637037
C  C236  1  0.57940000  0.86000000  0.17920000  1.0 0.3544637037
C  C237  1  0.30730000  0.17320000  0.56860000  1.0 0.0891651295
C  C238  1  0.69270000  0.67320000  0.93140000  1.0 0.0891651295
C  C239  1  0.69270000  0.82680000  0.43140000  1.0 0.0891651295
C  C240  1  0.30730000  0.32680000  0.06860000  1.0 0.0891651295
C  C241  1  0.33300000  0.18580000  0.59930000  1.0 -0.2083605126
C  C242  1  0.66700000  0.68580000  0.90070000  1.0 -0.2083605126
C  C243  1  0.66700000  0.81420000  0.40070000  1.0 -0.2083605126
C  C244  1  0.33300000  0.31420000  0.09930000  1.0 -0.2083605126
C  C245  1  0.36970000  0.26080000  0.60520000  1.0 0.2207689916
C  C246  1  0.63030000  0.76080000  0.89480000  1.0 0.2207689916
C  C247  1  0.63030000  0.73920000  0.39480000  1.0 0.2207689916
C  C248  1  0.36970000  0.23920000  0.10520000  1.0 0.2207689916
C  C249  1  0.37650000  0.31560000  0.57860000  1.0 -0.2083605126
C  C250  1  0.62350000  0.81560000  0.92140000  1.0 -0.2164417975
C  C251  1  0.62350000  0.68440000  0.42140000  1.0 -0.2164417975
C  C252  1  0.37650000  0.18440000  0.07860000  1.0 -0.2164417975
C  C253  1  0.34890000  0.29680000  0.54990000  1.0 0.0808671977
C  C254  1  0.65110000  0.79680000  0.95010000  1.0 0.0808671977
C  C255  1  0.65110000  0.70320000  0.45010000  1.0 0.0808671977
C  C256  1  0.34890000  0.20320000  0.04990000  1.0 0.0808671977
C  C257  1  0.42840000  0.20170000  0.65230000  1.0 -0.31640666
C  C258  1  0.57160000  0.70170000  0.84770000  1.0 -0.31640666
C  C259  1  0.57160000  0.79830000  0.34770000  1.0 -0.31640666
C  C260  1  0.42840000  0.29830000  0.15230000  1.0 -0.31640666
C  C261  1  0.39720000  0.36150000  0.64830000  1.0 0.3969485186
C  C262  1  0.60280000  0.86150000  0.85170000  1.0 0.3969485186
C  C263  1  0.60280000  0.63850000  0.35170000  1.0 0.3969485186
C  C264  1  0.39720000  0.13850000  0.14830000  1.0 0.3969485186
C  C265  1  0.35590000  0.43000000  0.63440000  1.0 0.0731405297
C  C266  1  0.64410000  0.93000000  0.86560000  1.0 0.0731405297
C  C267  1  0.64410000  0.57000000  0.36560000  1.0 0.0731405297
C  C268  1  0.35590000  0.07000000  0.13440000  1.0 0.0731405297
C  C269  1  0.30080000  0.41640000  0.62320000  1.0 -0.1275394946
C  C270  1  0.69920000  0.91640000  0.87680000  1.0 -0.1275394946
C  C271  1  0.69920000  0.58360000  0.37680000  1.0 -0.1275394946
C  C272  1  0.30080000  0.08360000  0.12320000  1.0 -0.1275394946
C  C273  1  0.26670000  0.48620000  0.61470000  1.0 -0.0094001603
C  C274  1  0.73330000  0.98620000  0.88530000  1.0 -0.0094001603
C  C275  1  0.73330000  0.51380000  0.38530000  1.0 -0.0094001603
C  C276  1  0.26670000  0.01380000  0.11470000  1.0 -0.0094001603
C  C277  1  0.28580000  0.57370000  0.61650000  1.0 -0.1592381878
C  C278  1  0.71420000  0.07370000  0.88350000  1.0 -0.1592381878
C  C279  1  0.71420000  0.42630000  0.38350000  1.0 -0.1592381878
C  C280  1  0.28580000  0.92630000  0.11650000  1.0 -0.1592381878
C  C281  1  0.34340000  0.58430000  0.62720000  1.0 0.1404678049
C  C282  1  0.65660000  0.08430000  0.87280000  1.0 0.1404678049
C  C283  1  0.65660000  0.41570000  0.37280000  1.0 0.1404678049
C  C284  1  0.34340000  0.91570000  0.12720000  1.0 0.1404678049
C  C285  1  0.15710000  0.55050000  0.36860000  1.0 0.0808671977
C  C286  1  0.84290000  0.05050000  0.13140000  1.0 0.0808671977
C  C287  1  0.84290000  0.44950000  0.63140000  1.0 0.0808671977
C  C288  1  0.15710000  0.94950000  0.86860000  1.0 0.0808671977
C  C289  1  0.21370000  0.53450000  0.37960000  1.0 -0.1275394946
C  C290  1  0.78630000  0.03450000  0.12040000  1.0 -0.1275394946
C  C291  1  0.78630000  0.46550000  0.62040000  1.0 -0.1275394946
C  C292  1  0.21370000  0.96550000  0.87960000  1.0 -0.1275394946
C  C293  1  0.23600000  0.45180000  0.38140000  1.0 -0.018640599
C  C294  1  0.76400000  0.95180000  0.11860000  1.0 -0.018640599
C  C295  1  0.76400000  0.54820000  0.61860000  1.0 -0.018640599
C  C296  1  0.23600000  0.04820000  0.88140000  1.0 -0.018640599
C  C297  1  0.19950000  0.37900000  0.37440000  1.0 -0.1702713111
C  C298  1  0.80050000  0.87900000  0.12560000  1.0 -0.1592381878
C  C299  1  0.80050000  0.62100000  0.62560000  1.0 -0.1702713111
C  C300  1  0.19950000  0.12100000  0.87440000  1.0 -0.1702713111
C  C301  1  0.14350000  0.39650000  0.36410000  1.0 0.1404678049
C  C302  1  0.85650000  0.89650000  0.13590000  1.0 0.1404678049
C  C303  1  0.85650000  0.60350000  0.63590000  1.0 0.1404678049
C  C304  1  0.14350000  0.10350000  0.86410000  1.0 0.1404678049
C  C305  1  0.60330000  0.37780000  0.60560000  1.0 0.4980299694
C  C306  1  0.39670000  0.87780000  0.89440000  1.0 0.4980299694
C  C307  1  0.39670000  0.62220000  0.39440000  1.0 0.4980299694
C  C308  1  0.60330000  0.12220000  0.10560000  1.0 0.4980299694
C  C309  1  0.89680000  0.34100000  0.39490000  1.0 0.4729549957
C  C310  1  0.10320000  0.84100000  0.10510000  1.0 0.4729549957
C  C311  1  0.10320000  0.65900000  0.60510000  1.0 0.4729549957
C  C312  1  0.89680000  0.15900000  0.89490000  1.0 0.4729549957
C  C313  1  0.29340000  0.01400000  0.96910000  1.0 0.4729549957
C  C314  1  0.70660000  0.51400000  0.53090000  1.0 0.4729549957
C  C315  1  0.70660000  0.98600000  0.03090000  1.0 0.4729549957
C  C316  1  0.29340000  0.48600000  0.46910000  1.0 0.4729549957
C  C317  1  0.77140000  0.85400000  0.29870000  1.0 0.4425472205
C  C318  1  0.22860000  0.35400000  0.20130000  1.0 0.4425472205
C  C319  1  0.22860000  0.14600000  0.70130000  1.0 0.4425472205
C  C320  1  0.77140000  0.64600000  0.79870000  1.0 0.4425472205
C  C321  1  0.72720000  0.59890000  0.19610000  1.0 0.4501842258
C  C322  1  0.27280000  0.09890000  0.30390000  1.0 0.4501842258
C  C323  1  0.27280000  0.40110000  0.80390000  1.0 0.4501842258
C  C324  1  0.72720000  0.90110000  0.69610000  1.0 0.4501842258
C  C325  1  0.13730000  0.23130000  0.05240000  1.0 0.4621178728
C  C326  1  0.86270000  0.73130000  0.44760000  1.0 0.4621178728
C  C327  1  0.86270000  0.76870000  0.94760000  1.0 0.4621178728
C  C328  1  0.13730000  0.26870000  0.55240000  1.0 0.4621178728
S  S1  1  0.54947000  0.38320000  0.63235000  1.0 0.9822596532
S  S2  1  0.45053000  0.88320000  0.86765000  1.0 0.9822596532
S  S3  1  0.45053000  0.61680000  0.36765000  1.0 0.9822596532
S  S4  1  0.54947000  0.11680000  0.13235000  1.0 0.9822596532
S  S5  1  0.95108000  0.34100000  0.37011000  1.0 0.9911136699
S  S6  1  0.04892000  0.84100000  0.12989000  1.0 0.9911136699
S  S7  1  0.04892000  0.65900000  0.62989000  1.0 0.9911136699
S  S8  1  0.95108000  0.15900000  0.87011000  1.0 0.9911136699
S  S9  1  0.34404000  0.09870000  0.96241000  1.0 0.9911136699
S  S10  1  0.65596000  0.59870000  0.53759000  1.0 0.9911136699
S  S11  1  0.65596000  0.90130000  0.03759000  1.0 0.9911136699
S  S12  1  0.34404000  0.40130000  0.46241000  1.0 0.9911136699
S  S13  1  0.72096000  0.82420000  0.32202000  1.0 0.9911136699
S  S14  1  0.27904000  0.32420000  0.17798000  1.0 0.9911136699
S  S15  1  0.27904000  0.17580000  0.67798000  1.0 0.9911136699
S  S16  1  0.72096000  0.67580000  0.82202000  1.0 0.9911136699
S  S17  1  0.77991000  0.62870000  0.17471000  1.0 0.9822596532
S  S18  1  0.22009000  0.12870000  0.32529000  1.0 0.9822596532
S  S19  1  0.22009000  0.37130000  0.82529000  1.0 0.9822596532
S  S20  1  0.77991000  0.87130000  0.67471000  1.0 0.9822596532
S  S21  1  0.14775000  0.12170000  0.03986000  1.0 0.9985726548
S  S22  1  0.85225000  0.62170000  0.46014000  1.0 0.9985726548
S  S23  1  0.85225000  0.87830000  0.96014000  1.0 0.9985726548
S  S24  1  0.14775000  0.37830000  0.53986000  1.0 0.9985726548
N  N1  1  0.90520000  0.31120000  0.74140000  1.0 -0.1592381878
N  N2  1  0.09480000  0.81120000  0.75860000  1.0 -0.1592381878
N  N3  1  0.09480000  0.68880000  0.25860000  1.0 -0.1515476268
N  N4  1  0.90520000  0.18880000  0.24140000  1.0 -0.1592381878
N  N5  1  0.05010000  0.15260000  0.75410000  1.0 -0.0885261225
N  N6  1  0.94990000  0.65260000  0.74590000  1.0 -0.0885261225
N  N7  1  0.94990000  0.84740000  0.24590000  1.0 -0.0885261225
N  N8  1  0.05010000  0.34740000  0.25410000  1.0 -0.0885261225
N  N9  1  0.73900000  0.07780000  0.79200000  1.0 -0.1515476268
N  N10  1  0.26100000  0.57780000  0.70800000  1.0 -0.1515476268
N  N11  1  0.26100000  0.92220000  0.20800000  1.0 -0.1592381878
N  N12  1  0.73900000  0.42220000  0.29200000  1.0 -0.1515476268
N  N13  1  0.86770000  0.90320000  0.82810000  1.0 -0.0800342944
N  N14  1  0.13230000  0.40320000  0.67190000  1.0 -0.0800342944
N  N15  1  0.13230000  0.09680000  0.17190000  1.0 -0.0800342944
N  N16  1  0.86770000  0.59680000  0.32810000  1.0 -0.0800342944
N  N17  1  0.19170000  0.21220000  0.46100000  1.0 -0.2164417975
N  N18  1  0.80830000  0.71220000  0.03900000  1.0 -0.2164417975
N  N19  1  0.80830000  0.78780000  0.53900000  1.0 -0.2164417975
N  N20  1  0.19170000  0.28780000  0.96100000  1.0 -0.2164417975
N  N21  1  0.10690000  0.24100000  0.36840000  1.0 -0.0625050508
N  N22  1  0.89310000  0.74100000  0.13160000  1.0 -0.0625050508
N  N23  1  0.89310000  0.75900000  0.63160000  1.0 -0.0625050508
N  N24  1  0.10690000  0.25900000  0.86840000  1.0 -0.0625050508
N  N25  1  0.46890000  0.55750000  0.54140000  1.0 -0.1809752963
N  N26  1  0.53110000  0.05750000  0.95860000  1.0 -0.1809752963
N  N27  1  0.53110000  0.44250000  0.45860000  1.0 -0.1809752963
N  N28  1  0.46890000  0.94250000  0.04140000  1.0 -0.1809752963
N  N29  1  0.40950000  0.70330000  0.61630000  1.0 -0.1083462166
N  N30  1  0.59050000  0.20330000  0.88370000  1.0 -0.1083462166
N  N31  1  0.59050000  0.29670000  0.38370000  1.0 -0.1083462166
N  N32  1  0.40950000  0.79670000  0.11630000  1.0 -0.1083462166
N  N33  1  0.03320000  0.53400000  0.45730000  1.0 -0.1809752963
N  N34  1  0.96680000  0.03400000  0.04270000  1.0 -0.1809752963
N  N35  1  0.96680000  0.46600000  0.54270000  1.0 -0.1809752963
N  N36  1  0.03320000  0.96600000  0.95730000  1.0 -0.1809752963
N  N37  1  0.09100000  0.66900000  0.38000000  1.0 -0.0986511226
N  N38  1  0.90900000  0.16900000  0.12000000  1.0 -0.0986511226
N  N39  1  0.90900000  0.33100000  0.62000000  1.0 -0.0986511226
N  N40  1  0.09100000  0.83100000  0.88000000  1.0 -0.0986511226
N  N41  1  0.52090000  0.56100000  0.70970000  1.0 -0.2296102399
N  N42  1  0.47910000  0.06100000  0.79030000  1.0 -0.2296102399
N  N43  1  0.47910000  0.43900000  0.29030000  1.0 -0.2296102399
N  N44  1  0.52090000  0.93900000  0.20970000  1.0 -0.2296102399
N  N45  1  0.97920000  0.98680000  0.78910000  1.0 -0.2360584771
N  N46  1  0.02080000  0.48680000  0.71090000  1.0 -0.2360584771
N  N47  1  0.02080000  0.01320000  0.21090000  1.0 -0.2360584771
N  N48  1  0.97920000  0.51320000  0.28910000  1.0 -0.2360584771
N  N49  1  0.59630000  0.24430000  0.76220000  1.0 -0.1809752963
N  N50  1  0.40370000  0.74430000  0.73780000  1.0 -0.1809752963
N  N51  1  0.40370000  0.75570000  0.23780000  1.0 -0.1809752963
N  N52  1  0.59630000  0.25570000  0.26220000  1.0 -0.1809752963
N  N53  1  0.44820000  0.39890000  0.74750000  1.0 -0.0708771872
N  N54  1  0.55180000  0.89890000  0.75250000  1.0 -0.0708771872
N  N55  1  0.55180000  0.60110000  0.25250000  1.0 -0.0708771872
N  N56  1  0.44820000  0.10110000  0.24750000  1.0 -0.0708771872
N  N57  1  0.76140000  0.46930000  0.71100000  1.0 -0.1876926844
N  N58  1  0.23860000  0.96930000  0.78900000  1.0 -0.1876926844
N  N59  1  0.23860000  0.53070000  0.28900000  1.0 -0.1876926844
N  N60  1  0.76140000  0.03070000  0.21100000  1.0 -0.1876926844
N  N61  1  0.63260000  0.64420000  0.67070000  1.0 -0.0800342944
N  N62  1  0.36740000  0.14420000  0.82930000  1.0 -0.0800342944
N  N63  1  0.36740000  0.35580000  0.32930000  1.0 -0.0800342944
N  N64  1  0.63260000  0.85580000  0.17070000  1.0 -0.0800342944
N  N65  1  0.31120000  0.22620000  0.54310000  1.0 -0.1990169278
N  N66  1  0.68880000  0.72620000  0.95690000  1.0 -0.1990169278
N  N67  1  0.68880000  0.77380000  0.45690000  1.0 -0.1990169278
N  N68  1  0.31120000  0.27380000  0.04310000  1.0 -0.1990169278
N  N69  1  0.39490000  0.27910000  0.63520000  1.0 -0.0625050508
N  N70  1  0.60510000  0.77910000  0.86480000  1.0 -0.0625050508
N  N71  1  0.60510000  0.72090000  0.36480000  1.0 -0.0625050508
N  N72  1  0.39490000  0.22090000  0.13520000  1.0 -0.0625050508
N  N73  1  0.37770000  0.51910000  0.63620000  1.0 -0.2668709832
N  N74  1  0.62230000  0.01910000  0.86380000  1.0 -0.2668709832
N  N75  1  0.62230000  0.48090000  0.36380000  1.0 -0.2668709832
N  N76  1  0.37770000  0.98090000  0.13620000  1.0 -0.2668709832
N  N77  1  0.12120000  0.47610000  0.36170000  1.0 -0.2600582394
N  N78  1  0.87880000  0.97610000  0.13830000  1.0 -0.2600582394
N  N79  1  0.87880000  0.52390000  0.63830000  1.0 -0.2600582394
N  N80  1  0.12120000  0.02390000  0.86170000  1.0 -0.2600582394
O  O1  1  0.09270000  0.02410000  0.77400000  1.0 -0.4270335215
O  O2  1  0.90730000  0.52410000  0.72600000  1.0 -0.4270335215
O  O3  1  0.90730000  0.97590000  0.22600000  1.0 -0.4270335215
O  O4  1  0.09270000  0.47590000  0.27400000  1.0 -0.4270335215
O  O5  1  0.95770000  0.86400000  0.83509000  1.0 -0.4426628801
O  O6  1  0.04230000  0.36400000  0.66491000  1.0 -0.4426628801
O  O7  1  0.04230000  0.13600000  0.16491000  1.0 -0.4426628801
O  O8  1  0.95770000  0.63600000  0.33509000  1.0 -0.4426628801
O  O9  1  0.07110000  0.33130000  0.32819000  1.0 -0.4270335215
O  O10  1  0.92890000  0.83130000  0.17181000  1.0 -0.4270335215
O  O11  1  0.92890000  0.66870000  0.67181000  1.0 -0.4270335215
O  O12  1  0.07110000  0.16870000  0.82819000  1.0 -0.4270335215
O  O13  1  0.34600000  0.73040000  0.64980000  1.0 -0.4650253582
O  O14  1  0.65400000  0.23040000  0.85020000  1.0 -0.4647578227
O  O15  1  0.65400000  0.26960000  0.35020000  1.0 -0.4647578227
O  O16  1  0.34600000  0.76960000  0.14980000  1.0 -0.4647578227
O  O17  1  0.15360000  0.69250000  0.34390000  1.0 -0.510019936
O  O18  1  0.84640000  0.19250000  0.15610000  1.0 -0.510019936
O  O19  1  0.84640000  0.30750000  0.65610000  1.0 -0.510019936
O  O20  1  0.15360000  0.80750000  0.84390000  1.0 -0.510019936
O  O21  1  0.40560000  0.52520000  0.72500000  1.0 -0.5164112079
O  O22  1  0.59440000  0.02520000  0.77500000  1.0 -0.5164112079
O  O23  1  0.59440000  0.47480000  0.27500000  1.0 -0.5164112079
O  O24  1  0.40560000  0.97480000  0.22500000  1.0 -0.5164112079
O  O25  1  0.54110000  0.68050000  0.66180000  1.0 -0.4811089414
O  O26  1  0.45890000  0.18050000  0.83820000  1.0 -0.4811089414
O  O27  1  0.45890000  0.31950000  0.33820000  1.0 -0.4811089414
O  O28  1  0.54110000  0.81950000  0.16180000  1.0 -0.4811089414
O  O29  1  0.42810000  0.37760000  0.67310000  1.0 -0.4426628801
O  O30  1  0.57190000  0.87760000  0.82690000  1.0 -0.4426628801
O  O31  1  0.57190000  0.62240000  0.32690000  1.0 -0.4426628801
O  O32  1  0.42810000  0.12240000  0.17310000  1.0 -0.4426628801
O  O33  1  0.54810000  0.47830000  0.64020000  1.0 -0.5715640711
O  O34  1  0.45190000  0.97830000  0.85980000  1.0 -0.5715640711
O  O35  1  0.45190000  0.52170000  0.35980000  1.0 -0.5715640711
O  O36  1  0.54810000  0.02170000  0.14020000  1.0 -0.5715640711
O  O37  1  0.50010000  0.34870000  0.61330000  1.0 -0.5495066243
O  O38  1  0.49990000  0.84870000  0.88670000  1.0 -0.5495066243
O  O39  1  0.49990000  0.65130000  0.38670000  1.0 -0.5495066243
O  O40  1  0.50010000  0.15130000  0.11330000  1.0 -0.5495066243
O  O41  1  0.57130000  0.32760000  0.65840000  1.0 -0.5495066243
O  O42  1  0.42870000  0.82760000  0.84160000  1.0 -0.5495066243
O  O43  1  0.42870000  0.67240000  0.34160000  1.0 -0.5495066243
O  O44  1  0.57130000  0.17240000  0.15840000  1.0 -0.5495066243
O  O45  1  0.95350000  0.43330000  0.35990000  1.0 -0.5715640711
O  O46  1  0.04650000  0.93330000  0.14010000  1.0 -0.5715640711
O  O47  1  0.04650000  0.56670000  0.64010000  1.0 -0.5715640711
O  O48  1  0.95350000  0.06670000  0.85990000  1.0 -0.5715640711
O  O49  1  0.99900000  0.31390000  0.39050000  1.0 -0.5387844297
O  O50  1  0.00100000  0.81390000  0.10950000  1.0 -0.5387844297
O  O51  1  0.00100000  0.68610000  0.60950000  1.0 -0.5387844297
O  O52  1  0.99900000  0.18610000  0.89050000  1.0 -0.5387844297
O  O53  1  0.93040000  0.28390000  0.34460000  1.0 -0.5495066243
O  O54  1  0.06960000  0.78390000  0.15540000  1.0 -0.5495066243
O  O55  1  0.06960000  0.71610000  0.65540000  1.0 -0.5495066243
O  O56  1  0.93040000  0.21610000  0.84460000  1.0 -0.5495066243
O  O57  1  0.31900000  0.17750000  0.97290000  1.0 -0.5387844297
O  O58  1  0.68100000  0.67750000  0.52710000  1.0 -0.5387844297
O  O59  1  0.68100000  0.82250000  0.02710000  1.0 -0.5387844297
O  O60  1  0.31900000  0.32250000  0.47290000  1.0 -0.5387844297
O  O61  1  0.39370000  0.07280000  0.98220000  1.0 -0.5715640711
O  O62  1  0.60630000  0.57280000  0.51780000  1.0 -0.5715640711
O  O63  1  0.60630000  0.92720000  0.01780000  1.0 -0.5715640711
O  O64  1  0.39370000  0.42720000  0.48220000  1.0 -0.5715640711
O  O65  1  0.34670000  0.09650000  0.92900000  1.0 -0.5495066243
O  O66  1  0.65330000  0.59650000  0.57100000  1.0 -0.5495066243
O  O67  1  0.65330000  0.90350000  0.07100000  1.0 -0.5495066243
O  O68  1  0.34670000  0.40350000  0.42900000  1.0 -0.5495066243
O  O69  1  0.74730000  0.77000000  0.34650000  1.0 -0.5387844297
O  O70  1  0.69150000  0.90070000  0.32930000  1.0 -0.5387844297
O  O71  1  0.69330000  0.77160000  0.29530000  1.0 -0.559736796
O  O72  1  0.25270000  0.27000000  0.15350000  1.0 -0.5387844297
O  O73  1  0.30850000  0.40070000  0.17070000  1.0 -0.5387844297
O  O74  1  0.30670000  0.27160000  0.20470000  1.0 -0.559736796
O  O75  1  0.25270000  0.23000000  0.65350000  1.0 -0.5387844297
O  O76  1  0.30850000  0.09930000  0.67070000  1.0 -0.5387844297
O  O77  1  0.30670000  0.22840000  0.70470000  1.0 -0.559736796
O  O78  1  0.74730000  0.73000000  0.84650000  1.0 -0.5387844297
O  O79  1  0.69150000  0.59930000  0.82930000  1.0 -0.5387844297
O  O80  1  0.69330000  0.72840000  0.79530000  1.0 -0.559736796
O  O81  1  0.80760000  0.68210000  0.20020000  1.0 -0.559736796
O  O82  1  0.75570000  0.68300000  0.14950000  1.0 -0.5495066243
O  O83  1  0.80890000  0.54890000  0.16760000  1.0 -0.559736796
O  O84  1  0.19240000  0.18210000  0.29980000  1.0 -0.559736796
O  O85  1  0.24430000  0.18300000  0.35050000  1.0 -0.5495066243
O  O86  1  0.19110000  0.04890000  0.33240000  1.0 -0.559736796
O  O87  1  0.19240000  0.31790000  0.79980000  1.0 -0.559736796
O  O88  1  0.24430000  0.31700000  0.85050000  1.0 -0.5495066243
O  O89  1  0.19110000  0.45110000  0.83240000  1.0 -0.559736796
O  O90  1  0.80760000  0.81790000  0.70020000  1.0 -0.559736796
O  O91  1  0.75570000  0.81700000  0.64950000  1.0 -0.5495066243
O  O92  1  0.80890000  0.95110000  0.66760000  1.0 -0.559736796
O  O93  1  0.09920000  0.10630000  0.01640000  1.0 -0.5974973816
O  O94  1  0.20000000  0.13240000  0.02630000  1.0 -0.5835878181
O  O95  1  0.14910000  0.06850000  0.06850000  1.0 -0.5715640711
O  O96  1  0.90080000  0.60630000  0.48360000  1.0 -0.5974973816
O  O97  1  0.80000000  0.63240000  0.47370000  1.0 -0.5835878181
O  O98  1  0.85090000  0.56850000  0.43150000  1.0 -0.5715640711
O  O99  1  0.90080000  0.89370000  0.98360000  1.0 -0.5974973816
O  O100  1  0.80000000  0.86760000  0.97370000  1.0 -0.5835878181
O  O101  1  0.85090000  0.93150000  0.93150000  1.0 -0.5715640711
O  O102  1  0.09920000  0.39370000  0.51640000  1.0 -0.5974973816
O  O103  1  0.20000000  0.36760000  0.52630000  1.0 -0.5835878181
O  O104  1  0.14910000  0.43150000  0.56850000  1.0 -0.5715640711
F  F1  1  0.58720000  0.41860000  0.57790000  1.0 -0.1809752963
F  F2  1  0.41280000  0.91860000  0.92210000  1.0 -0.1809752963
F  F3  1  0.41280000  0.58140000  0.42210000  1.0 -0.1809752963
F  F4  1  0.58720000  0.08140000  0.07790000  1.0 -0.1809752963
F  F5  1  0.65020000  0.41470000  0.61830000  1.0 -0.1809752963
F  F6  1  0.34980000  0.91470000  0.88170000  1.0 -0.1809752963
F  F7  1  0.34980000  0.58530000  0.38170000  1.0 -0.1809752963
F  F8  1  0.65020000  0.08530000  0.11830000  1.0 -0.1809752963
F  F9  1  0.61260000  0.29060000  0.59760000  1.0 -0.1702713111
F  F10  1  0.38740000  0.79060000  0.90240000  1.0 -0.1702713111
F  F11  1  0.38740000  0.70940000  0.40240000  1.0 -0.1702713111
F  F12  1  0.61260000  0.20940000  0.09760000  1.0 -0.1702713111
F  F13  1  0.84920000  0.37740000  0.38270000  1.0 -0.1809752963
F  F14  1  0.15080000  0.87740000  0.11730000  1.0 -0.1809752963
F  F15  1  0.15080000  0.62260000  0.61730000  1.0 -0.1809752963
F  F16  1  0.84920000  0.12260000  0.88270000  1.0 -0.1809752963
F  F17  1  0.88680000  0.26080000  0.40620000  1.0 -0.1515476268
F  F18  1  0.11320000  0.76080000  0.09380000  1.0 -0.1515476268
F  F19  1  0.11320000  0.73920000  0.59380000  1.0 -0.1515476268
F  F20  1  0.88680000  0.23920000  0.90620000  1.0 -0.1515476268
F  F21  1  0.91310000  0.39090000  0.42300000  1.0 -0.1702713111
F  F22  1  0.08690000  0.89090000  0.07700000  1.0 -0.1592381878
F  F23  1  0.08690000  0.60910000  0.57700000  1.0 -0.1702713111
F  F24  1  0.91310000  0.10910000  0.92300000  1.0 -0.1702713111
F  F25  1  0.28870000  0.00130000  0.99918000  1.0 -0.1702713111
F  F26  1  0.71130000  0.50130000  0.50082000  1.0 -0.1809752963
F  F27  1  0.71130000  0.99870000  0.00082000  1.0 -0.1702713111
F  F28  1  0.28870000  0.49870000  0.49918000  1.0 -0.1702713111
F  F29  1  0.24370000  0.03400000  0.95540000  1.0 -0.1592381878
F  F30  1  0.75630000  0.53400000  0.54460000  1.0 -0.1592381878
F  F31  1  0.75630000  0.96600000  0.04460000  1.0 -0.1592381878
F  F32  1  0.24370000  0.46600000  0.45540000  1.0 -0.1592381878
F  F33  1  0.30530000  0.93920000  0.95610000  1.0 -0.1702713111
F  F34  1  0.69470000  0.43920000  0.54390000  1.0 -0.1702713111
F  F35  1  0.69470000  0.06080000  0.04390000  1.0 -0.1702713111
F  F36  1  0.30530000  0.56080000  0.45610000  1.0 -0.1702713111
F  F37  1  0.74700000  0.89680000  0.27210000  1.0 -0.1702713111
F  F38  1  0.80230000  0.91960000  0.31230000  1.0 -0.1275394946
F  F39  1  0.80620000  0.78810000  0.29490000  1.0 -0.1702713111
F  F40  1  0.25300000  0.39680000  0.22790000  1.0 -0.1702713111
F  F41  1  0.19770000  0.41960000  0.18770000  1.0 -0.1275394946
F  F42  1  0.19380000  0.28810000  0.20510000  1.0 -0.1702713111
F  F43  1  0.25300000  0.10320000  0.72790000  1.0 -0.1702713111
F  F44  1  0.19770000  0.08040000  0.68770000  1.0 -0.1275394946
F  F45  1  0.19380000  0.21190000  0.70510000  1.0 -0.1702713111
F  F46  1  0.74700000  0.60320000  0.77210000  1.0 -0.1702713111
F  F47  1  0.80230000  0.58040000  0.81230000  1.0 -0.1275394946
F  F48  1  0.80620000  0.71190000  0.79490000  1.0 -0.1702713111
F  F49  1  0.74360000  0.54980000  0.22230000  1.0 -0.1809752963
F  F50  1  0.69630000  0.66500000  0.20360000  1.0 -0.1702713111
F  F51  1  0.69270000  0.54120000  0.17750000  1.0 -0.1592381878
F  F52  1  0.25640000  0.04980000  0.27770000  1.0 -0.1809752963
F  F53  1  0.30370000  0.16500000  0.29640000  1.0 -0.1702713111
F  F54  1  0.30730000  0.04120000  0.32250000  1.0 -0.1592381878
F  F55  1  0.25640000  0.45020000  0.77770000  1.0 -0.1809752963
F  F56  1  0.30370000  0.33500000  0.79640000  1.0 -0.1702713111
F  F57  1  0.30730000  0.45880000  0.82250000  1.0 -0.1592381878
F  F58  1  0.74360000  0.95020000  0.72230000  1.0 -0.1809752963
F  F59  1  0.69630000  0.83500000  0.70360000  1.0 -0.1702713111
F  F60  1  0.69270000  0.95880000  0.67750000  1.0 -0.1592381878
F  F61  1  0.13450000  0.29110000  0.03100000  1.0 -0.1592381878
F  F62  1  0.17720000  0.25740000  0.07660000  1.0 -0.1702713111
F  F63  1  0.08750000  0.23680000  0.06820000  1.0 -0.1876926844
F  F64  1  0.86550000  0.79110000  0.46900000  1.0 -0.1702713111
F  F65  1  0.82280000  0.75740000  0.42340000  1.0 -0.1702713111
F  F66  1  0.91250000  0.73680000  0.43180000  1.0 -0.1876926844
F  F67  1  0.86550000  0.70890000  0.96900000  1.0 -0.1702713111
F  F68  1  0.82280000  0.74260000  0.92340000  1.0 -0.1702713111
F  F69  1  0.91250000  0.76320000  0.93180000  1.0 -0.1876926844
F  F70  1  0.13450000  0.20890000  0.53100000  1.0 -0.1592381878
F  F71  1  0.17720000  0.24260000  0.57660000  1.0 -0.1702713111
F  F72  1  0.08750000  0.26320000  0.56820000  1.0 -0.1876926844
