# DDEC6 charges by PACMAN v1.1 (https://github.com/mtap-research/PACMAN-charge/)
data_PEFJUF_ASR_pacman
_symmetry_space_group_name_H-M   'P 1'
_cell_length_a   17.54250000
_cell_length_b   17.54250000
_cell_length_c   8.85200000
_cell_angle_alpha   76.64830000
_cell_angle_beta   103.35200000
_cell_angle_gamma   131.86500000
_symmetry_Int_Tables_number   1
_chemical_formula_structural   Al5(PO4)6
_chemical_formula_sum   'Al10 P12 O48'
_cell_volume   1962.73892410
_cell_formula_units_Z   2
loop_
 _symmetry_equiv_pos_site_id
 _symmetry_equiv_pos_as_xyz
  1  'x, y, z'
loop_
 _atom_site_type_symbol
 _atom_site_label
 _atom_site_symmetry_multiplicity
 _atom_site_fract_x
 _atom_site_fract_y
 _atom_site_fract_z
 _atom_site_occupancy
 _atom_site_charge
Al  Al1  1  0.53970000  0.53970000  0.25000000  1.0 1.7540309163
Al  Al2  1  0.46030000  0.46030000  0.75000000  1.0 1.7540309163
Al  Al3  1  0.60080000  0.14360000  0.85460000  1.0 1.7322864166
Al  Al4  1  0.14360000  0.60080000  0.64540000  1.0 1.7322864166
Al  Al5  1  0.39920000  0.85640000  0.14540000  1.0 1.7322864166
Al  Al6  1  0.85640000  0.39920000  0.35460000  1.0 1.7322864166
Al  Al7  1  0.52660000  0.23560000  0.17670000  1.0 1.7582623294
Al  Al8  1  0.23560000  0.52660000  0.32330000  1.0 1.7582623294
Al  Al9  1  0.47340000  0.76440000  0.82330000  1.0 1.7582623294
Al  Al10  1  0.76440000  0.47340000  0.67670000  1.0 1.7540309163
P  P1  1  0.42360000  0.33760000  0.09270000  1.0 1.3790586821
P  P2  1  0.33760000  0.42360000  0.40730000  1.0 1.3790586821
P  P3  1  0.57640000  0.66240000  0.90730000  1.0 1.3790586821
P  P4  1  0.66240000  0.57640000  0.59270000  1.0 1.3790586821
P  P5  1  0.72380000  0.34640000  0.01690000  1.0 1.4045776359
P  P6  1  0.34640000  0.72380000  0.48310000  1.0 1.4045776359
P  P7  1  0.27620000  0.65360000  0.98310000  1.0 1.4045776359
P  P8  1  0.65360000  0.27620000  0.51690000  1.0 1.4045776359
P  P9  1  0.39770000  0.03610000  0.00510000  1.0 1.3638976148
P  P10  1  0.03610000  0.39770000  0.49490000  1.0 1.3665569356
P  P11  1  0.60230000  0.96390000  0.99490000  1.0 1.3665569356
P  P12  1  0.96390000  0.60230000  0.50510000  1.0 1.3665569356
O  O1  1  0.50650000  0.43510000  0.17900000  1.0 -0.7690400658
O  O2  1  0.43510000  0.50650000  0.32100000  1.0 -0.7690400658
O  O3  1  0.49350000  0.56490000  0.82100000  1.0 -0.7690400658
O  O4  1  0.56490000  0.49350000  0.67900000  1.0 -0.7690400658
O  O5  1  0.31850000  0.27870000  0.14700000  1.0 -0.481792427
O  O6  1  0.27870000  0.31850000  0.35300000  1.0 -0.481792427
O  O7  1  0.68150000  0.72130000  0.85300000  1.0 -0.481792427
O  O8  1  0.72130000  0.68150000  0.64700000  1.0 -0.481792427
O  O9  1  0.45040000  0.26960000  0.13200000  1.0 -0.7085394629
O  O10  1  0.26960000  0.45040000  0.36800000  1.0 -0.7085394629
O  O11  1  0.54960000  0.73040000  0.86800000  1.0 -0.7085394629
O  O12  1  0.73040000  0.54960000  0.63200000  1.0 -0.7085394629
O  O13  1  0.41970000  0.36230000  0.91300000  1.0 -0.7398214259
O  O14  1  0.36230000  0.41970000  0.58700000  1.0 -0.7480223673
O  O15  1  0.58030000  0.63770000  0.08700000  1.0 -0.7480223673
O  O16  1  0.63770000  0.58030000  0.41300000  1.0 -0.7480223673
O  O17  1  0.69140000  0.25060000  0.96600000  1.0 -0.8013322223
O  O18  1  0.25060000  0.69140000  0.53400000  1.0 -0.8052693077
O  O19  1  0.30860000  0.74940000  0.03400000  1.0 -0.8013322223
O  O20  1  0.74940000  0.30860000  0.46600000  1.0 -0.8013322223
O  O21  1  0.81040000  0.38320000  0.15100000  1.0 -0.7398214259
O  O22  1  0.38320000  0.81040000  0.34900000  1.0 -0.7398214259
O  O23  1  0.18960000  0.61680000  0.84900000  1.0 -0.7398214259
O  O24  1  0.61680000  0.18960000  0.65100000  1.0 -0.734698362
O  O25  1  0.63300000  0.32300000  0.07000000  1.0 -0.7802983888
O  O26  1  0.32300000  0.63300000  0.43000000  1.0 -0.7869129845
O  O27  1  0.36700000  0.67700000  0.93000000  1.0 -0.7802983888
O  O28  1  0.67700000  0.36700000  0.57000000  1.0 -0.7802983888
O  O29  1  0.76350000  0.43170000  0.88200000  1.0 -0.7480223673
O  O30  1  0.43170000  0.76350000  0.61800000  1.0 -0.7480223673
O  O31  1  0.23650000  0.56830000  0.11800000  1.0 -0.7480223673
O  O32  1  0.56830000  0.23650000  0.38200000  1.0 -0.7480223673
O  O33  1  0.37210000  0.93550000  0.09100000  1.0 -0.7085394629
O  O34  1  0.93550000  0.37210000  0.40900000  1.0 -0.7085394629
O  O35  1  0.62790000  0.06450000  0.90900000  1.0 -0.7085394629
O  O36  1  0.06450000  0.62790000  0.59100000  1.0 -0.7085394629
O  O37  1  0.47690000  0.08310000  0.88600000  1.0 -0.7690400658
O  O38  1  0.08310000  0.47690000  0.61400000  1.0 -0.7802983888
O  O39  1  0.52310000  0.91690000  0.11400000  1.0 -0.7690400658
O  O40  1  0.91690000  0.52310000  0.38600000  1.0 -0.7690400658
O  O41  1  0.45110000  0.10890000  0.13600000  1.0 -0.7690400658
O  O42  1  0.10890000  0.45110000  0.36400000  1.0 -0.7690400658
O  O43  1  0.54890000  0.89110000  0.86400000  1.0 -0.7690400658
O  O44  1  0.89110000  0.54890000  0.63600000  1.0 -0.7690400658
O  O45  1  0.30680000  0.02320000  0.92100000  1.0 -0.4884831576
O  O46  1  0.02320000  0.30680000  0.57900000  1.0 -0.4884831576
O  O47  1  0.69320000  0.97680000  0.07900000  1.0 -0.4884831576
O  O48  1  0.97680000  0.69320000  0.42100000  1.0 -0.4962503382
