# DDEC6 charges by PACMAN v1.1 (https://github.com/mtap-research/PACMAN-charge/)
data_PEPKUR_ASR_pacman
_symmetry_space_group_name_H-M   'P 1'
_cell_length_a   6.83710000
_cell_length_b   7.73080000
_cell_length_c   22.27210000
_cell_angle_alpha   90.00000000
_cell_angle_beta   90.00000000
_cell_angle_gamma   90.00000000
_symmetry_Int_Tables_number   1
_chemical_formula_structural   NiH11C12(NO2)2
_chemical_formula_sum   'Ni4 H44 C48 N8 O16'
_cell_volume   1177.21974531
_cell_formula_units_Z   4
loop_
 _symmetry_equiv_pos_site_id
 _symmetry_equiv_pos_as_xyz
  1  'x, y, z'
loop_
 _atom_site_type_symbol
 _atom_site_label
 _atom_site_symmetry_multiplicity
 _atom_site_fract_x
 _atom_site_fract_y
 _atom_site_fract_z
 _atom_site_occupancy
 _atom_site_charge
Ni  Ni1  1  0.05608000  0.74172000  0.21259000  1.0 0.7799072841
Ni  Ni2  1  0.94392000  0.74172000  0.78741000  1.0 0.7799072841
Ni  Ni3  1  0.44392000  0.25828000  0.71259000  1.0 0.7799072841
Ni  Ni4  1  0.55608000  0.25828000  0.28741000  1.0 0.7799072841
H  H1  1  0.84460000  0.65010000  0.30030000  1.0 0.2895973452
H  H2  1  0.15540000  0.65010000  0.69970000  1.0 0.2895973452
H  H3  1  0.65540000  0.34990000  0.80030000  1.0 0.2895973452
H  H4  1  0.34460000  0.34990000  0.19970000  1.0 0.2895973452
H  H5  1  0.90500000  0.83340000  0.31140000  1.0 0.2895973452
H  H6  1  0.09500000  0.83340000  0.68860000  1.0 0.2895973452
H  H7  1  0.59500000  0.16660000  0.81140000  1.0 0.2895973452
H  H8  1  0.40500000  0.16660000  0.18860000  1.0 0.2895973452
H  H9  1  0.16190000  0.88610000  0.38420000  1.0 0.1208871681
H  H10  1  0.83810000  0.88610000  0.61580000  1.0 0.1208871681
H  H11  1  0.33810000  0.11390000  0.88420000  1.0 0.1208871681
H  H12  1  0.66190000  0.11390000  0.11580000  1.0 0.1208871681
H  H13  1  0.35480000  0.77310000  0.37500000  1.0 0.1377420106
H  H14  1  0.64520000  0.77310000  0.62500000  1.0 0.1377420106
H  H15  1  0.14520000  0.22690000  0.87500000  1.0 0.1377420106
H  H16  1  0.85480000  0.22690000  0.12500000  1.0 0.1377420106
H  H17  1  0.06100000  0.60640000  0.37190000  1.0 0.0787304917
H  H18  1  0.93900000  0.60640000  0.62810000  1.0 0.0787304917
H  H19  1  0.43900000  0.39360000  0.87190000  1.0 0.0787304917
H  H20  1  0.56100000  0.39360000  0.12810000  1.0 0.0787304917
H  H21  1  0.47590000  0.76570000  0.17190000  1.0 0.1208871681
H  H22  1  0.52410000  0.76570000  0.82810000  1.0 0.1208871681
H  H23  1  0.02410000  0.23430000  0.67190000  1.0 0.1208871681
H  H24  1  0.97590000  0.23430000  0.32810000  1.0 0.1208871681
H  H25  1  0.66170000  0.73260000  0.08530000  1.0 0.1208871681
H  H26  1  0.33830000  0.73260000  0.91470000  1.0 0.1208871681
H  H27  1  0.83830000  0.26740000  0.58530000  1.0 0.1208871681
H  H28  1  0.16170000  0.26740000  0.41470000  1.0 0.1208871681
H  H29  1  0.18090000  0.65290000  0.99260000  1.0 0.1006285676
H  H30  1  0.81910000  0.65290000  0.00740000  1.0 0.1006285676
H  H31  1  0.31910000  0.34710000  0.49260000  1.0 0.1006285676
H  H32  1  0.68090000  0.34710000  0.50740000  1.0 0.1006285676
H  H33  1  0.01210000  0.62910000  0.08190000  1.0 0.1066567392
H  H34  1  0.98790000  0.62910000  0.91810000  1.0 0.1066567392
H  H35  1  0.48790000  0.37090000  0.58190000  1.0 0.1066567392
H  H36  1  0.51210000  0.37090000  0.41810000  1.0 0.1066567392
H  H37  1  0.17940000  0.87300000  0.99290000  1.0 0.0921055653
H  H38  1  0.82060000  0.87300000  0.00710000  1.0 0.0921055653
H  H39  1  0.32060000  0.12700000  0.49290000  1.0 0.0921055653
H  H40  1  0.67940000  0.12700000  0.50710000  1.0 0.0921055653
H  H41  1  0.00540000  0.84870000  0.08270000  1.0 0.1066567392
H  H42  1  0.99460000  0.84870000  0.91730000  1.0 0.1066567392
H  H43  1  0.49460000  0.15130000  0.58270000  1.0 0.1066567392
H  H44  1  0.50540000  0.15130000  0.41730000  1.0 0.1066567392
C  C1  1  0.30410000  0.94200000  0.30418000  1.0 0.6329921463
C  C2  1  0.69590000  0.94200000  0.69582000  1.0 0.6329921463
C  C3  1  0.19590000  0.05800000  0.80418000  1.0 0.6329921463
C  C4  1  0.80410000  0.05800000  0.19582000  1.0 0.6329921463
C  C5  1  0.23690000  0.81820000  0.35439000  1.0 -0.3844232431
C  C6  1  0.76310000  0.81820000  0.64561000  1.0 -0.3844232431
C  C7  1  0.26310000  0.18180000  0.85439000  1.0 -0.3844232431
C  C8  1  0.73690000  0.18180000  0.14561000  1.0 -0.3844232431
C  C9  1  0.11300000  0.66560000  0.33527000  1.0 0.0377097407
C  C10  1  0.88700000  0.66560000  0.66473000  1.0 0.0377097407
C  C11  1  0.38700000  0.33440000  0.83527000  1.0 0.0377097407
C  C12  1  0.61300000  0.33440000  0.16473000  1.0 0.0377097407
C  C13  1  0.23730000  0.53660000  0.29902000  1.0 0.5569643953
C  C14  1  0.76270000  0.53660000  0.70098000  1.0 0.5569643953
C  C15  1  0.26270000  0.46340000  0.79902000  1.0 0.5569643953
C  C16  1  0.73730000  0.46340000  0.20098000  1.0 0.5569643953
C  C17  1  0.41200000  0.75560000  0.13422000  1.0 -0.0421544754
C  C18  1  0.58800000  0.75560000  0.86578000  1.0 -0.0421544754
C  C19  1  0.08800000  0.24440000  0.63422000  1.0 -0.0421544754
C  C20  1  0.91200000  0.24440000  0.36578000  1.0 -0.0421544754
C  C21  1  0.52620000  0.75900000  0.08309000  1.0 -0.1864978544
C  C22  1  0.47380000  0.75900000  0.91691000  1.0 -0.1864978544
C  C23  1  0.97380000  0.24100000  0.58309000  1.0 -0.1864978544
C  C24  1  0.02620000  0.24100000  0.41691000  1.0 -0.1864978544
C  C25  1  0.44280000  0.71560000  0.02830000  1.0 0.0706168765
C  C26  1  0.55720000  0.71560000  0.97170000  1.0 0.0706168765
C  C27  1  0.05720000  0.28440000  0.52830000  1.0 0.0706168765
C  C28  1  0.94280000  0.28440000  0.47170000  1.0 0.0706168765
C  C29  1  0.24580000  0.67790000  0.02930000  1.0 -0.1102421938
C  C30  1  0.75420000  0.67790000  0.97070000  1.0 -0.1102421938
C  C31  1  0.25420000  0.32210000  0.52930000  1.0 -0.1102421938
C  C32  1  0.74580000  0.32210000  0.47070000  1.0 -0.1102421938
C  C33  1  0.14090000  0.67530000  0.08160000  1.0 0.0092762958
C  C34  1  0.85910000  0.67530000  0.91840000  1.0 0.0092762958
C  C35  1  0.35910000  0.32470000  0.58160000  1.0 0.0092762958
C  C36  1  0.64090000  0.32470000  0.41840000  1.0 0.0092762958
C  C37  1  0.44120000  0.80130000  0.02850000  1.0 0.0787304917
C  C38  1  0.55880000  0.80130000  0.97150000  1.0 0.0787304917
C  C39  1  0.05880000  0.19870000  0.52850000  1.0 0.0787304917
C  C40  1  0.94120000  0.19870000  0.47150000  1.0 0.0787304917
C  C41  1  0.24310000  0.83520000  0.02840000  1.0 -0.1102421938
C  C42  1  0.75690000  0.83520000  0.97160000  1.0 -0.1102421938
C  C43  1  0.25690000  0.16480000  0.52840000  1.0 -0.1102421938
C  C44  1  0.74310000  0.16480000  0.47160000  1.0 -0.1102421938
C  C45  1  0.13800000  0.81280000  0.08160000  1.0 0.0259856672
C  C46  1  0.86200000  0.81280000  0.91840000  1.0 0.0259856672
C  C47  1  0.36200000  0.18720000  0.58160000  1.0 0.0259856672
C  C48  1  0.63800000  0.18720000  0.41840000  1.0 0.0259856672
N  N1  1  0.94730000  0.72680000  0.29845000  1.0 -0.587965565
N  N2  1  0.05270000  0.72680000  0.70155000  1.0 -0.587965565
N  N3  1  0.55270000  0.27320000  0.79845000  1.0 -0.587965565
N  N4  1  0.44730000  0.27320000  0.20155000  1.0 -0.587965565
N  N5  1  0.22060000  0.73910000  0.13412000  1.0 -0.1765809528
N  N6  1  0.77940000  0.73910000  0.86588000  1.0 -0.1765809528
N  N7  1  0.27940000  0.26090000  0.63412000  1.0 -0.1765809528
N  N8  1  0.72060000  0.26090000  0.36588000  1.0 -0.1765809528
O  O1  1  0.26370000  0.91720000  0.25024000  1.0 -0.5384628198
O  O2  1  0.73630000  0.91720000  0.74976000  1.0 -0.5384628198
O  O3  1  0.23630000  0.08280000  0.75024000  1.0 -0.5384628198
O  O4  1  0.76370000  0.08280000  0.24976000  1.0 -0.5384628198
O  O5  1  0.40000000  0.06760000  0.32505000  1.0 -0.5521422795
O  O6  1  0.60000000  0.06760000  0.67495000  1.0 -0.5521422795
O  O7  1  0.10000000  0.93240000  0.82505000  1.0 -0.5521422795
O  O8  1  0.90000000  0.93240000  0.17495000  1.0 -0.5521422795
O  O9  1  0.35140000  0.43840000  0.32701000  1.0 -0.5521422795
O  O10  1  0.64860000  0.43840000  0.67299000  1.0 -0.5521422795
O  O11  1  0.14860000  0.56160000  0.82701000  1.0 -0.5521422795
O  O12  1  0.85140000  0.56160000  0.17299000  1.0 -0.5521422795
O  O13  1  0.21430000  0.53870000  0.24295000  1.0 -0.5157053492
O  O14  1  0.78570000  0.53870000  0.75705000  1.0 -0.5157053492
O  O15  1  0.28570000  0.46130000  0.74295000  1.0 -0.5157053492
O  O16  1  0.71430000  0.46130000  0.25705000  1.0 -0.5157053492
