# DDEC6 charges by PACMAN v1.1 (https://github.com/mtap-research/PACMAN-charge/)
data_PEQFAT_ASR_pacman
_symmetry_space_group_name_H-M   'P 1'
_cell_length_a   31.13890000
_cell_length_b   31.13890000
_cell_length_c   31.13890000
_cell_angle_alpha   93.94630000
_cell_angle_beta   93.94630000
_cell_angle_gamma   149.58200000
_symmetry_Int_Tables_number   1
_chemical_formula_structural   La2Cu3H22C23(NO3)6
_chemical_formula_sum   'La16 Cu24 H176 C184 N48 O144'
_cell_volume   14751.57920154
_cell_formula_units_Z   8
loop_
 _symmetry_equiv_pos_site_id
 _symmetry_equiv_pos_as_xyz
  1  'x, y, z'
loop_
 _atom_site_type_symbol
 _atom_site_label
 _atom_site_symmetry_multiplicity
 _atom_site_fract_x
 _atom_site_fract_y
 _atom_site_fract_z
 _atom_site_occupancy
 _atom_site_charge
La  La1  1  0.93851000  0.25024000  0.72695000  1.0 1.8300569832
La  La2  1  0.46156000  0.68851000  0.18827000  1.0 1.8300569832
La  La3  1  0.50024000  0.27329000  0.81173000  1.0 1.8300569832
La  La4  1  0.52329000  0.21156000  0.27305000  1.0 1.8300569832
La  La5  1  0.31149000  0.49976000  0.77305000  1.0 1.8300569832
La  La6  1  0.78844000  0.06149000  0.31173000  1.0 1.8300569832
La  La7  1  0.74976000  0.47671000  0.68827000  1.0 1.8300569832
La  La8  1  0.72671000  0.53844000  0.22695000  1.0 1.8300569832
La  La9  1  0.20247000  0.54325000  0.09064000  1.0 1.7817454219
La  La10  1  0.36183000  0.95247000  0.15922000  1.0 1.78628343
La  La11  1  0.79325000  0.20261000  0.84078000  1.0 1.78628343
La  La12  1  0.45261000  0.11183000  0.90936000  1.0 1.78628343
La  La13  1  0.04753000  0.20675000  0.40936000  1.0 1.78628343
La  La14  1  0.88817000  0.79753000  0.34078000  1.0 1.78628343
La  La15  1  0.45675000  0.54739000  0.65922000  1.0 1.78628343
La  La16  1  0.79739000  0.63817000  0.59064000  1.0 1.78628343
Cu  Cu1  1  0.08618000  0.46815000  0.90395000  1.0 0.6410281618
Cu  Cu2  1  0.43223000  0.83618000  0.11803000  1.0 0.6410281618
Cu  Cu3  1  0.71815000  0.31420000  0.88197000  1.0 0.6410281618
Cu  Cu4  1  0.56420000  0.18223000  0.09605000  1.0 0.6410281618
Cu  Cu5  1  0.16382000  0.28185000  0.59605000  1.0 0.6410281618
Cu  Cu6  1  0.81777000  0.91382000  0.38197000  1.0 0.6410281618
Cu  Cu7  1  0.53185000  0.43580000  0.61803000  1.0 0.6410281618
Cu  Cu8  1  0.68580000  0.56777000  0.40395000  1.0 0.6410281618
Cu  Cu9  1  0.01545000  0.30584000  0.55323000  1.0 0.6560578823
Cu  Cu10  1  0.71222000  0.76545000  0.20961000  1.0 0.6560578823
Cu  Cu11  1  0.55584000  0.50261000  0.79039000  1.0 0.6560578823
Cu  Cu12  1  0.75261000  0.46222000  0.44677000  1.0 0.6560578823
Cu  Cu13  1  0.23455000  0.44416000  0.94677000  1.0 0.6560578823
Cu  Cu14  1  0.53778000  0.98455000  0.29039000  1.0 0.6560578823
Cu  Cu15  1  0.69416000  0.24739000  0.70961000  1.0 0.6560578823
Cu  Cu16  1  0.49739000  0.28778000  0.05323000  1.0 0.6560578823
Cu  Cu17  1  0.74643000  0.92208000  0.71221000  1.0 0.6410281618
Cu  Cu18  1  0.28422000  0.49643000  0.32435000  1.0 0.6410281618
Cu  Cu19  1  0.17208000  0.95987000  0.67565000  1.0 0.6471702337
Cu  Cu20  1  0.20987000  0.03422000  0.28779000  1.0 0.6410281618
Cu  Cu21  1  0.50357000  0.82792000  0.78779000  1.0 0.6410281618
Cu  Cu22  1  0.96578000  0.25357000  0.17565000  1.0 0.6410281618
Cu  Cu23  1  0.07792000  0.79013000  0.82435000  1.0 0.6410281618
Cu  Cu24  1  0.04013000  0.71578000  0.21221000  1.0 0.6410281618
H  H1  1  0.23850000  0.53850000  0.86060000  1.0 0.0985377889
H  H2  1  0.62790000  0.98850000  0.20000000  1.0 0.0985377889
H  H3  1  0.78850000  0.42790000  0.80000000  1.0 0.0985377889
H  H4  1  0.67790000  0.37790000  0.13940000  1.0 0.0985377889
H  H5  1  0.01150000  0.21150000  0.63940000  1.0 0.0985377889
H  H6  1  0.62210000  0.76150000  0.30000000  1.0 0.0985377889
H  H7  1  0.46150000  0.32210000  0.70000000  1.0 0.0985377889
H  H8  1  0.57210000  0.37210000  0.36060000  1.0 0.0985377889
H  H9  1  0.22920000  0.56660000  0.82700000  1.0 0.0895785143
H  H10  1  0.65220000  0.97920000  0.16260000  1.0 0.0895785143
H  H11  1  0.81660000  0.48960000  0.83740000  1.0 0.0895785143
H  H12  1  0.73960000  0.40220000  0.17300000  1.0 0.0895785143
H  H13  1  0.02080000  0.18340000  0.67300000  1.0 0.0895785143
H  H14  1  0.59780000  0.77080000  0.33740000  1.0 0.0895785143
H  H15  1  0.43340000  0.26040000  0.66260000  1.0 0.0895785143
H  H16  1  0.51040000  0.34780000  0.32700000  1.0 0.0895785143
H  H17  1  0.25740000  0.64280000  0.88520000  1.0 0.0609183704
H  H18  1  0.62220000  0.00740000  0.11460000  1.0 0.0609183704
H  H19  1  0.89280000  0.50760000  0.88540000  1.0 0.0609183704
H  H20  1  0.75760000  0.37220000  0.11480000  1.0 0.0609183704
H  H21  1  0.99260000  0.10720000  0.61480000  1.0 0.0609183704
H  H22  1  0.62780000  0.74260000  0.38540000  1.0 0.0609183704
H  H23  1  0.35720000  0.24240000  0.61460000  1.0 0.0609183704
H  H24  1  0.49240000  0.37780000  0.38520000  1.0 0.0609183704
H  H25  1  0.33610000  0.68010000  0.88780000  1.0 0.1116877384
H  H26  1  0.69830000  0.08610000  0.15600000  1.0 0.1116877384
H  H27  1  0.93010000  0.54230000  0.84400000  1.0 0.1116877384
H  H28  1  0.79230000  0.44830000  0.11220000  1.0 0.1116877384
H  H29  1  0.91390000  0.06990000  0.61220000  1.0 0.1116877384
H  H30  1  0.55170000  0.66390000  0.34400000  1.0 0.1116877384
H  H31  1  0.31990000  0.20770000  0.65600000  1.0 0.1116877384
H  H32  1  0.45770000  0.30170000  0.38780000  1.0 0.1116877384
H  H33  1  0.30510000  0.62270000  0.94680000  1.0 0.0807700082
H  H34  1  0.60830000  0.05510000  0.18240000  1.0 0.0807700082
H  H35  1  0.87270000  0.42590000  0.81760000  1.0 0.0807700082
H  H36  1  0.67590000  0.35830000  0.05320000  1.0 0.0807700082
H  H37  1  0.94490000  0.12730000  0.55320000  1.0 0.0807700082
H  H38  1  0.64170000  0.69490000  0.31760000  1.0 0.0807700082
H  H39  1  0.37730000  0.32410000  0.68240000  1.0 0.0807700082
H  H40  1  0.57410000  0.39170000  0.44680000  1.0 0.0807700082
H  H41  1  0.32500000  0.68950000  0.95630000  1.0 0.0895785143
H  H42  1  0.61870000  0.07500000  0.13550000  1.0 0.0895785143
H  H43  1  0.93950000  0.48320000  0.86450000  1.0 0.0895785143
H  H44  1  0.73320000  0.36870000  0.04370000  1.0 0.0895785143
H  H45  1  0.92500000  0.06050000  0.54370000  1.0 0.0895785143
H  H46  1  0.63130000  0.67500000  0.36450000  1.0 0.0895785143
H  H47  1  0.31050000  0.26680000  0.63550000  1.0 0.0895785143
H  H48  1  0.51680000  0.38130000  0.45630000  1.0 0.0895785143
H  H49  1  0.20040000  0.48890000  0.65450000  1.0 0.1116877384
H  H50  1  0.79590000  0.95040000  0.21150000  1.0 0.1116877384
H  H51  1  0.73890000  0.58440000  0.78850000  1.0 0.1116877384
H  H52  1  0.83440000  0.54590000  0.34550000  1.0 0.1116877384
H  H53  1  0.04960000  0.26110000  0.84550000  1.0 0.1116877384
H  H54  1  0.45410000  0.79960000  0.28850000  1.0 0.1116877384
H  H55  1  0.51110000  0.16560000  0.71150000  1.0 0.1116877384
H  H56  1  0.41560000  0.20410000  0.15450000  1.0 0.1116877384
H  H57  1  0.18720000  0.42790000  0.64230000  1.0 0.0985377889
H  H58  1  0.79490000  0.93720000  0.25930000  1.0 0.0985377889
H  H59  1  0.67790000  0.53560000  0.74070000  1.0 0.0985377889
H  H60  1  0.78560000  0.54490000  0.35770000  1.0 0.0985377889
H  H61  1  0.06280000  0.32210000  0.85770000  1.0 0.0985377889
H  H62  1  0.45510000  0.81280000  0.24070000  1.0 0.0985377889
H  H63  1  0.57210000  0.21440000  0.75930000  1.0 0.0985377889
H  H64  1  0.46440000  0.20510000  0.14230000  1.0 0.0985377889
H  H65  1  0.20430000  0.50150000  0.58100000  1.0 0.1116877384
H  H66  1  0.87330000  0.95430000  0.20280000  1.0 0.1116877384
H  H67  1  0.75150000  0.67050000  0.79720000  1.0 0.1116877384
H  H68  1  0.92050000  0.62330000  0.41900000  1.0 0.1116877384
H  H69  1  0.04570000  0.24850000  0.91900000  1.0 0.1116877384
H  H70  1  0.37670000  0.79570000  0.29720000  1.0 0.1116877384
H  H71  1  0.49850000  0.07950000  0.70280000  1.0 0.1116877384
H  H72  1  0.32950000  0.12670000  0.08100000  1.0 0.1116877384
H  H73  1  0.28330000  0.54370000  0.60700000  1.0 0.1160210699
H  H74  1  0.92630000  0.03330000  0.23960000  1.0 0.1160210699
H  H75  1  0.79370000  0.68670000  0.76040000  1.0 0.1160210699
H  H76  1  0.93670000  0.67630000  0.39300000  1.0 0.1160210699
H  H77  1  0.96670000  0.20630000  0.89300000  1.0 0.1160210699
H  H78  1  0.32370000  0.71670000  0.26040000  1.0 0.1160210699
H  H79  1  0.45630000  0.06330000  0.73960000  1.0 0.1160210699
H  H80  1  0.31330000  0.07370000  0.10700000  1.0 0.1160210699
H  H81  1  0.21260000  0.41820000  0.56980000  1.0 0.0985377889
H  H82  1  0.89280000  0.96260000  0.29440000  1.0 0.0985377889
H  H83  1  0.66820000  0.59840000  0.70560000  1.0 0.0985377889
H  H84  1  0.84840000  0.64280000  0.43020000  1.0 0.0985377889
H  H85  1  0.03740000  0.33180000  0.93020000  1.0 0.0985377889
H  H86  1  0.35720000  0.78740000  0.20560000  1.0 0.0985377889
H  H87  1  0.58180000  0.15160000  0.79440000  1.0 0.0985377889
H  H88  1  0.40160000  0.10720000  0.06980000  1.0 0.0985377889
H  H89  1  0.23790000  0.47130000  0.53720000  1.0 0.0985377889
H  H90  1  0.95070000  0.98790000  0.26660000  1.0 0.0985377889
H  H91  1  0.72130000  0.68410000  0.73340000  1.0 0.0985377889
H  H92  1  0.93410000  0.70070000  0.46280000  1.0 0.0985377889
H  H93  1  0.01210000  0.27870000  0.96280000  1.0 0.0985377889
H  H94  1  0.29930000  0.76210000  0.23340000  1.0 0.0985377889
H  H95  1  0.52870000  0.06590000  0.76660000  1.0 0.0985377889
H  H96  1  0.31590000  0.04930000  0.03720000  1.0 0.0985377889
H  H97  1  0.82080000  0.04850000  0.82250000  1.0 0.0895785143
H  H98  1  0.24830000  0.57080000  0.27230000  1.0 0.0895785143
H  H99  1  0.29850000  0.97600000  0.72770000  1.0 0.0895785143
H  H100  1  0.22600000  0.99830000  0.17750000  1.0 0.0895785143
H  H101  1  0.42920000  0.70150000  0.67750000  1.0 0.0895785143
H  H102  1  0.00170000  0.17920000  0.22770000  1.0 0.0895785143
H  H103  1  0.95150000  0.77400000  0.77230000  1.0 0.0895785143
H  H104  1  0.02400000  0.75170000  0.32250000  1.0 0.0895785143
H  H105  1  0.72060000  0.96800000  0.80100000  1.0 0.0895785143
H  H106  1  0.16960000  0.47060000  0.25260000  1.0 0.0895785143
H  H107  1  0.21800000  0.91700000  0.74740000  1.0 0.0895785143
H  H108  1  0.16700000  0.91960000  0.19900000  1.0 0.0895785143
H  H109  1  0.52940000  0.78200000  0.69900000  1.0 0.0895785143
H  H110  1  0.08040000  0.27940000  0.24740000  1.0 0.0895785143
H  H111  1  0.03200000  0.83300000  0.75260000  1.0 0.0895785143
H  H112  1  0.08300000  0.83040000  0.30100000  1.0 0.0895785143
H  H113  1  0.79720000  0.95190000  0.81390000  1.0 0.0807700082
H  H114  1  0.23330000  0.54720000  0.34530000  1.0 0.0807700082
H  H115  1  0.20190000  0.88800000  0.65470000  1.0 0.0807700082
H  H116  1  0.13800000  0.98330000  0.18610000  1.0 0.0807700082
H  H117  1  0.45280000  0.79810000  0.68610000  1.0 0.0807700082
H  H118  1  0.01670000  0.20280000  0.15470000  1.0 0.0807700082
H  H119  1  0.04810000  0.86200000  0.84530000  1.0 0.0807700082
H  H120  1  0.11200000  0.76670000  0.31390000  1.0 0.0807700082
H  H121  1  0.74740000  0.93150000  0.84670000  1.0 0.0713283533
H  H122  1  0.15070000  0.49740000  0.31590000  1.0 0.0713283533
H  H123  1  0.18150000  0.83480000  0.68410000  1.0 0.0713283533
H  H124  1  0.08480000  0.90070000  0.15330000  1.0 0.0713283533
H  H125  1  0.50260000  0.81850000  0.65330000  1.0 0.0713283533
H  H126  1  0.09930000  0.25260000  0.18410000  1.0 0.0713283533
H  H127  1  0.06850000  0.91520000  0.81590000  1.0 0.0713283533
H  H128  1  0.16520000  0.84930000  0.34670000  1.0 0.0713283533
H  H129  1  0.61410000  0.81270000  0.78700000  1.0 0.0895785143
H  H130  1  0.07710000  0.36410000  0.30140000  1.0 0.0895785143
H  H131  1  0.06270000  0.77570000  0.69860000  1.0 0.0895785143
H  H132  1  0.02570000  0.82710000  0.21300000  1.0 0.0895785143
H  H133  1  0.63590000  0.93730000  0.71300000  1.0 0.0895785143
H  H134  1  0.17290000  0.38590000  0.19860000  1.0 0.0895785143
H  H135  1  0.18730000  0.97430000  0.80140000  1.0 0.0895785143
H  H136  1  0.22430000  0.92290000  0.28700000  1.0 0.0895785143
H  H137  1  0.64800000  0.79610000  0.79990000  1.0 0.1116877384
H  H138  1  0.09810000  0.39800000  0.35190000  1.0 0.1116877384
H  H139  1  0.04610000  0.74620000  0.64810000  1.0 0.1116877384
H  H140  1  0.99620000  0.84810000  0.20010000  1.0 0.1116877384
H  H141  1  0.60200000  0.95390000  0.70010000  1.0 0.1116877384
H  H142  1  0.15190000  0.35200000  0.14810000  1.0 0.1116877384
H  H143  1  0.20390000  0.00380000  0.85190000  1.0 0.1116877384
H  H144  1  0.25380000  0.90190000  0.29990000  1.0 0.1116877384
H  H145  1  0.33880000  0.63670000  0.90210000  1.0 0.0985377889
H  H146  1  0.68670000  0.08880000  0.20210000  1.0 0.0985377889
H  H147  1  0.88670000  0.48460000  0.79790000  1.0 0.0985377889
H  H148  1  0.73460000  0.43670000  0.09790000  1.0 0.0985377889
H  H149  1  0.91120000  0.11330000  0.59790000  1.0 0.0985377889
H  H150  1  0.56330000  0.66120000  0.29790000  1.0 0.0985377889
H  H151  1  0.36330000  0.26540000  0.70210000  1.0 0.0985377889
H  H152  1  0.51540000  0.31330000  0.40210000  1.0 0.0985377889
H  H153  1  0.25520000  0.54600000  0.91340000  1.0 0.0609183704
H  H154  1  0.59180000  0.00520000  0.20920000  1.0 0.0609183704
H  H155  1  0.79600000  0.38260000  0.79080000  1.0 0.0609183704
H  H156  1  0.63260000  0.34180000  0.08660000  1.0 0.0609183704
H  H157  1  0.99480000  0.20400000  0.58660000  1.0 0.0609183704
H  H158  1  0.65820000  0.74480000  0.29080000  1.0 0.0609183704
H  H159  1  0.45400000  0.36740000  0.70920000  1.0 0.0609183704
H  H160  1  0.61740000  0.40820000  0.41340000  1.0 0.0609183704
H  H161  1  0.66960000  0.88610000  0.81830000  1.0 0.0807700082
H  H162  1  0.10130000  0.41960000  0.28350000  1.0 0.0807700082
H  H163  1  0.13610000  0.81780000  0.71650000  1.0 0.0807700082
H  H164  1  0.06780000  0.85130000  0.18170000  1.0 0.0807700082
H  H165  1  0.58040000  0.86390000  0.68170000  1.0 0.0807700082
H  H166  1  0.14870000  0.33040000  0.21650000  1.0 0.0807700082
H  H167  1  0.11390000  0.93220000  0.78350000  1.0 0.0807700082
H  H168  1  0.18220000  0.89870000  0.31830000  1.0 0.0807700082
H  H169  1  0.74650000  0.92170000  0.82840000  1.0 0.0807700082
H  H170  1  0.16810000  0.49650000  0.32480000  1.0 0.0807700082
H  H171  1  0.17170000  0.84330000  0.67520000  1.0 0.0807700082
H  H172  1  0.09330000  0.91810000  0.17160000  1.0 0.0807700082
H  H173  1  0.50350000  0.82830000  0.67160000  1.0 0.0807700082
H  H174  1  0.08190000  0.25350000  0.17520000  1.0 0.0807700082
H  H175  1  0.07830000  0.90670000  0.82480000  1.0 0.0807700082
H  H176  1  0.15670000  0.83190000  0.32840000  1.0 0.0807700082
C  C1  1  0.97778000  0.33712000  0.82790000  1.0 0.4644655094
C  C2  1  0.39988000  0.72778000  0.14066000  1.0 0.4644655094
C  C3  1  0.58712000  0.25922000  0.85934000  1.0 0.4644655094
C  C4  1  0.50922000  0.14988000  0.17210000  1.0 0.4644655094
C  C5  1  0.27222000  0.41288000  0.67210000  1.0 0.4644655094
C  C6  1  0.85012000  0.02222000  0.35934000  1.0 0.4644655094
C  C7  1  0.66288000  0.49078000  0.64066000  1.0 0.4644655094
C  C8  1  0.74078000  0.60012000  0.32790000  1.0 0.4644655094
C  C9  1  0.07000000  0.41070000  0.82270000  1.0 0.3469758152
C  C10  1  0.49730000  0.82000000  0.15930000  1.0 0.3469758152
C  C11  1  0.66070000  0.33800000  0.84070000  1.0 0.3469758152
C  C12  1  0.58800000  0.24730000  0.17730000  1.0 0.3469758152
C  C13  1  0.18000000  0.33930000  0.67730000  1.0 0.3469758152
C  C14  1  0.75270000  0.93000000  0.34070000  1.0 0.3469758152
C  C15  1  0.58930000  0.41200000  0.65930000  1.0 0.3469758152
C  C16  1  0.66200000  0.50270000  0.32270000  1.0 0.3469758152
C  C17  1  0.09350000  0.48340000  0.99290000  1.0 0.4894433014
C  C18  1  0.35060000  0.84350000  0.11010000  1.0 0.4894433014
C  C19  1  0.73340000  0.24050000  0.88990000  1.0 0.4894433014
C  C20  1  0.49050000  0.10060000  0.00710000  1.0 0.4894433014
C  C21  1  0.15650000  0.26660000  0.50710000  1.0 0.4894433014
C  C22  1  0.89940000  0.90650000  0.38990000  1.0 0.4894433014
C  C23  1  0.51660000  0.50950000  0.61010000  1.0 0.4894433014
C  C24  1  0.75950000  0.64940000  0.49290000  1.0 0.4894433014
C  C25  1  0.18900000  0.56000000  0.98900000  1.0 0.3469758152
C  C26  1  0.45000000  0.93900000  0.12900000  1.0 0.3588346976
C  C27  1  0.81000000  0.32100000  0.87100000  1.0 0.3588346976
C  C28  1  0.57100000  0.20000000  0.01100000  1.0 0.3469758152
C  C29  1  0.06100000  0.19000000  0.51100000  1.0 0.3469758152
C  C30  1  0.80000000  0.81100000  0.37100000  1.0 0.3588346976
C  C31  1  0.44000000  0.42900000  0.62900000  1.0 0.3588346976
C  C32  1  0.67900000  0.55000000  0.48900000  1.0 0.3588346976
C  C33  1  0.22110000  0.55300000  0.85570000  1.0 0.028573777
C  C34  1  0.61540000  0.97110000  0.16810000  1.0 0.028573777
C  C35  1  0.80300000  0.44730000  0.83190000  1.0 0.028573777
C  C36  1  0.69730000  0.36540000  0.14430000  1.0 0.028573777
C  C37  1  0.02890000  0.19700000  0.64430000  1.0 0.028573777
C  C38  1  0.63460000  0.77890000  0.33190000  1.0 0.028573777
C  C39  1  0.44700000  0.30270000  0.66810000  1.0 0.028573777
C  C40  1  0.55270000  0.38460000  0.35570000  1.0 0.028573777
C  C41  1  0.27700000  0.63080000  0.89160000  1.0 -0.1413010385
C  C42  1  0.63540000  0.02700000  0.14620000  1.0 -0.1413010385
C  C43  1  0.88080000  0.48920000  0.85380000  1.0 -0.1413010385
C  C44  1  0.73920000  0.38540000  0.10840000  1.0 -0.1413010385
C  C45  1  0.97300000  0.11920000  0.60840000  1.0 -0.1413010385
C  C46  1  0.61460000  0.72300000  0.35380000  1.0 -0.1413010385
C  C47  1  0.36920000  0.26080000  0.64620000  1.0 -0.1413010385
C  C48  1  0.51080000  0.36460000  0.39160000  1.0 -0.1413010385
C  C49  1  0.28370000  0.63250000  0.93860000  1.0 0.028573777
C  C50  1  0.59510000  0.03370000  0.15120000  1.0 0.028573777
C  C51  1  0.88250000  0.44390000  0.84880000  1.0 0.028573777
C  C52  1  0.69390000  0.34510000  0.06140000  1.0 0.028573777
C  C53  1  0.96630000  0.11750000  0.56140000  1.0 0.028573777
C  C54  1  0.65490000  0.71630000  0.34880000  1.0 0.028573777
C  C55  1  0.36750000  0.30610000  0.65120000  1.0 0.028573777
C  C56  1  0.55610000  0.40490000  0.43860000  1.0 0.028573777
C  C57  1  0.93530000  0.25400000  0.61970000  1.0 0.4801271047
C  C58  1  0.56560000  0.68530000  0.18130000  1.0 0.4801271047
C  C59  1  0.50400000  0.38430000  0.81870000  1.0 0.4801271047
C  C60  1  0.63430000  0.31560000  0.38030000  1.0 0.4801271047
C  C61  1  0.31470000  0.49600000  0.88030000  1.0 0.4801271047
C  C62  1  0.68440000  0.06470000  0.31870000  1.0 0.4801271047
C  C63  1  0.74600000  0.36570000  0.68130000  1.0 0.4801271047
C  C64  1  0.61570000  0.43440000  0.11970000  1.0 0.4801271047
C  C65  1  0.03420000  0.33410000  0.64190000  1.0 0.3588346976
C  C66  1  0.64230000  0.78420000  0.20010000  1.0 0.3588346976
C  C67  1  0.58410000  0.44220000  0.79990000  1.0 0.3588346976
C  C68  1  0.69220000  0.39230000  0.35810000  1.0 0.3588346976
C  C69  1  0.21580000  0.41590000  0.85810000  1.0 0.3588346976
C  C70  1  0.60770000  0.96580000  0.29990000  1.0 0.3588346976
C  C71  1  0.66590000  0.30780000  0.70010000  1.0 0.3588346976
C  C72  1  0.55780000  0.35770000  0.14190000  1.0 0.3588346976
C  C73  1  0.98240000  0.22830000  0.47470000  1.0 0.4717522591
C  C74  1  0.75770000  0.73240000  0.25410000  1.0 0.4717522591
C  C75  1  0.47830000  0.50360000  0.74590000  1.0 0.4717522591
C  C76  1  0.75360000  0.50770000  0.52530000  1.0 0.4717522591
C  C77  1  0.26760000  0.52170000  0.02530000  1.0 0.4717522591
C  C78  1  0.49230000  0.01760000  0.24590000  1.0 0.4717522591
C  C79  1  0.77170000  0.24640000  0.75410000  1.0 0.4717522591
C  C80  1  0.49640000  0.24230000  0.97470000  1.0 0.4717522591
C  C81  1  0.08030000  0.30960000  0.49470000  1.0 0.3588346976
C  C82  1  0.83560000  0.83030000  0.27070000  1.0 0.3588346976
C  C83  1  0.55960000  0.56490000  0.72930000  1.0 0.3588346976
C  C84  1  0.81490000  0.58560000  0.50530000  1.0 0.3588346976
C  C85  1  0.16970000  0.44040000  0.00530000  1.0 0.3588346976
C  C86  1  0.41440000  0.91970000  0.22930000  1.0 0.3588346976
C  C87  1  0.69040000  0.18510000  0.77070000  1.0 0.3588346976
C  C88  1  0.43510000  0.16440000  0.99470000  1.0 0.3588346976
C  C89  1  0.17610000  0.44640000  0.63050000  1.0 -0.0399112094
C  C90  1  0.79560000  0.92610000  0.22970000  1.0 -0.0399112094
C  C91  1  0.69640000  0.56590000  0.77030000  1.0 -0.0399112094
C  C92  1  0.81590000  0.54560000  0.36950000  1.0 -0.0399112094
C  C93  1  0.07390000  0.30360000  0.86950000  1.0 -0.0399112094
C  C94  1  0.45440000  0.82390000  0.27030000  1.0 -0.0399112094
C  C95  1  0.55360000  0.18410000  0.72970000  1.0 -0.0399112094
C  C96  1  0.43410000  0.20440000  0.13050000  1.0 -0.0399112094
C  C97  1  0.22050000  0.48840000  0.59410000  1.0 -0.2189413131
C  C98  1  0.87640000  0.97050000  0.23210000  1.0 -0.2189413131
C  C99  1  0.73840000  0.64430000  0.76790000  1.0 -0.2189413131
C  C100  1  0.89430000  0.62640000  0.40590000  1.0 -0.2189413131
C  C101  1  0.02950000  0.26160000  0.90590000  1.0 -0.2189413131
C  C102  1  0.37360000  0.77950000  0.26790000  1.0 -0.2189413131
C  C103  1  0.51160000  0.10570000  0.73210000  1.0 -0.2189413131
C  C104  1  0.35570000  0.12360000  0.09410000  1.0 -0.2189413131
C  C105  1  0.20080000  0.43590000  0.55730000  1.0 -0.0265512288
C  C106  1  0.89350000  0.95080000  0.26490000  1.0 -0.0265512288
C  C107  1  0.68590000  0.62860000  0.73510000  1.0 -0.0265512288
C  C108  1  0.87860000  0.64350000  0.44270000  1.0 -0.0265512288
C  C109  1  0.04920000  0.31410000  0.94270000  1.0 -0.0265512288
C  C110  1  0.35650000  0.79920000  0.23510000  1.0 -0.0265512288
C  C111  1  0.56410000  0.12140000  0.76490000  1.0 -0.0265512288
C  C112  1  0.37140000  0.10650000  0.05730000  1.0 -0.0265512288
C  C113  1  0.83720000  0.06830000  0.69730000  1.0 0.4455171779
C  C114  1  0.38990000  0.58720000  0.26890000  1.0 0.4455171779
C  C115  1  0.31830000  0.12100000  0.73110000  1.0 0.4455171779
C  C116  1  0.37100000  0.13990000  0.30270000  1.0 0.4455171779
C  C117  1  0.41280000  0.68170000  0.80270000  1.0 0.4455171779
C  C118  1  0.86010000  0.16280000  0.23110000  1.0 0.4455171779
C  C119  1  0.93170000  0.62900000  0.76890000  1.0 0.4455171779
C  C120  1  0.87900000  0.61010000  0.19730000  1.0 0.4455171779
C  C121  1  0.82800000  0.06890000  0.74550000  1.0 0.344560343
C  C122  1  0.33250000  0.57800000  0.25910000  1.0 0.3469758152
C  C123  1  0.31890000  0.07340000  0.74090000  1.0 0.344560343
C  C124  1  0.32340000  0.08250000  0.25450000  1.0 0.344560343
C  C125  1  0.42200000  0.68110000  0.75450000  1.0 0.344560343
C  C126  1  0.91750000  0.17200000  0.24090000  1.0 0.3469758152
C  C127  1  0.93110000  0.67660000  0.75910000  1.0 0.3469758152
C  C128  1  0.92660000  0.66750000  0.24550000  1.0 0.3469758152
C  C129  1  0.63370000  0.76300000  0.66870000  1.0 0.4801271047
C  C130  1  0.21500000  0.38370000  0.37070000  1.0 0.4801271047
C  C131  1  0.01300000  0.84430000  0.62930000  1.0 0.4801271047
C  C132  1  0.09430000  0.96500000  0.33130000  1.0 0.4801271047
C  C133  1  0.61630000  0.98700000  0.83130000  1.0 0.4801271047
C  C134  1  0.03500000  0.36630000  0.12930000  1.0 0.4801271047
C  C135  1  0.23700000  0.90570000  0.87070000  1.0 0.4801271047
C  C136  1  0.15570000  0.78500000  0.16870000  1.0 0.4801271047
C  C137  1  0.61290000  0.75160000  0.71530000  1.0 0.3588346976
C  C138  1  0.14760000  0.36290000  0.36130000  1.0 0.3588346976
C  C139  1  0.00160000  0.78630000  0.63870000  1.0 0.3588346976
C  C140  1  0.03630000  0.89760000  0.28470000  1.0 0.3588346976
C  C141  1  0.63710000  0.99840000  0.78470000  1.0 0.3588346976
C  C142  1  0.10240000  0.38710000  0.13870000  1.0 0.3588346976
C  C143  1  0.24840000  0.96370000  0.86130000  1.0 0.3588346976
C  C144  1  0.21370000  0.85240000  0.21530000  1.0 0.3588346976
C  C145  1  0.76990000  0.99170000  0.80120000  1.0 -0.0038452822
C  C146  1  0.21870000  0.51990000  0.27820000  1.0 -0.0038452822
C  C147  1  0.24170000  0.94050000  0.72180000  1.0 -0.0038452822
C  C148  1  0.19050000  0.96870000  0.19880000  1.0 -0.0038452822
C  C149  1  0.48010000  0.75830000  0.69880000  1.0 -0.0038452822
C  C150  1  0.03130000  0.23010000  0.22180000  1.0 -0.0038452822
C  C151  1  0.00830000  0.80950000  0.77820000  1.0 -0.0038452822
C  C152  1  0.05950000  0.78130000  0.30120000  1.0 -0.0062671381
C  C153  1  0.74980000  0.93040000  0.81580000  1.0 -0.0924058927
C  C154  1  0.18400000  0.49980000  0.31940000  1.0 -0.0924058927
C  C155  1  0.18040000  0.86460000  0.68060000  1.0 -0.0924058927
C  C156  1  0.11460000  0.93400000  0.18420000  1.0 -0.0924058927
C  C157  1  0.50020000  0.81960000  0.68420000  1.0 -0.0924058927
C  C158  1  0.06600000  0.25020000  0.18060000  1.0 -0.0924058927
C  C159  1  0.06960000  0.88540000  0.81940000  1.0 -0.0924058927
C  C160  1  0.13540000  0.81600000  0.31580000  1.0 -0.0924058927
C  C161  1  0.66110000  0.83320000  0.78690000  1.0 -0.0172296067
C  C162  1  0.12420000  0.41110000  0.32790000  1.0 -0.0172296067
C  C163  1  0.08320000  0.79630000  0.67210000  1.0 -0.0172296067
C  C164  1  0.04630000  0.87420000  0.21310000  1.0 -0.0172296067
C  C165  1  0.58890000  0.91680000  0.71310000  1.0 -0.0172296067
C  C166  1  0.12580000  0.33890000  0.17210000  1.0 -0.0172296067
C  C167  1  0.16680000  0.95370000  0.82790000  1.0 -0.0172296067
C  C168  1  0.20370000  0.87580000  0.28690000  1.0 -0.0172296067
C  C169  1  0.27980000  0.59260000  0.90420000  1.0 -0.1820658825
C  C170  1  0.62560000  0.02980000  0.18720000  1.0 -0.1820658825
C  C171  1  0.84260000  0.43840000  0.81280000  1.0 -0.1820658825
C  C172  1  0.68840000  0.37560000  0.09580000  1.0 -0.1820658825
C  C173  1  0.97020000  0.15740000  0.59580000  1.0 -0.1820658825
C  C174  1  0.62440000  0.72020000  0.31280000  1.0 -0.1820658825
C  C175  1  0.40740000  0.31160000  0.68720000  1.0 -0.1820658825
C  C176  1  0.56160000  0.37440000  0.40420000  1.0 -0.1820658825
C  C177  1  0.70870000  0.90360000  0.80430000  1.0 -0.1413010385
C  C178  1  0.15440000  0.45870000  0.30510000  1.0 -0.1413010385
C  C179  1  0.15360000  0.84930000  0.69490000  1.0 -0.1413010385
C  C180  1  0.09930000  0.90440000  0.19570000  1.0 -0.1413010385
C  C181  1  0.54130000  0.84640000  0.69570000  1.0 -0.1413010385
C  C182  1  0.09560000  0.29130000  0.19490000  1.0 -0.1413010385
C  C183  1  0.09640000  0.90070000  0.80510000  1.0 -0.1413010385
C  C184  1  0.15070000  0.84560000  0.30430000  1.0 -0.1413010385
N  N1  1  0.13026000  0.47914000  0.85580000  1.0 -0.4385137737
N  N2  1  0.52446000  0.88026000  0.15112000  1.0 -0.4385137737
N  N3  1  0.72914000  0.37334000  0.84888000  1.0 -0.4385137737
N  N4  1  0.62334000  0.27446000  0.14420000  1.0 -0.4385137737
N  N5  1  0.11974000  0.27086000  0.64420000  1.0 -0.4385137737
N  N6  1  0.72554000  0.86974000  0.34888000  1.0 -0.4385137737
N  N7  1  0.52086000  0.37666000  0.65112000  1.0 -0.4385137737
N  N8  1  0.62666000  0.47554000  0.35580000  1.0 -0.4385137737
N  N9  1  0.19674000  0.56377000  0.94771000  1.0 -0.4502692998
N  N10  1  0.49903000  0.94674000  0.13297000  1.0 -0.4502692998
N  N11  1  0.81377000  0.36606000  0.86703000  1.0 -0.4502692998
N  N12  1  0.61606000  0.24903000  0.05229000  1.0 -0.4502692998
N  N13  1  0.05326000  0.18623000  0.55229000  1.0 -0.4502692998
N  N14  1  0.75097000  0.80326000  0.36703000  1.0 -0.4502692998
N  N15  1  0.43623000  0.38394000  0.63297000  1.0 -0.4502692998
N  N16  1  0.63394000  0.50097000  0.44771000  1.0 -0.4502692998
N  N17  1  0.08326000  0.37200000  0.61506000  1.0 -0.3698057317
N  N18  1  0.71820000  0.83326000  0.21126000  1.0 -0.3698057317
N  N19  1  0.62200000  0.50694000  0.78874000  1.0 -0.3698057317
N  N20  1  0.75694000  0.46820000  0.38494000  1.0 -0.3698057317
N  N21  1  0.16674000  0.37800000  0.88494000  1.0 -0.3698057317
N  N22  1  0.53180000  0.91674000  0.28874000  1.0 -0.3698057317
N  N23  1  0.62800000  0.24306000  0.71126000  1.0 -0.3698057317
N  N24  1  0.49306000  0.28180000  0.11506000  1.0 -0.3698057317
N  N25  1  0.10736000  0.35718000  0.53274000  1.0 -0.4261040732
N  N26  1  0.82462000  0.85736000  0.25018000  1.0 -0.4261040732
N  N27  1  0.60718000  0.57444000  0.74982000  1.0 -0.4261040732
N  N28  1  0.82444000  0.57462000  0.46726000  1.0 -0.4261040732
N  N29  1  0.14264000  0.39282000  0.96726000  1.0 -0.4261040732
N  N30  1  0.42538000  0.89264000  0.24982000  1.0 -0.4261040732
N  N31  1  0.64282000  0.17556000  0.75018000  1.0 -0.4261040732
N  N32  1  0.42556000  0.17538000  0.03274000  1.0 -0.4261040732
N  N33  1  0.78620000  0.00263000  0.75703000  1.0 -0.4502692998
N  N34  1  0.27917000  0.53620000  0.28357000  1.0 -0.4502692998
N  N35  1  0.25263000  0.99560000  0.71643000  1.0 -0.4502692998
N  N36  1  0.24560000  0.02917000  0.24297000  1.0 -0.4502692998
N  N37  1  0.46380000  0.74737000  0.74297000  1.0 -0.4502692998
N  N38  1  0.97083000  0.21380000  0.21643000  1.0 -0.4385137737
N  N39  1  0.99737000  0.75440000  0.78357000  1.0 -0.4502692998
N  N40  1  0.00440000  0.72083000  0.25703000  1.0 -0.4385137737
N  N41  1  0.66450000  0.82508000  0.74078000  1.0 -0.4502692998
N  N42  1  0.17372000  0.41450000  0.33942000  1.0 -0.4502692998
N  N43  1  0.07508000  0.83430000  0.66058000  1.0 -0.4502692998
N  N44  1  0.08430000  0.92372000  0.25922000  1.0 -0.4502692998
N  N45  1  0.58550000  0.92492000  0.75922000  1.0 -0.4502692998
N  N46  1  0.07628000  0.33550000  0.16058000  1.0 -0.4502692998
N  N47  1  0.17492000  0.91570000  0.83942000  1.0 -0.4502692998
N  N48  1  0.16570000  0.82628000  0.24078000  1.0 -0.4502692998
O  O1  1  0.91445000  0.26766000  0.79811000  1.0 -0.5740540594
O  O2  1  0.36634000  0.66445000  0.14679000  1.0 -0.5740540594
O  O3  1  0.51766000  0.21955000  0.85321000  1.0 -0.5740540594
O  O4  1  0.46955000  0.11634000  0.20189000  1.0 -0.5740540594
O  O5  1  0.33555000  0.48234000  0.70189000  1.0 -0.5740540594
O  O6  1  0.88366000  0.08555000  0.35321000  1.0 -0.5740540594
O  O7  1  0.73234000  0.53045000  0.64679000  1.0 -0.5740540594
O  O8  1  0.78045000  0.63366000  0.29811000  1.0 -0.5740540594
O  O9  1  0.07655000  0.39415000  0.78730000  1.0 -0.5596699238
O  O10  1  0.53925000  0.82655000  0.18240000  1.0 -0.5596699238
O  O11  1  0.64415000  0.35685000  0.81760000  1.0 -0.5596699238
O  O12  1  0.60685000  0.28925000  0.21270000  1.0 -0.5596699238
O  O13  1  0.17345000  0.35585000  0.71270000  1.0 -0.5596699238
O  O14  1  0.71075000  0.92345000  0.31760000  1.0 -0.5596699238
O  O15  1  0.60585000  0.39315000  0.68240000  1.0 -0.5596699238
O  O16  1  0.64315000  0.46075000  0.28730000  1.0 -0.5596699238
O  O17  1  0.88576000  0.21881000  0.64457000  1.0 -0.5596699238
O  O18  1  0.49119000  0.63576000  0.16695000  1.0 -0.5596699238
O  O19  1  0.46881000  0.32424000  0.83305000  1.0 -0.5596699238
O  O20  1  0.57424000  0.24119000  0.35543000  1.0 -0.5596699238
O  O21  1  0.36424000  0.53119000  0.85543000  1.0 -0.5596699238
O  O22  1  0.75881000  0.11424000  0.33305000  1.0 -0.5596699238
O  O23  1  0.78119000  0.42576000  0.66695000  1.0 -0.5596699238
O  O24  1  0.67576000  0.50881000  0.14457000  1.0 -0.5596699238
O  O25  1  0.05603000  0.35225000  0.68468000  1.0 -0.5596699238
O  O26  1  0.62135000  0.80603000  0.20378000  1.0 -0.5596699238
O  O27  1  0.60225000  0.41757000  0.79622000  1.0 -0.5596699238
O  O28  1  0.66757000  0.37135000  0.31532000  1.0 -0.5596699238
O  O29  1  0.19397000  0.39775000  0.81532000  1.0 -0.5596699238
O  O30  1  0.62865000  0.94397000  0.29622000  1.0 -0.5596699238
O  O31  1  0.64775000  0.33243000  0.70378000  1.0 -0.5596699238
O  O32  1  0.58243000  0.37865000  0.18468000  1.0 -0.5596699238
O  O33  1  0.87447000  0.12819000  0.68126000  1.0 -0.5257971406
O  O34  1  0.44321000  0.62447000  0.24628000  1.0 -0.5235245447
O  O35  1  0.37819000  0.19693000  0.75372000  1.0 -0.5235245447
O  O36  1  0.44693000  0.19321000  0.31874000  1.0 -0.5257971406
O  O37  1  0.37553000  0.62181000  0.81874000  1.0 -0.5257971406
O  O38  1  0.80679000  0.12553000  0.25372000  1.0 -0.5257971406
O  O39  1  0.87181000  0.55307000  0.74628000  1.0 -0.5235245447
O  O40  1  0.80307000  0.55679000  0.18126000  1.0 -0.5235245447
O  O41  1  0.85905000  0.13121000  0.76646000  1.0 -0.5481202275
O  O42  1  0.34259000  0.60905000  0.22784000  1.0 -0.5481202275
O  O43  1  0.38121000  0.11475000  0.77216000  1.0 -0.5481202275
O  O44  1  0.36475000  0.09259000  0.23354000  1.0 -0.5481202275
O  O45  1  0.39095000  0.61879000  0.73354000  1.0 -0.5481202275
O  O46  1  0.90741000  0.14095000  0.27216000  1.0 -0.5481202275
O  O47  1  0.86879000  0.63525000  0.72784000  1.0 -0.5481202275
O  O48  1  0.88525000  0.65741000  0.26646000  1.0 -0.5481202275
O  O49  1  0.08033000  0.47396000  0.02969000  1.0 -0.463991803
O  O50  1  0.30064000  0.83033000  0.10637000  1.0 -0.463991803
O  O51  1  0.72396000  0.19427000  0.89363000  1.0 -0.463991803
O  O52  1  0.44427000  0.05064000  0.97031000  1.0 -0.463991803
O  O53  1  0.16967000  0.27604000  0.47031000  1.0 -0.463991803
O  O54  1  0.94936000  0.91967000  0.39363000  1.0 -0.463991803
O  O55  1  0.52604000  0.55573000  0.60637000  1.0 -0.463991803
O  O56  1  0.80573000  0.69936000  0.52969000  1.0 -0.463991803
O  O57  1  0.24839000  0.61030000  0.02489000  1.0 -0.5075757362
O  O58  1  0.47350000  0.99839000  0.13809000  1.0 -0.5075757362
O  O59  1  0.86030000  0.33541000  0.86191000  1.0 -0.5075757362
O  O60  1  0.58541000  0.22350000  0.97511000  1.0 -0.5075757362
O  O61  1  0.00161000  0.13970000  0.47511000  1.0 -0.5075757362
O  O62  1  0.77650000  0.75161000  0.36191000  1.0 -0.5075757362
O  O63  1  0.38970000  0.41459000  0.63809000  1.0 -0.5075757362
O  O64  1  0.66459000  0.52650000  0.52489000  1.0 -0.5075757362
O  O65  1  0.95041000  0.18049000  0.43890000  1.0 -0.4732477134
O  O66  1  0.76151000  0.70041000  0.26992000  1.0 -0.4732477134
O  O67  1  0.43049000  0.49159000  0.73008000  1.0 -0.4732477134
O  O68  1  0.74159000  0.51151000  0.56110000  1.0 -0.4732477134
O  O69  1  0.29959000  0.56951000  0.06110000  1.0 -0.4732477134
O  O70  1  0.48849000  0.04959000  0.23008000  1.0 -0.4732477134
O  O71  1  0.81951000  0.25841000  0.76992000  1.0 -0.4732477134
O  O72  1  0.50841000  0.23849000  0.93890000  1.0 -0.4732477134
O  O73  1  0.12455000  0.32493000  0.47448000  1.0 -0.4883622516
O  O74  1  0.90007000  0.87455000  0.29962000  1.0 -0.4883622516
O  O75  1  0.57493000  0.60045000  0.70038000  1.0 -0.4883622516
O  O76  1  0.85045000  0.65007000  0.52552000  1.0 -0.4883622516
O  O77  1  0.12545000  0.42507000  0.02552000  1.0 -0.4883622516
O  O78  1  0.34993000  0.87545000  0.20038000  1.0 -0.4883622516
O  O79  1  0.67507000  0.14955000  0.79962000  1.0 -0.4883622516
O  O80  1  0.39955000  0.09993000  0.97448000  1.0 -0.4883622516
O  O81  1  0.58654000  0.69362000  0.64236000  1.0 -0.5075757362
O  O82  1  0.19418000  0.33654000  0.39292000  1.0 -0.5075757362
O  O83  1  0.94362000  0.80126000  0.60708000  1.0 -0.5075757362
O  O84  1  0.05126000  0.94418000  0.35764000  1.0 -0.5075757362
O  O85  1  0.66346000  0.05638000  0.85764000  1.0 -0.5075757362
O  O86  1  0.05582000  0.41346000  0.10708000  1.0 -0.5075757362
O  O87  1  0.30638000  0.94874000  0.89292000  1.0 -0.5075757362
O  O88  1  0.19874000  0.80582000  0.14236000  1.0 -0.5075757362
O  O89  1  0.55350000  0.67801000  0.72331000  1.0 -0.4883622516
O  O90  1  0.08019000  0.30350000  0.37549000  1.0 -0.4883622516
O  O91  1  0.92801000  0.70470000  0.62451000  1.0 -0.4883622516
O  O92  1  0.95470000  0.83019000  0.27669000  1.0 -0.4883622516
O  O93  1  0.69650000  0.07199000  0.77669000  1.0 -0.4883622516
O  O94  1  0.16981000  0.44650000  0.12451000  1.0 -0.4883622516
O  O95  1  0.32199000  0.04530000  0.87549000  1.0 -0.4883622516
O  O96  1  0.29530000  0.91981000  0.22331000  1.0 -0.4883622516
O  O97  1  0.96798000  0.34975000  0.86293000  1.0 -0.5235245447
O  O98  1  0.35505000  0.71798000  0.11823000  1.0 -0.5235245447
O  O99  1  0.59975000  0.23682000  0.88177000  1.0 -0.5235245447
O  O100  1  0.48682000  0.10505000  0.13707000  1.0 -0.5235245447
O  O101  1  0.28202000  0.40025000  0.63707000  1.0 -0.5235245447
O  O102  1  0.89495000  0.03202000  0.38177000  1.0 -0.5235245447
O  O103  1  0.65025000  0.51318000  0.61823000  1.0 -0.5235245447
O  O104  1  0.76318000  0.64495000  0.36293000  1.0 -0.5235245447
O  O105  1  0.03485000  0.43344000  0.95569000  1.0 -0.481503934
O  O106  1  0.32916000  0.78485000  0.10141000  1.0 -0.481503934
O  O107  1  0.68344000  0.22775000  0.89859000  1.0 -0.481503934
O  O108  1  0.47775000  0.07916000  0.04431000  1.0 -0.481503934
O  O109  1  0.21515000  0.31656000  0.54431000  1.0 -0.481503934
O  O110  1  0.92084000  0.96515000  0.39859000  1.0 -0.481503934
O  O111  1  0.56656000  0.52225000  0.60141000  1.0 -0.481503934
O  O112  1  0.77225000  0.67084000  0.45569000  1.0 -0.481503934
O  O113  1  0.91453000  0.23363000  0.57776000  1.0 -0.481503934
O  O114  1  0.58677000  0.66453000  0.18090000  1.0 -0.481503934
O  O115  1  0.48363000  0.40587000  0.81910000  1.0 -0.481503934
O  O116  1  0.65587000  0.33677000  0.42224000  1.0 -0.481503934
O  O117  1  0.33547000  0.51637000  0.92224000  1.0 -0.481503934
O  O118  1  0.66323000  0.08547000  0.31910000  1.0 -0.481503934
O  O119  1  0.76637000  0.34413000  0.68090000  1.0 -0.481503934
O  O120  1  0.59413000  0.41323000  0.07776000  1.0 -0.481503934
O  O121  1  0.93836000  0.21424000  0.49680000  1.0 -0.4732477134
O  O122  1  0.69156000  0.68836000  0.22412000  1.0 -0.481503934
O  O123  1  0.46424000  0.46744000  0.77588000  1.0 -0.481503934
O  O124  1  0.71744000  0.44156000  0.50320000  1.0 -0.4732477134
O  O125  1  0.31164000  0.53576000  0.00320000  1.0 -0.4732477134
O  O126  1  0.55844000  0.06164000  0.27588000  1.0 -0.4732477134
O  O127  1  0.78576000  0.28256000  0.72412000  1.0 -0.4732477134
O  O128  1  0.53256000  0.30844000  0.99680000  1.0 -0.4732477134
O  O129  1  0.80590000  0.00606000  0.67696000  1.0 -0.4732477134
O  O130  1  0.37894000  0.55590000  0.29984000  1.0 -0.4732477134
O  O131  1  0.25606000  0.07910000  0.70016000  1.0 -0.4732477134
O  O132  1  0.32910000  0.12894000  0.32304000  1.0 -0.4732477134
O  O133  1  0.44410000  0.74394000  0.82304000  1.0 -0.4732477134
O  O134  1  0.87106000  0.19410000  0.20016000  1.0 -0.4732477134
O  O135  1  0.99394000  0.67090000  0.79984000  1.0 -0.4732477134
O  O136  1  0.92090000  0.62106000  0.17696000  1.0 -0.4732477134
O  O137  1  0.68960000  0.83358000  0.66018000  1.0 -0.4502692998
O  O138  1  0.27942000  0.43960000  0.35602000  1.0 -0.4502692998
O  O139  1  0.08358000  0.92340000  0.64398000  1.0 -0.4502692998
O  O140  1  0.17340000  0.02942000  0.33982000  1.0 -0.4502692998
O  O141  1  0.56040000  0.91642000  0.83982000  1.0 -0.4502692998
O  O142  1  0.97058000  0.31040000  0.14398000  1.0 -0.4502692998
O  O143  1  0.16642000  0.82660000  0.85602000  1.0 -0.4502692998
O  O144  1  0.07660000  0.72058000  0.16018000  1.0 -0.4502692998
