# DDEC6 charges by PACMAN v1.1 (https://github.com/mtap-research/PACMAN-charge/)
data_PESNIO_ASR_pacman
_symmetry_space_group_name_H-M   'P 1'
_cell_length_a   10.16500000
_cell_length_b   17.06600000
_cell_length_c   13.23400000
_cell_angle_alpha   90.00000000
_cell_angle_beta   110.21500000
_cell_angle_gamma   90.00000000
_symmetry_Int_Tables_number   1
_chemical_formula_structural   Mn2H9C17NO8
_chemical_formula_sum   'Mn4 H18 C34 N2 O16'
_cell_volume   2154.36583475
_cell_formula_units_Z   2
loop_
 _symmetry_equiv_pos_site_id
 _symmetry_equiv_pos_as_xyz
  1  'x, y, z'
loop_
 _atom_site_type_symbol
 _atom_site_label
 _atom_site_symmetry_multiplicity
 _atom_site_fract_x
 _atom_site_fract_y
 _atom_site_fract_z
 _atom_site_occupancy
 _atom_site_charge
Mn  Mn1  1  0.44375000  0.31770000  0.79274000  1.0 0.9685149237
Mn  Mn2  1  0.75817000  0.26370000  0.99891000  1.0 1.0472080155
Mn  Mn3  1  0.55625000  0.81770000  0.20726000  1.0 0.9685149237
Mn  Mn4  1  0.24183000  0.76370000  0.00109000  1.0 1.0472080155
H  H1  1  0.98620000  0.32060000  0.80322000  1.0 0.1367532009
H  H2  1  0.66936000  0.35819000  0.16880000  1.0 0.1167573078
H  H3  1  0.45729000  0.54549000  0.98188000  1.0 0.1367532009
H  H4  1  0.00282000  0.35478000  0.50681000  1.0 0.1260341673
H  H5  1  0.61438000  0.57299000  0.30822000  1.0 0.1367532009
H  H6  1  0.62698000  0.36020000  0.53686000  1.0 0.1167573078
H  H7  1  0.76513000  0.47798000  0.44583000  1.0 0.290405397
H  H8  1  0.65366000  0.34408000  0.37876000  1.0 0.1146947934
H  H9  1  0.80104000  0.34784000  0.36404000  1.0 0.1015146921
H  H10  1  0.01380000  0.82060000  0.19678000  1.0 0.1367532009
H  H11  1  0.33064000  0.85819000  0.83120000  1.0 0.1167573078
H  H12  1  0.54271000  0.04549000  0.01812000  1.0 0.1367532009
H  H13  1  0.99718000  0.85478000  0.49319000  1.0 0.1260341673
H  H14  1  0.38562000  0.07299000  0.69178000  1.0 0.1367532009
H  H15  1  0.37302000  0.86020000  0.46314000  1.0 0.1167573078
H  H16  1  0.23487000  0.97798000  0.55417000  1.0 0.290405397
H  H17  1  0.34634000  0.84408000  0.62124000  1.0 0.1146947934
H  H18  1  0.19896000  0.84784000  0.63596000  1.0 0.1015146921
C  C1  1  0.94300000  0.32940000  0.72980000  1.0 -0.072123661
C  C2  1  0.63600000  0.40930000  0.16370000  1.0 -0.1812410907
C  C3  1  0.79060000  0.33160000  0.68760000  1.0 -0.1129998074
C  C4  1  0.50790000  0.52690000  0.05040000  1.0 -0.0517463966
C  C5  1  0.02390000  0.33870000  0.67270000  1.0 -0.0070626708
C  C6  1  0.70070000  0.32280000  0.73810000  1.0 0.4766891642
C  C7  1  0.49040000  0.64550000  0.14420000  1.0 0.5068041726
C  C8  1  0.53030000  0.40430000  0.97410000  1.0 0.5243181034
C  C9  1  0.52980000  0.56970000  0.13780000  1.0 -0.072123661
C  C10  1  0.18110000  0.33560000  0.72440000  1.0 0.5283522053
C  C11  1  0.56900000  0.44800000  0.06850000  1.0 -0.0772485317
C  C12  1  0.81100000  0.35500000  0.51300000  1.0 0.0080880329
C  C13  1  0.95100000  0.35060000  0.55230000  1.0 -0.1434843547
C  C14  1  0.60100000  0.54060000  0.24910000  1.0 -0.1924751804
C  C15  1  0.72280000  0.35130000  0.56870000  1.0 -0.1434843547
C  C16  1  0.74550000  0.36850000  0.40460000  1.0 -0.0517463966
C  C17  1  0.64819000  0.46323000  0.26243000  1.0 0.1015146921
C  C18  1  0.05700000  0.82940000  0.27020000  1.0 -0.072123661
C  C19  1  0.36400000  0.90930000  0.83630000  1.0 -0.1812410907
C  C20  1  0.20940000  0.83160000  0.31240000  1.0 -0.1129998074
C  C21  1  0.49210000  0.02690000  0.94960000  1.0 -0.0517463966
C  C22  1  0.97610000  0.83870000  0.32730000  1.0 -0.0070626708
C  C23  1  0.29930000  0.82280000  0.26190000  1.0 0.4766891642
C  C24  1  0.50960000  0.14550000  0.85580000  1.0 0.5068041726
C  C25  1  0.46970000  0.90430000  0.02590000  1.0 0.5243181034
C  C26  1  0.47020000  0.06970000  0.86220000  1.0 -0.072123661
C  C27  1  0.81890000  0.83560000  0.27560000  1.0 0.5283522053
C  C28  1  0.43100000  0.94800000  0.93150000  1.0 -0.0772485317
C  C29  1  0.18900000  0.85500000  0.48700000  1.0 0.0080880329
C  C30  1  0.04900000  0.85060000  0.44770000  1.0 -0.1456663416
C  C31  1  0.39900000  0.04060000  0.75090000  1.0 -0.1924751804
C  C32  1  0.27720000  0.85130000  0.43130000  1.0 -0.1434843547
C  C33  1  0.25450000  0.86850000  0.59540000  1.0 -0.0517463966
C  C34  1  0.35181000  0.96323000  0.73757000  1.0 0.1015146921
N  N1  1  0.73500000  0.44410000  0.39500000  1.0 -0.2676985816
N  N2  1  0.26500000  0.94410000  0.60500000  1.0 -0.2676985816
O  O1  1  0.23510000  0.30420000  0.80410000  1.0 -0.4088817791
O  O2  1  0.55320000  0.33333333  0.97400000  1.0 -0.5409631089
O  O3  1  0.76470000  0.30310000  0.84880000  1.0 -0.6511053697
O  O4  1  0.25890000  0.34610000  0.66170000  1.0 -0.5409631089
O  O5  1  0.58380000  0.34140000  0.71390000  1.0 -0.4368673668
O  O6  1  0.38100000  0.66630000  0.05460000  1.0 -0.5663121001
O  O7  1  0.46160000  0.43500000  0.87660000  1.0 -0.5227174417
O  O8  1  0.53150000  0.69000000  0.20840000  1.0 -0.3938271956
O  O9  1  0.76490000  0.80420000  0.19590000  1.0 -0.4088817791
O  O10  1  0.44680000  0.83333000  0.02600000  1.0 -0.5409631089
O  O11  1  0.23530000  0.80310000  0.15120000  1.0 -0.6511053697
O  O12  1  0.74110000  0.84610000  0.33830000  1.0 -0.5409631089
O  O13  1  0.41620000  0.84140000  0.28610000  1.0 -0.4368673668
O  O14  1  0.61900000  0.16630000  0.94540000  1.0 -0.5663121001
O  O15  1  0.53840000  0.93500000  0.12340000  1.0 -0.5227174417
O  O16  1  0.46850000  0.19000000  0.79160000  1.0 -0.3973260478
