# DDEC6 charges by PACMAN v1.1 (https://github.com/mtap-research/PACMAN-charge/)
data_PETWOC_FSR_pacman
_symmetry_space_group_name_H-M   'P 1'
_cell_length_a   15.21350000
_cell_length_b   15.21350000
_cell_length_c   15.21350000
_cell_angle_alpha   60.00000000
_cell_angle_beta   60.00000000
_cell_angle_gamma   60.00000000
_symmetry_Int_Tables_number   1
_chemical_formula_structural   U3H12C24O19
_chemical_formula_sum   'U6 H24 C48 O38'
_cell_volume   2489.84561225
_cell_formula_units_Z   2
loop_
 _symmetry_equiv_pos_site_id
 _symmetry_equiv_pos_as_xyz
  1  'x, y, z'
loop_
 _atom_site_type_symbol
 _atom_site_label
 _atom_site_symmetry_multiplicity
 _atom_site_fract_x
 _atom_site_fract_y
 _atom_site_fract_z
 _atom_site_occupancy
 _atom_site_charge
U  U1  1  0.12601000  0.12601000  0.87399000  1.0 2.5762194691
U  U2  1  0.87399000  0.87399000  0.12601000  1.0 2.567764729
U  U3  1  0.87399000  0.12601000  0.12601000  1.0 2.567764729
U  U4  1  0.12601000  0.87399000  0.87399000  1.0 2.5762194691
U  U5  1  0.12601000  0.87399000  0.12601000  1.0 2.567764729
U  U6  1  0.87399000  0.12601000  0.87399000  1.0 2.567764729
H  H1  1  0.13568000  0.42170000  0.57830000  1.0 0.1333297104
H  H2  1  0.42170000  0.13568000  0.86432000  1.0 0.1333297104
H  H3  1  0.57830000  0.86432000  0.13568000  1.0 0.1333297104
H  H4  1  0.86432000  0.57830000  0.42170000  1.0 0.1333297104
H  H5  1  0.57830000  0.13568000  0.42170000  1.0 0.1333297104
H  H6  1  0.86432000  0.42170000  0.13568000  1.0 0.1333297104
H  H7  1  0.13568000  0.57830000  0.86432000  1.0 0.1333297104
H  H8  1  0.42170000  0.86432000  0.57830000  1.0 0.1333297104
H  H9  1  0.42170000  0.57830000  0.13568000  1.0 0.1333297104
H  H10  1  0.13568000  0.86432000  0.42170000  1.0 0.1333297104
H  H11  1  0.86432000  0.13568000  0.57830000  1.0 0.1333297104
H  H12  1  0.57830000  0.42170000  0.86432000  1.0 0.1333297104
H  H13  1  0.86432000  0.57830000  0.13568000  1.0 0.1333297104
H  H14  1  0.57830000  0.86432000  0.42170000  1.0 0.1333297104
H  H15  1  0.42170000  0.13568000  0.57830000  1.0 0.1333297104
H  H16  1  0.13568000  0.42170000  0.86432000  1.0 0.1333297104
H  H17  1  0.42170000  0.86432000  0.13568000  1.0 0.1333297104
H  H18  1  0.13568000  0.57830000  0.42170000  1.0 0.1333297104
H  H19  1  0.86432000  0.42170000  0.57830000  1.0 0.1333297104
H  H20  1  0.57830000  0.13568000  0.86432000  1.0 0.1333297104
H  H21  1  0.57830000  0.42170000  0.13568000  1.0 0.1333297104
H  H22  1  0.86432000  0.13568000  0.42170000  1.0 0.1333297104
H  H23  1  0.13568000  0.86432000  0.57830000  1.0 0.1333297104
H  H24  1  0.42170000  0.57830000  0.86432000  1.0 0.1333297104
C  C1  1  0.00000000  0.30980000  0.69020000  1.0 0.6499514776
C  C2  1  0.30980000  0.00000000  0.00000000  1.0 0.6499514776
C  C3  1  0.69020000  0.00000000  0.00000000  1.0 0.6499514776
C  C4  1  0.00000000  0.69020000  0.30980000  1.0 0.6499514776
C  C5  1  0.69020000  0.00000000  0.30980000  1.0 0.6499514776
C  C6  1  0.00000000  0.30980000  0.00000000  1.0 0.6499514776
C  C7  1  0.00000000  0.69020000  0.00000000  1.0 0.6499514776
C  C8  1  0.30980000  0.00000000  0.69020000  1.0 0.6499514776
C  C9  1  0.30980000  0.69020000  0.00000000  1.0 0.6499514776
C  C10  1  0.00000000  0.00000000  0.30980000  1.0 0.6499514776
C  C11  1  0.00000000  0.00000000  0.69020000  1.0 0.6499514776
C  C12  1  0.69020000  0.30980000  0.00000000  1.0 0.6499514776
C  C13  1  0.00000000  0.40840000  0.59160000  1.0 -0.0275923178
C  C14  1  0.40840000  0.00000000  0.00000000  1.0 -0.0275923178
C  C15  1  0.59160000  0.00000000  0.00000000  1.0 -0.0275923178
C  C16  1  0.00000000  0.59160000  0.40840000  1.0 -0.0275923178
C  C17  1  0.59160000  0.00000000  0.40840000  1.0 -0.0275923178
C  C18  1  0.00000000  0.40840000  0.00000000  1.0 -0.0275923178
C  C19  1  0.00000000  0.59160000  0.00000000  1.0 -0.0275923178
C  C20  1  0.40840000  0.00000000  0.59160000  1.0 -0.0275923178
C  C21  1  0.40840000  0.59160000  0.00000000  1.0 -0.0275923178
C  C22  1  0.00000000  0.00000000  0.40840000  1.0 -0.0275923178
C  C23  1  0.00000000  0.00000000  0.59160000  1.0 -0.0275923178
C  C24  1  0.59160000  0.40840000  0.00000000  1.0 -0.0275923178
C  C25  1  0.08130000  0.45370000  0.54630000  1.0 -0.0988986818
C  C26  1  0.45370000  0.08130000  0.91870000  1.0 -0.0988986818
C  C27  1  0.54630000  0.91870000  0.08130000  1.0 -0.0988986818
C  C28  1  0.91870000  0.54630000  0.45370000  1.0 -0.0988986818
C  C29  1  0.54630000  0.08130000  0.45370000  1.0 -0.0988986818
C  C30  1  0.91870000  0.45370000  0.08130000  1.0 -0.0988986818
C  C31  1  0.08130000  0.54630000  0.91870000  1.0 -0.0988986818
C  C32  1  0.45370000  0.91870000  0.54630000  1.0 -0.0988986818
C  C33  1  0.45370000  0.54630000  0.08130000  1.0 -0.0988986818
C  C34  1  0.08130000  0.91870000  0.45370000  1.0 -0.0988986818
C  C35  1  0.91870000  0.08130000  0.54630000  1.0 -0.0988986818
C  C36  1  0.54630000  0.45370000  0.91870000  1.0 -0.0988986818
C  C37  1  0.91870000  0.54630000  0.08130000  1.0 -0.0988986818
C  C38  1  0.54630000  0.91870000  0.45370000  1.0 -0.0988986818
C  C39  1  0.45370000  0.08130000  0.54630000  1.0 -0.0988986818
C  C40  1  0.08130000  0.45370000  0.91870000  1.0 -0.0988986818
C  C41  1  0.45370000  0.91870000  0.08130000  1.0 -0.0988986818
C  C42  1  0.08130000  0.54630000  0.45370000  1.0 -0.0988986818
C  C43  1  0.91870000  0.45370000  0.54630000  1.0 -0.0988986818
C  C44  1  0.54630000  0.08130000  0.91870000  1.0 -0.0988986818
C  C45  1  0.54630000  0.45370000  0.08130000  1.0 -0.0988986818
C  C46  1  0.91870000  0.08130000  0.45370000  1.0 -0.0988986818
C  C47  1  0.08130000  0.91870000  0.54630000  1.0 -0.0988986818
C  C48  1  0.45370000  0.54630000  0.91870000  1.0 -0.0988986818
O  O1  1  0.07470000  0.27290000  0.72710000  1.0 -0.5794203383
O  O2  1  0.27290000  0.07470000  0.92530000  1.0 -0.5794203383
O  O3  1  0.72710000  0.92530000  0.07470000  1.0 -0.5794203383
O  O4  1  0.92530000  0.72710000  0.27290000  1.0 -0.5794203383
O  O5  1  0.72710000  0.07470000  0.27290000  1.0 -0.5794203383
O  O6  1  0.92530000  0.27290000  0.07470000  1.0 -0.5794203383
O  O7  1  0.07470000  0.72710000  0.92530000  1.0 -0.5794203383
O  O8  1  0.27290000  0.92530000  0.72710000  1.0 -0.5794203383
O  O9  1  0.27290000  0.72710000  0.07470000  1.0 -0.5794203383
O  O10  1  0.07470000  0.92530000  0.27290000  1.0 -0.5794203383
O  O11  1  0.92530000  0.07470000  0.72710000  1.0 -0.5794203383
O  O12  1  0.72710000  0.27290000  0.92530000  1.0 -0.5794203383
O  O13  1  0.92530000  0.72710000  0.07470000  1.0 -0.5794203383
O  O14  1  0.72710000  0.92530000  0.27290000  1.0 -0.5794203383
O  O15  1  0.27290000  0.07470000  0.72710000  1.0 -0.5794203383
O  O16  1  0.07470000  0.27290000  0.92530000  1.0 -0.5794203383
O  O17  1  0.27290000  0.92530000  0.07470000  1.0 -0.5794203383
O  O18  1  0.07470000  0.72710000  0.27290000  1.0 -0.5794203383
O  O19  1  0.92530000  0.27290000  0.72710000  1.0 -0.5794203383
O  O20  1  0.72710000  0.07470000  0.92530000  1.0 -0.5794203383
O  O21  1  0.72710000  0.27290000  0.07470000  1.0 -0.5794203383
O  O22  1  0.92530000  0.07470000  0.27290000  1.0 -0.5794203383
O  O23  1  0.07470000  0.92530000  0.72710000  1.0 -0.5794203383
O  O24  1  0.27290000  0.72710000  0.92530000  1.0 -0.5794203383
O  O25  1  0.06010000  0.06010000  0.06010000  1.0 -1.1090108457
O  O26  1  0.06010000  0.06010000  0.81970000  1.0 -1.1090108457
O  O27  1  0.06010000  0.81970000  0.06010000  1.0 -1.1090108457
O  O28  1  0.81970000  0.06010000  0.06010000  1.0 -1.1090108457
O  O29  1  0.93990000  0.93990000  0.18030000  1.0 -1.1090108457
O  O30  1  0.93990000  0.93990000  0.93990000  1.0 -1.1090108457
O  O31  1  0.93990000  0.18030000  0.93990000  1.0 -1.1090108457
O  O32  1  0.18030000  0.93990000  0.93990000  1.0 -1.1090108457
O  O33  1  0.24950000  0.24950000  0.75050000  1.0 -0.1600034947
O  O34  1  0.75050000  0.75050000  0.24950000  1.0 -0.149981797
O  O35  1  0.75050000  0.24950000  0.24950000  1.0 -0.1600034947
O  O36  1  0.24950000  0.75050000  0.75050000  1.0 -0.1600034947
O  O37  1  0.24950000  0.75050000  0.24950000  1.0 -0.149981797
O  O38  1  0.75050000  0.24950000  0.75050000  1.0 -0.1600034947
