# DDEC6 charges by PACMAN v1.1 (https://github.com/mtap-research/PACMAN-charge/)
data_PEVBUP_FSR_pacman
_symmetry_space_group_name_H-M   'P 1'
_cell_length_a   22.77300000
_cell_length_b   22.77300000
_cell_length_c   12.66800000
_cell_angle_alpha   90.00000000
_cell_angle_beta   90.00000000
_cell_angle_gamma   90.00000000
_symmetry_Int_Tables_number   1
_chemical_formula_structural   Cu19H60(C58N39)2
_chemical_formula_sum   'Cu38 H120 C232 N156'
_cell_volume   6569.74551337
_cell_formula_units_Z   2
loop_
 _symmetry_equiv_pos_site_id
 _symmetry_equiv_pos_as_xyz
  1  'x, y, z'
loop_
 _atom_site_type_symbol
 _atom_site_label
 _atom_site_symmetry_multiplicity
 _atom_site_fract_x
 _atom_site_fract_y
 _atom_site_fract_z
 _atom_site_occupancy
 _atom_site_charge
Cu  Cu1  1  0.50000000  0.50000000  0.00000000  1.0 0.502248254
Cu  Cu2  1  0.00000000  0.00000000  0.50000000  1.0 0.502248254
Cu  Cu3  1  0.33873000  0.46090000  0.16497000  1.0 0.3892859782
Cu  Cu4  1  0.66127000  0.53910000  0.16497000  1.0 0.3892859782
Cu  Cu5  1  0.96090000  0.16127000  0.66497000  1.0 0.3892859782
Cu  Cu6  1  0.03910000  0.83873000  0.66497000  1.0 0.3892859782
Cu  Cu7  1  0.16127000  0.03910000  0.33503000  1.0 0.3892859782
Cu  Cu8  1  0.83873000  0.96090000  0.33503000  1.0 0.3892859782
Cu  Cu9  1  0.53910000  0.33873000  0.83503000  1.0 0.3892859782
Cu  Cu10  1  0.46090000  0.66127000  0.83503000  1.0 0.3892859782
Cu  Cu11  1  0.38252000  0.29563000  0.00894000  1.0 0.2563769485
Cu  Cu12  1  0.61748000  0.70437000  0.00894000  1.0 0.2563769485
Cu  Cu13  1  0.79563000  0.11748000  0.50894000  1.0 0.2563769485
Cu  Cu14  1  0.20437000  0.88252000  0.50894000  1.0 0.2563769485
Cu  Cu15  1  0.11748000  0.20437000  0.49106000  1.0 0.2563769485
Cu  Cu16  1  0.88252000  0.79563000  0.49106000  1.0 0.2563769485
Cu  Cu17  1  0.70437000  0.38252000  0.99106000  1.0 0.2563769485
Cu  Cu18  1  0.29563000  0.61748000  0.99106000  1.0 0.2563769485
Cu  Cu19  1  0.93421000  0.30784000  0.91905000  1.0 0.1778454448
Cu  Cu20  1  0.06579000  0.69216000  0.91905000  1.0 0.1778454448
Cu  Cu21  1  0.80784000  0.56579000  0.41905000  1.0 0.1778454448
Cu  Cu22  1  0.19216000  0.43421000  0.41905000  1.0 0.1778454448
Cu  Cu23  1  0.56579000  0.19216000  0.58095000  1.0 0.1778454448
Cu  Cu24  1  0.43421000  0.80784000  0.58095000  1.0 0.1778454448
Cu  Cu25  1  0.69216000  0.93421000  0.08095000  1.0 0.1778454448
Cu  Cu26  1  0.30784000  0.06579000  0.08095000  1.0 0.1778454448
Cu  Cu27  1  0.75000000  0.25000000  0.75000000  1.0 0.4064930569
Cu  Cu28  1  0.25000000  0.75000000  0.75000000  1.0 0.4064930569
Cu  Cu29  1  0.75000000  0.75000000  0.25000000  1.0 0.4064930569
Cu  Cu30  1  0.25000000  0.25000000  0.25000000  1.0 0.4064930569
Cu  Cu31  1  0.12015000  0.37092000  0.76178000  1.0 0.354036514
Cu  Cu32  1  0.87985000  0.62908000  0.76178000  1.0 0.354036514
Cu  Cu33  1  0.87092000  0.37985000  0.26178000  1.0 0.354036514
Cu  Cu34  1  0.12908000  0.62015000  0.26178000  1.0 0.354036514
Cu  Cu35  1  0.37985000  0.12908000  0.73822000  1.0 0.354036514
Cu  Cu36  1  0.62015000  0.87092000  0.73822000  1.0 0.354036514
Cu  Cu37  1  0.62908000  0.12015000  0.23822000  1.0 0.354036514
Cu  Cu38  1  0.37092000  0.87985000  0.23822000  1.0 0.354036514
H  H1  1  0.32740000  0.46370000  0.77750000  1.0 0.2991523709
H  H2  1  0.67260000  0.53630000  0.77750000  1.0 0.2991523709
H  H3  1  0.96370000  0.17260000  0.27750000  1.0 0.2991523709
H  H4  1  0.03630000  0.82740000  0.27750000  1.0 0.2991523709
H  H5  1  0.17260000  0.03630000  0.72250000  1.0 0.2991523709
H  H6  1  0.82740000  0.96370000  0.72250000  1.0 0.2991523709
H  H7  1  0.53630000  0.32740000  0.22250000  1.0 0.2991523709
H  H8  1  0.46370000  0.67260000  0.22250000  1.0 0.2991523709
H  H9  1  0.30940000  0.55230000  0.51250000  1.0 0.1447674896
H  H10  1  0.69060000  0.44770000  0.51250000  1.0 0.1447674896
H  H11  1  0.05230000  0.19060000  0.01250000  1.0 0.1447674896
H  H12  1  0.94770000  0.80940000  0.01250000  1.0 0.1447674896
H  H13  1  0.19060000  0.94770000  0.98750000  1.0 0.1447674896
H  H14  1  0.80940000  0.05230000  0.98750000  1.0 0.1447674896
H  H15  1  0.44770000  0.30940000  0.48750000  1.0 0.1447674896
H  H16  1  0.55230000  0.69060000  0.48750000  1.0 0.1447674896
H  H17  1  0.31660000  0.46550000  0.60750000  1.0 0.110293707
H  H18  1  0.68340000  0.53450000  0.60750000  1.0 0.110293707
H  H19  1  0.96550000  0.18340000  0.10750000  1.0 0.110293707
H  H20  1  0.03450000  0.81660000  0.10750000  1.0 0.110293707
H  H21  1  0.18340000  0.03450000  0.89250000  1.0 0.110293707
H  H22  1  0.81660000  0.96550000  0.89250000  1.0 0.110293707
H  H23  1  0.53450000  0.31660000  0.39250000  1.0 0.110293707
H  H24  1  0.46550000  0.68340000  0.39250000  1.0 0.110293707
H  H25  1  0.34550000  0.37820000  0.52450000  1.0 0.1447674896
H  H26  1  0.65450000  0.62180000  0.52450000  1.0 0.1447674896
H  H27  1  0.87820000  0.15450000  0.02450000  1.0 0.1447674896
H  H28  1  0.12180000  0.84550000  0.02450000  1.0 0.1447674896
H  H29  1  0.15450000  0.12180000  0.97550000  1.0 0.1447674896
H  H30  1  0.84550000  0.87820000  0.97550000  1.0 0.1447674896
H  H31  1  0.62180000  0.34550000  0.47550000  1.0 0.1447674896
H  H32  1  0.37820000  0.65450000  0.47550000  1.0 0.1447674896
H  H33  1  0.41840000  0.19530000  0.34480000  1.0 0.127010234
H  H34  1  0.58160000  0.80470000  0.34480000  1.0 0.127010234
H  H35  1  0.69530000  0.08160000  0.84480000  1.0 0.127010234
H  H36  1  0.30470000  0.91840000  0.84480000  1.0 0.127010234
H  H37  1  0.08160000  0.30470000  0.15520000  1.0 0.127010234
H  H38  1  0.91840000  0.69530000  0.15520000  1.0 0.127010234
H  H39  1  0.80470000  0.41840000  0.65520000  1.0 0.127010234
H  H40  1  0.19530000  0.58160000  0.65520000  1.0 0.127010234
H  H41  1  0.43920000  0.08390000  0.11730000  1.0 0.1215322202
H  H42  1  0.56080000  0.91610000  0.11730000  1.0 0.1215322202
H  H43  1  0.58390000  0.06080000  0.61730000  1.0 0.1215322202
H  H44  1  0.41610000  0.93920000  0.61730000  1.0 0.1215322202
H  H45  1  0.06080000  0.41610000  0.38270000  1.0 0.1215322202
H  H46  1  0.93920000  0.58390000  0.38270000  1.0 0.1215322202
H  H47  1  0.91610000  0.43920000  0.88270000  1.0 0.1215322202
H  H48  1  0.08390000  0.56080000  0.88270000  1.0 0.1215322202
H  H49  1  0.42310000  0.15590000  0.99570000  1.0 0.1215322202
H  H50  1  0.57690000  0.84410000  0.99570000  1.0 0.1215322202
H  H51  1  0.65590000  0.07690000  0.49570000  1.0 0.1215322202
H  H52  1  0.34410000  0.92310000  0.49570000  1.0 0.1215322202
H  H53  1  0.07690000  0.34410000  0.50430000  1.0 0.1215322202
H  H54  1  0.92310000  0.65590000  0.50430000  1.0 0.1215322202
H  H55  1  0.84410000  0.42310000  0.00430000  1.0 0.1215322202
H  H56  1  0.15590000  0.57690000  0.00430000  1.0 0.1215322202
H  H57  1  0.26700000  0.76240000  0.96200000  1.0 0.110293707
H  H58  1  0.73300000  0.23760000  0.96200000  1.0 0.110293707
H  H59  1  0.26240000  0.23300000  0.46200000  1.0 0.110293707
H  H60  1  0.73760000  0.76700000  0.46200000  1.0 0.110293707
H  H61  1  0.23300000  0.73760000  0.53800000  1.0 0.110293707
H  H62  1  0.76700000  0.26240000  0.53800000  1.0 0.110293707
H  H63  1  0.23760000  0.26700000  0.03800000  1.0 0.110293707
H  H64  1  0.76240000  0.73300000  0.03800000  1.0 0.110293707
H  H65  1  0.28190000  0.84320000  0.06350000  1.0 0.127010234
H  H66  1  0.71810000  0.15680000  0.06350000  1.0 0.127010234
H  H67  1  0.34320000  0.21810000  0.56350000  1.0 0.127010234
H  H68  1  0.65680000  0.78190000  0.56350000  1.0 0.127010234
H  H69  1  0.21810000  0.65680000  0.43650000  1.0 0.127010234
H  H70  1  0.78190000  0.34320000  0.43650000  1.0 0.127010234
H  H71  1  0.15680000  0.28190000  0.93650000  1.0 0.127010234
H  H72  1  0.84320000  0.71810000  0.93650000  1.0 0.127010234
H  H73  1  0.33333333  0.74440000  0.29640000  1.0 0.127010234
H  H74  1  0.66666667  0.25560000  0.29640000  1.0 0.127010234
H  H75  1  0.24440000  0.16670000  0.79640000  1.0 0.127010234
H  H76  1  0.75560000  0.83330000  0.79640000  1.0 0.127010234
H  H77  1  0.16670000  0.75560000  0.20360000  1.0 0.127010234
H  H78  1  0.83330000  0.24440000  0.20360000  1.0 0.127010234
H  H79  1  0.25560000  0.33333333  0.70360000  1.0 0.127010234
H  H80  1  0.74440000  0.66666667  0.70360000  1.0 0.127010234
H  H81  1  0.41130000  0.48000000  0.65030000  1.0 0.1215322202
H  H82  1  0.58870000  0.52000000  0.65030000  1.0 0.1215322202
H  H83  1  0.98000000  0.08870000  0.15030000  1.0 0.1215322202
H  H84  1  0.02000000  0.91130000  0.15030000  1.0 0.1215322202
H  H85  1  0.08870000  0.02000000  0.84970000  1.0 0.1215322202
H  H86  1  0.91130000  0.98000000  0.84970000  1.0 0.1215322202
H  H87  1  0.52000000  0.41130000  0.34970000  1.0 0.1215322202
H  H88  1  0.48000000  0.58870000  0.34970000  1.0 0.1215322202
H  H89  1  0.48890000  0.54950000  0.57100000  1.0 0.110293707
H  H90  1  0.51110000  0.45050000  0.57100000  1.0 0.110293707
H  H91  1  0.04950000  0.01110000  0.07100000  1.0 0.110293707
H  H92  1  0.95050000  0.98890000  0.07100000  1.0 0.110293707
H  H93  1  0.01110000  0.95050000  0.92900000  1.0 0.110293707
H  H94  1  0.98890000  0.04950000  0.92900000  1.0 0.110293707
H  H95  1  0.45050000  0.48890000  0.42900000  1.0 0.110293707
H  H96  1  0.54950000  0.51110000  0.42900000  1.0 0.110293707
H  H97  1  0.22620000  0.44720000  0.81400000  1.0 0.110293707
H  H98  1  0.77380000  0.55280000  0.81400000  1.0 0.110293707
H  H99  1  0.94720000  0.27380000  0.31400000  1.0 0.110293707
H  H100  1  0.05280000  0.72620000  0.31400000  1.0 0.110293707
H  H101  1  0.27380000  0.05280000  0.68600000  1.0 0.110293707
H  H102  1  0.72620000  0.94720000  0.68600000  1.0 0.110293707
H  H103  1  0.55280000  0.22620000  0.18600000  1.0 0.110293707
H  H104  1  0.44720000  0.77380000  0.18600000  1.0 0.110293707
H  H105  1  0.10950000  0.41620000  0.02960000  1.0 0.127010234
H  H106  1  0.89050000  0.58380000  0.02960000  1.0 0.127010234
H  H107  1  0.91620000  0.39050000  0.52960000  1.0 0.127010234
H  H108  1  0.08380000  0.60950000  0.52960000  1.0 0.127010234
H  H109  1  0.39050000  0.08380000  0.47040000  1.0 0.127010234
H  H110  1  0.60950000  0.91620000  0.47040000  1.0 0.127010234
H  H111  1  0.58380000  0.10950000  0.97040000  1.0 0.127010234
H  H112  1  0.41620000  0.89050000  0.97040000  1.0 0.127010234
H  H113  1  0.17790000  0.43180000  0.15710000  1.0 0.1215322202
H  H114  1  0.82210000  0.56820000  0.15710000  1.0 0.1215322202
H  H115  1  0.93180000  0.32210000  0.65710000  1.0 0.1215322202
H  H116  1  0.06820000  0.67790000  0.65710000  1.0 0.1215322202
H  H117  1  0.32210000  0.06820000  0.34290000  1.0 0.1215322202
H  H118  1  0.67790000  0.93180000  0.34290000  1.0 0.1215322202
H  H119  1  0.56820000  0.17790000  0.84290000  1.0 0.1215322202
H  H120  1  0.43180000  0.82210000  0.84290000  1.0 0.1215322202
C  C1  1  0.00830000  0.32310000  0.85450000  1.0 -0.0729721316
C  C2  1  0.99170000  0.67690000  0.85450000  1.0 -0.0729721316
C  C3  1  0.82310000  0.49170000  0.35450000  1.0 -0.0729721316
C  C4  1  0.17690000  0.50830000  0.35450000  1.0 -0.0729721316
C  C5  1  0.49170000  0.17690000  0.64550000  1.0 -0.0729721316
C  C6  1  0.50830000  0.82310000  0.64550000  1.0 -0.0729721316
C  C7  1  0.67690000  0.00830000  0.14550000  1.0 -0.0729721316
C  C8  1  0.32310000  0.99170000  0.14550000  1.0 -0.0729721316
C  C9  1  0.32620000  0.51454000  0.37080000  1.0 0.1778454448
C  C10  1  0.67380000  0.48546000  0.37080000  1.0 0.1778454448
C  C11  1  0.01454000  0.17380000  0.87080000  1.0 0.1778454448
C  C12  1  0.98546000  0.82620000  0.87080000  1.0 0.1778454448
C  C13  1  0.17380000  0.98546000  0.12920000  1.0 0.1778454448
C  C14  1  0.82620000  0.01454000  0.12920000  1.0 0.1778454448
C  C15  1  0.48546000  0.32620000  0.62920000  1.0 0.1778454448
C  C16  1  0.51454000  0.67380000  0.62920000  1.0 0.1778454448
C  C17  1  0.31820000  0.51710000  0.47890000  1.0 -0.1805228094
C  C18  1  0.68180000  0.48290000  0.47890000  1.0 -0.1805228094
C  C19  1  0.01710000  0.18180000  0.97890000  1.0 -0.1805228094
C  C20  1  0.98290000  0.81820000  0.97890000  1.0 -0.1805228094
C  C21  1  0.18180000  0.98290000  0.02110000  1.0 -0.1805228094
C  C22  1  0.81820000  0.01710000  0.02110000  1.0 -0.1805228094
C  C23  1  0.48290000  0.31820000  0.52110000  1.0 -0.1805228094
C  C24  1  0.51710000  0.68180000  0.52110000  1.0 -0.1805228094
C  C25  1  0.32380000  0.46530000  0.53530000  1.0 -0.0819090192
C  C26  1  0.67620000  0.53470000  0.53530000  1.0 -0.0819090192
C  C27  1  0.96530000  0.17620000  0.03530000  1.0 -0.0819090192
C  C28  1  0.03470000  0.82380000  0.03530000  1.0 -0.0819090192
C  C29  1  0.17620000  0.03470000  0.96470000  1.0 -0.0819090192
C  C30  1  0.82380000  0.96530000  0.96470000  1.0 -0.0819090192
C  C31  1  0.53470000  0.32380000  0.46470000  1.0 -0.0819090192
C  C32  1  0.46530000  0.67620000  0.46470000  1.0 -0.0819090192
C  C33  1  0.34000000  0.41260000  0.48620000  1.0 -0.1923953953
C  C34  1  0.66000000  0.58740000  0.48620000  1.0 -0.1923953953
C  C35  1  0.91260000  0.16000000  0.98620000  1.0 -0.1923953953
C  C36  1  0.08740000  0.84000000  0.98620000  1.0 -0.1923953953
C  C37  1  0.16000000  0.08740000  0.01380000  1.0 -0.1923953953
C  C38  1  0.84000000  0.91260000  0.01380000  1.0 -0.1923953953
C  C39  1  0.58740000  0.34000000  0.51380000  1.0 -0.1923953953
C  C40  1  0.41260000  0.66000000  0.51380000  1.0 -0.1923953953
C  C41  1  0.34750000  0.41450000  0.37660000  1.0 0.1778454448
C  C42  1  0.65250000  0.58550000  0.37660000  1.0 0.1778454448
C  C43  1  0.91450000  0.15250000  0.87660000  1.0 0.1778454448
C  C44  1  0.08550000  0.84750000  0.87660000  1.0 0.1778454448
C  C45  1  0.15250000  0.08550000  0.12340000  1.0 0.1778454448
C  C46  1  0.84750000  0.91450000  0.12340000  1.0 0.1778454448
C  C47  1  0.58550000  0.34750000  0.62340000  1.0 0.1778454448
C  C48  1  0.41450000  0.65250000  0.62340000  1.0 0.1778454448
C  C49  1  0.36320000  0.36629000  0.30620000  1.0 0.2232045944
C  C50  1  0.63680000  0.63371000  0.30620000  1.0 0.2232045944
C  C51  1  0.86629000  0.13680000  0.80620000  1.0 0.2232045944
C  C52  1  0.13371000  0.86320000  0.80620000  1.0 0.2232045944
C  C53  1  0.13680000  0.13371000  0.19380000  1.0 0.2232045944
C  C54  1  0.86320000  0.86629000  0.19380000  1.0 0.2232045944
C  C55  1  0.63371000  0.36320000  0.69380000  1.0 0.2232045944
C  C56  1  0.36629000  0.63680000  0.69380000  1.0 0.2232045944
C  C57  1  0.38831000  0.28997000  0.22950000  1.0 0.2035247109
C  C58  1  0.61169000  0.71003000  0.22950000  1.0 0.2035247109
C  C59  1  0.78997000  0.11169000  0.72950000  1.0 0.2035247109
C  C60  1  0.21003000  0.88831000  0.72950000  1.0 0.2035247109
C  C61  1  0.11169000  0.21003000  0.27050000  1.0 0.2035247109
C  C62  1  0.88831000  0.78997000  0.27050000  1.0 0.2035247109
C  C63  1  0.71003000  0.38831000  0.77050000  1.0 0.2035247109
C  C64  1  0.28997000  0.61169000  0.77050000  1.0 0.2035247109
C  C65  1  0.40611000  0.23056000  0.20070000  1.0 0.110293707
C  C66  1  0.59389000  0.76944000  0.20070000  1.0 0.110293707
C  C67  1  0.73056000  0.09389000  0.70070000  1.0 0.110293707
C  C68  1  0.26944000  0.90611000  0.70070000  1.0 0.110293707
C  C69  1  0.09389000  0.26944000  0.29930000  1.0 0.110293707
C  C70  1  0.90611000  0.73056000  0.29930000  1.0 0.110293707
C  C71  1  0.76944000  0.40611000  0.79930000  1.0 0.110293707
C  C72  1  0.23056000  0.59389000  0.79930000  1.0 0.110293707
C  C73  1  0.41910000  0.18640000  0.27310000  1.0 -0.0026869321
C  C74  1  0.58090000  0.81360000  0.27310000  1.0 -0.0026869321
C  C75  1  0.68640000  0.08090000  0.77310000  1.0 -0.0026869321
C  C76  1  0.31360000  0.91910000  0.77310000  1.0 -0.0026869321
C  C77  1  0.08090000  0.31360000  0.22690000  1.0 -0.0026869321
C  C78  1  0.91910000  0.68640000  0.22690000  1.0 -0.0026869321
C  C79  1  0.81360000  0.41910000  0.72690000  1.0 -0.0026869321
C  C80  1  0.18640000  0.58090000  0.72690000  1.0 -0.0026869321
C  C81  1  0.43190000  0.12190000  0.14070000  1.0 0.0080547885
C  C82  1  0.56810000  0.87810000  0.14070000  1.0 0.0080547885
C  C83  1  0.62190000  0.06810000  0.64070000  1.0 0.0080547885
C  C84  1  0.37810000  0.93190000  0.64070000  1.0 0.0080547885
C  C85  1  0.06810000  0.37810000  0.35930000  1.0 0.0080547885
C  C86  1  0.93190000  0.62190000  0.35930000  1.0 0.0080547885
C  C87  1  0.87810000  0.43190000  0.85930000  1.0 0.0080547885
C  C88  1  0.12190000  0.56810000  0.85930000  1.0 0.0080547885
C  C89  1  0.42110000  0.16520000  0.06710000  1.0 0.0344251006
C  C90  1  0.57890000  0.83480000  0.06710000  1.0 0.0344251006
C  C91  1  0.66520000  0.07890000  0.56710000  1.0 0.0344251006
C  C92  1  0.33480000  0.92110000  0.56710000  1.0 0.0344251006
C  C93  1  0.07890000  0.33480000  0.43290000  1.0 0.0344251006
C  C94  1  0.92110000  0.66520000  0.43290000  1.0 0.0344251006
C  C95  1  0.83480000  0.42110000  0.93290000  1.0 0.0344251006
C  C96  1  0.16520000  0.57890000  0.93290000  1.0 0.0344251006
C  C97  1  0.32200000  0.56212000  0.29340000  1.0 0.2265068333
C  C98  1  0.67800000  0.43788000  0.29340000  1.0 0.2265068333
C  C99  1  0.06212000  0.17800000  0.79340000  1.0 0.2265068333
C  C100  1  0.93788000  0.82200000  0.79340000  1.0 0.2265068333
C  C101  1  0.17800000  0.93788000  0.20660000  1.0 0.2265068333
C  C102  1  0.82200000  0.06212000  0.20660000  1.0 0.2265068333
C  C103  1  0.43788000  0.32200000  0.70660000  1.0 0.2265068333
C  C104  1  0.56212000  0.67800000  0.70660000  1.0 0.2265068333
C  C105  1  0.31406000  0.63885000  0.20580000  1.0 0.2087856572
C  C106  1  0.68594000  0.36115000  0.20580000  1.0 0.2087856572
C  C107  1  0.13885000  0.18594000  0.70580000  1.0 0.2087856572
C  C108  1  0.86115000  0.81406000  0.70580000  1.0 0.2087856572
C  C109  1  0.18594000  0.86115000  0.29420000  1.0 0.2087856572
C  C110  1  0.81406000  0.13885000  0.29420000  1.0 0.2087856572
C  C111  1  0.36115000  0.31406000  0.79420000  1.0 0.2087856572
C  C112  1  0.63885000  0.68594000  0.79420000  1.0 0.2087856572
C  C113  1  0.30727000  0.69862000  0.16850000  1.0 0.110293707
C  C114  1  0.69273000  0.30138000  0.16850000  1.0 0.110293707
C  C115  1  0.19862000  0.19273000  0.66850000  1.0 0.110293707
C  C116  1  0.80138000  0.80727000  0.66850000  1.0 0.110293707
C  C117  1  0.19273000  0.80138000  0.33150000  1.0 0.110293707
C  C118  1  0.80727000  0.19862000  0.33150000  1.0 0.110293707
C  C119  1  0.30138000  0.30727000  0.83150000  1.0 0.110293707
C  C120  1  0.69862000  0.69273000  0.83150000  1.0 0.110293707
C  C121  1  0.28020000  0.75750000  0.03100000  1.0 0.021591361
C  C122  1  0.71980000  0.24250000  0.03100000  1.0 0.021591361
C  C123  1  0.25750000  0.21980000  0.53100000  1.0 0.021591361
C  C124  1  0.74250000  0.78020000  0.53100000  1.0 0.021591361
C  C125  1  0.21980000  0.74250000  0.46900000  1.0 0.021591361
C  C126  1  0.78020000  0.25750000  0.46900000  1.0 0.021591361
C  C127  1  0.24250000  0.28020000  0.96900000  1.0 0.021591361
C  C128  1  0.75750000  0.71980000  0.96900000  1.0 0.021591361
C  C129  1  0.29010000  0.80630000  0.09140000  1.0 0.0080547885
C  C130  1  0.70990000  0.19370000  0.09140000  1.0 0.0080547885
C  C131  1  0.30630000  0.20990000  0.59140000  1.0 0.0080547885
C  C132  1  0.69370000  0.79010000  0.59140000  1.0 0.0080547885
C  C133  1  0.20990000  0.69370000  0.40860000  1.0 0.0080547885
C  C134  1  0.79010000  0.30630000  0.40860000  1.0 0.0080547885
C  C135  1  0.19370000  0.29010000  0.90860000  1.0 0.0080547885
C  C136  1  0.80630000  0.70990000  0.90860000  1.0 0.0080547885
C  C137  1  0.31920000  0.74864000  0.22790000  1.0 -0.014912225
C  C138  1  0.68080000  0.25136000  0.22790000  1.0 -0.014912225
C  C139  1  0.24864000  0.18080000  0.72790000  1.0 -0.014912225
C  C140  1  0.75136000  0.81920000  0.72790000  1.0 -0.014912225
C  C141  1  0.18080000  0.75136000  0.27210000  1.0 -0.014912225
C  C142  1  0.81920000  0.24864000  0.27210000  1.0 -0.014912225
C  C143  1  0.25136000  0.31920000  0.77210000  1.0 -0.014912225
C  C144  1  0.74864000  0.68080000  0.77210000  1.0 -0.014912225
C  C145  1  0.44980000  0.48790000  0.79430000  1.0 0.0922048505
C  C146  1  0.55020000  0.51210000  0.79430000  1.0 0.0922048505
C  C147  1  0.98790000  0.05020000  0.29430000  1.0 0.0922048505
C  C148  1  0.01210000  0.94980000  0.29430000  1.0 0.0922048505
C  C149  1  0.05020000  0.01210000  0.70570000  1.0 0.0922048505
C  C150  1  0.94980000  0.98790000  0.70570000  1.0 0.0922048505
C  C151  1  0.51210000  0.44980000  0.20570000  1.0 0.0922048505
C  C152  1  0.48790000  0.55020000  0.20570000  1.0 0.0922048505
C  C153  1  0.44830000  0.48830000  0.68690000  1.0 -0.1124346812
C  C154  1  0.55170000  0.51170000  0.68690000  1.0 -0.1124346812
C  C155  1  0.98830000  0.05170000  0.18690000  1.0 -0.1124346812
C  C156  1  0.01170000  0.94830000  0.18690000  1.0 -0.1124346812
C  C157  1  0.05170000  0.01170000  0.81310000  1.0 -0.1124346812
C  C158  1  0.94830000  0.98830000  0.81310000  1.0 -0.1124346812
C  C159  1  0.51170000  0.44830000  0.31310000  1.0 -0.1124346812
C  C160  1  0.48830000  0.55170000  0.31310000  1.0 -0.1124346812
C  C161  1  0.49450000  0.52470000  0.63340000  1.0 -0.0390340119
C  C162  1  0.50550000  0.47530000  0.63340000  1.0 -0.0390340119
C  C163  1  0.02470000  0.00550000  0.13340000  1.0 -0.0390340119
C  C164  1  0.97530000  0.99450000  0.13340000  1.0 -0.0390340119
C  C165  1  0.00550000  0.97530000  0.86660000  1.0 -0.0390340119
C  C166  1  0.99450000  0.02470000  0.86660000  1.0 -0.0390340119
C  C167  1  0.47530000  0.49450000  0.36660000  1.0 -0.0390340119
C  C168  1  0.52470000  0.50550000  0.36660000  1.0 -0.0390340119
C  C169  1  0.40003000  0.47610000  0.86390000  1.0 0.2376736312
C  C170  1  0.59997000  0.52390000  0.86390000  1.0 0.2376736312
C  C171  1  0.97610000  0.09997000  0.36390000  1.0 0.2376736312
C  C172  1  0.02390000  0.90003000  0.36390000  1.0 0.2376736312
C  C173  1  0.09997000  0.02390000  0.63610000  1.0 0.2376736312
C  C174  1  0.90003000  0.97610000  0.63610000  1.0 0.2376736312
C  C175  1  0.52390000  0.40003000  0.13610000  1.0 0.2376736312
C  C176  1  0.47610000  0.59997000  0.13610000  1.0 0.2376736312
C  C177  1  0.31965000  0.45948000  0.93530000  1.0 0.2087856572
C  C178  1  0.68035000  0.54052000  0.93530000  1.0 0.2087856572
C  C179  1  0.95948000  0.18035000  0.43530000  1.0 0.2087856572
C  C180  1  0.04052000  0.81965000  0.43530000  1.0 0.2087856572
C  C181  1  0.18035000  0.04052000  0.56470000  1.0 0.2087856572
C  C182  1  0.81965000  0.95948000  0.56470000  1.0 0.2087856572
C  C183  1  0.54052000  0.31965000  0.06470000  1.0 0.2087856572
C  C184  1  0.45948000  0.68035000  0.06470000  1.0 0.2087856572
C  C185  1  0.25885000  0.44803000  0.96070000  1.0 0.0992046337
C  C186  1  0.74115000  0.55197000  0.96070000  1.0 0.0992046337
C  C187  1  0.94803000  0.24115000  0.46070000  1.0 0.0992046337
C  C188  1  0.05197000  0.75885000  0.46070000  1.0 0.0992046337
C  C189  1  0.24115000  0.05197000  0.53930000  1.0 0.0992046337
C  C190  1  0.75885000  0.94803000  0.53930000  1.0 0.0992046337
C  C191  1  0.55197000  0.25885000  0.03930000  1.0 0.0992046337
C  C192  1  0.44803000  0.74115000  0.03930000  1.0 0.0992046337
C  C193  1  0.21590000  0.44201000  0.88450000  1.0 -0.021622013
C  C194  1  0.78410000  0.55799000  0.88450000  1.0 -0.021622013
C  C195  1  0.94201000  0.28410000  0.38450000  1.0 -0.021622013
C  C196  1  0.05799000  0.71590000  0.38450000  1.0 -0.021622013
C  C197  1  0.28410000  0.05799000  0.61550000  1.0 -0.021622013
C  C198  1  0.71590000  0.94201000  0.61550000  1.0 -0.021622013
C  C199  1  0.55799000  0.21590000  0.11550000  1.0 -0.021622013
C  C200  1  0.44201000  0.78410000  0.11550000  1.0 -0.021622013
C  C201  1  0.14780000  0.42500000  0.00960000  1.0 0.0022754835
C  C202  1  0.85220000  0.57500000  0.00960000  1.0 0.0022754835
C  C203  1  0.92500000  0.35220000  0.50960000  1.0 0.0022754835
C  C204  1  0.07500000  0.64780000  0.50960000  1.0 0.0022754835
C  C205  1  0.35220000  0.07500000  0.49040000  1.0 0.0022754835
C  C206  1  0.64780000  0.92500000  0.49040000  1.0 0.0022754835
C  C207  1  0.57500000  0.14780000  0.99040000  1.0 0.0022754835
C  C208  1  0.42500000  0.85220000  0.99040000  1.0 0.0022754835
C  C209  1  0.18930000  0.43340000  0.08670000  1.0 0.0464398417
C  C210  1  0.81070000  0.56660000  0.08670000  1.0 0.0464398417
C  C211  1  0.93340000  0.31070000  0.58670000  1.0 0.0464398417
C  C212  1  0.06660000  0.68930000  0.58670000  1.0 0.0464398417
C  C213  1  0.31070000  0.06660000  0.41330000  1.0 0.0464398417
C  C214  1  0.68930000  0.93340000  0.41330000  1.0 0.0464398417
C  C215  1  0.56660000  0.18930000  0.91330000  1.0 0.0464398417
C  C216  1  0.43340000  0.81070000  0.91330000  1.0 0.0464398417
C  C217  1  0.86590000  0.28310000  0.84310000  1.0 -0.0306226157
C  C218  1  0.13410000  0.71690000  0.84310000  1.0 -0.0306226157
C  C219  1  0.78310000  0.63410000  0.34310000  1.0 -0.0306226157
C  C220  1  0.21690000  0.36590000  0.34310000  1.0 -0.0306226157
C  C221  1  0.63410000  0.21690000  0.65690000  1.0 -0.0306226157
C  C222  1  0.36590000  0.78310000  0.65690000  1.0 -0.0306226157
C  C223  1  0.71690000  0.86590000  0.15690000  1.0 -0.0306226157
C  C224  1  0.28310000  0.13410000  0.15690000  1.0 -0.0306226157
C  C225  1  0.17560000  0.42300000  0.56780000  1.0 -0.0557738563
C  C226  1  0.82440000  0.57700000  0.56780000  1.0 -0.0557738563
C  C227  1  0.92300000  0.32440000  0.06780000  1.0 -0.0557738563
C  C228  1  0.07700000  0.67560000  0.06780000  1.0 -0.0557738563
C  C229  1  0.32440000  0.07700000  0.93220000  1.0 -0.0557738563
C  C230  1  0.67560000  0.92300000  0.93220000  1.0 -0.0557738563
C  C231  1  0.57700000  0.17560000  0.43220000  1.0 -0.0557738563
C  C232  1  0.42300000  0.82440000  0.43220000  1.0 -0.0557738563
N  N1  1  0.33872000  0.46406000  0.32250000  1.0 -0.3003331438
N  N2  1  0.66128000  0.53594000  0.32250000  1.0 -0.3003331438
N  N3  1  0.96406000  0.16128000  0.82250000  1.0 -0.3003331438
N  N4  1  0.03594000  0.83872000  0.82250000  1.0 -0.3003331438
N  N5  1  0.16128000  0.03594000  0.17750000  1.0 -0.3003331438
N  N6  1  0.83872000  0.96406000  0.17750000  1.0 -0.3003331438
N  N7  1  0.53594000  0.33872000  0.67750000  1.0 -0.3003331438
N  N8  1  0.46406000  0.66128000  0.67750000  1.0 -0.3003331438
N  N9  1  0.36195000  0.37873000  0.20160000  1.0 -0.1923953953
N  N10  1  0.63805000  0.62127000  0.20160000  1.0 -0.1923953953
N  N11  1  0.87873000  0.13805000  0.70160000  1.0 -0.1923953953
N  N12  1  0.12127000  0.86195000  0.70160000  1.0 -0.1923953953
N  N13  1  0.13805000  0.12127000  0.29840000  1.0 -0.1923953953
N  N14  1  0.86195000  0.87873000  0.29840000  1.0 -0.1923953953
N  N15  1  0.62127000  0.36195000  0.79840000  1.0 -0.1923953953
N  N16  1  0.37873000  0.63805000  0.79840000  1.0 -0.1923953953
N  N17  1  0.37803000  0.32898000  0.15230000  1.0 -0.1805228094
N  N18  1  0.62197000  0.67102000  0.15230000  1.0 -0.1805228094
N  N19  1  0.82898000  0.12197000  0.65230000  1.0 -0.1805228094
N  N20  1  0.17102000  0.87803000  0.65230000  1.0 -0.1805228094
N  N21  1  0.12197000  0.17102000  0.34770000  1.0 -0.1805228094
N  N22  1  0.87803000  0.82898000  0.34770000  1.0 -0.1805228094
N  N23  1  0.67102000  0.37803000  0.84770000  1.0 -0.1805228094
N  N24  1  0.32898000  0.62197000  0.84770000  1.0 -0.1805228094
N  N25  1  0.37989000  0.31147000  0.32800000  1.0 -0.4272640233
N  N26  1  0.62011000  0.68853000  0.32800000  1.0 -0.4272640233
N  N27  1  0.81147000  0.12011000  0.82800000  1.0 -0.4272640233
N  N28  1  0.18853000  0.87989000  0.82800000  1.0 -0.4272640233
N  N29  1  0.12011000  0.18853000  0.17200000  1.0 -0.4272640233
N  N30  1  0.87989000  0.81147000  0.17200000  1.0 -0.4272640233
N  N31  1  0.68853000  0.37989000  0.67200000  1.0 -0.4272640233
N  N32  1  0.31147000  0.62011000  0.67200000  1.0 -0.4272640233
N  N33  1  0.40777000  0.22006000  0.09570000  1.0 -0.2122043145
N  N34  1  0.59223000  0.77994000  0.09570000  1.0 -0.2122043145
N  N35  1  0.72006000  0.09223000  0.59570000  1.0 -0.2122043145
N  N36  1  0.27994000  0.90777000  0.59570000  1.0 -0.2122043145
N  N37  1  0.09223000  0.27994000  0.40430000  1.0 -0.2122043145
N  N38  1  0.90777000  0.72006000  0.40430000  1.0 -0.2122043145
N  N39  1  0.77994000  0.40777000  0.90430000  1.0 -0.2122043145
N  N40  1  0.22006000  0.59223000  0.90430000  1.0 -0.2122043145
N  N41  1  0.43220000  0.13250000  0.24370000  1.0 -0.1923953953
N  N42  1  0.56780000  0.86750000  0.24370000  1.0 -0.1923953953
N  N43  1  0.63250000  0.06780000  0.74370000  1.0 -0.1923953953
N  N44  1  0.36750000  0.93220000  0.74370000  1.0 -0.1923953953
N  N45  1  0.06780000  0.36750000  0.25630000  1.0 -0.1923953953
N  N46  1  0.93220000  0.63250000  0.25630000  1.0 -0.1923953953
N  N47  1  0.86750000  0.43220000  0.75630000  1.0 -0.1923953953
N  N48  1  0.13250000  0.56780000  0.75630000  1.0 -0.1923953953
N  N49  1  0.32176000  0.54542000  0.19140000  1.0 -0.1923953953
N  N50  1  0.67824000  0.45458000  0.19140000  1.0 -0.1923953953
N  N51  1  0.04542000  0.17824000  0.69140000  1.0 -0.1923953953
N  N52  1  0.95458000  0.82176000  0.69140000  1.0 -0.1923953953
N  N53  1  0.17824000  0.95458000  0.30860000  1.0 -0.1923953953
N  N54  1  0.82176000  0.04542000  0.30860000  1.0 -0.1923953953
N  N55  1  0.45458000  0.32176000  0.80860000  1.0 -0.1923953953
N  N56  1  0.54542000  0.67824000  0.80860000  1.0 -0.1923953953
N  N57  1  0.31782000  0.61999000  0.30750000  1.0 -0.4118424688
N  N58  1  0.68218000  0.38001000  0.30750000  1.0 -0.4118424688
N  N59  1  0.11999000  0.18218000  0.80750000  1.0 -0.4118424688
N  N60  1  0.88001000  0.81782000  0.80750000  1.0 -0.4118424688
N  N61  1  0.18218000  0.88001000  0.19250000  1.0 -0.4118424688
N  N62  1  0.81782000  0.11999000  0.19250000  1.0 -0.4118424688
N  N63  1  0.38001000  0.31782000  0.69250000  1.0 -0.4118424688
N  N64  1  0.61999000  0.68218000  0.69250000  1.0 -0.4118424688
N  N65  1  0.31634000  0.59509000  0.13480000  1.0 -0.1805228094
N  N66  1  0.68366000  0.40491000  0.13480000  1.0 -0.1805228094
N  N67  1  0.09509000  0.18366000  0.63480000  1.0 -0.1805228094
N  N68  1  0.90491000  0.81634000  0.63480000  1.0 -0.1805228094
N  N69  1  0.18366000  0.90491000  0.36520000  1.0 -0.1805228094
N  N70  1  0.81634000  0.09509000  0.36520000  1.0 -0.1805228094
N  N71  1  0.40491000  0.31634000  0.86520000  1.0 -0.1805228094
N  N72  1  0.59509000  0.68366000  0.86520000  1.0 -0.1805228094
N  N73  1  0.28878000  0.70290000  0.06760000  1.0 -0.2188475762
N  N74  1  0.71122000  0.29710000  0.06760000  1.0 -0.2188475762
N  N75  1  0.20290000  0.21122000  0.56760000  1.0 -0.2188475762
N  N76  1  0.79710000  0.78878000  0.56760000  1.0 -0.2188475762
N  N77  1  0.21122000  0.79710000  0.43240000  1.0 -0.2188475762
N  N78  1  0.78878000  0.20290000  0.43240000  1.0 -0.2188475762
N  N79  1  0.29710000  0.28878000  0.93240000  1.0 -0.2188475762
N  N80  1  0.70290000  0.71122000  0.93240000  1.0 -0.2188475762
N  N81  1  0.31107000  0.80235000  0.18940000  1.0 -0.1666964886
N  N82  1  0.68893000  0.19765000  0.18940000  1.0 -0.1666964886
N  N83  1  0.30235000  0.18893000  0.68940000  1.0 -0.1666964886
N  N84  1  0.69765000  0.81107000  0.68940000  1.0 -0.1666964886
N  N85  1  0.18893000  0.69765000  0.31060000  1.0 -0.1666964886
N  N86  1  0.81107000  0.30235000  0.31060000  1.0 -0.1666964886
N  N87  1  0.19765000  0.31107000  0.81060000  1.0 -0.1666964886
N  N88  1  0.80235000  0.68893000  0.81060000  1.0 -0.1666964886
N  N89  1  0.50000000  0.50000000  0.84430000  1.0 -0.2386314605
N  N90  1  0.00000000  0.00000000  0.34430000  1.0 -0.2386314605
N  N91  1  0.00000000  0.00000000  0.65570000  1.0 -0.2386314605
N  N92  1  0.50000000  0.50000000  0.15570000  1.0 -0.2386314605
N  N93  1  0.41112000  0.47610000  0.96720000  1.0 -0.2016760294
N  N94  1  0.58888000  0.52390000  0.96720000  1.0 -0.2016760294
N  N95  1  0.97610000  0.08888000  0.46720000  1.0 -0.2016760294
N  N96  1  0.02390000  0.91112000  0.46720000  1.0 -0.2016760294
N  N97  1  0.08888000  0.02390000  0.53280000  1.0 -0.2016760294
N  N98  1  0.91112000  0.97610000  0.53280000  1.0 -0.2016760294
N  N99  1  0.52390000  0.41112000  0.03280000  1.0 -0.2016760294
N  N100  1  0.47610000  0.58888000  0.03280000  1.0 -0.2016760294
N  N101  1  0.35916000  0.46531000  0.01360000  1.0 -0.1805228094
N  N102  1  0.64084000  0.53469000  0.01360000  1.0 -0.1805228094
N  N103  1  0.96531000  0.14084000  0.51360000  1.0 -0.1805228094
N  N104  1  0.03469000  0.85916000  0.51360000  1.0 -0.1805228094
N  N105  1  0.14084000  0.03469000  0.48640000  1.0 -0.1805228094
N  N106  1  0.85916000  0.96531000  0.48640000  1.0 -0.1805228094
N  N107  1  0.53469000  0.35916000  0.98640000  1.0 -0.1805228094
N  N108  1  0.46531000  0.64084000  0.98640000  1.0 -0.1805228094
N  N109  1  0.34371000  0.46578000  0.83870000  1.0 -0.3003331438
N  N110  1  0.65629000  0.53422000  0.83870000  1.0 -0.3003331438
N  N111  1  0.96578000  0.15629000  0.33870000  1.0 -0.3003331438
N  N112  1  0.03422000  0.84371000  0.33870000  1.0 -0.3003331438
N  N113  1  0.15629000  0.03422000  0.66130000  1.0 -0.3003331438
N  N114  1  0.84371000  0.96578000  0.66130000  1.0 -0.3003331438
N  N115  1  0.53422000  0.34371000  0.16130000  1.0 -0.3003331438
N  N116  1  0.46578000  0.65629000  0.16130000  1.0 -0.3003331438
N  N117  1  0.24554000  0.44368000  0.06380000  1.0 -0.2386314605
N  N118  1  0.75446000  0.55632000  0.06380000  1.0 -0.2386314605
N  N119  1  0.94368000  0.25446000  0.56380000  1.0 -0.2386314605
N  N120  1  0.05632000  0.74554000  0.56380000  1.0 -0.2386314605
N  N121  1  0.25446000  0.05632000  0.43620000  1.0 -0.2386314605
N  N122  1  0.74554000  0.94368000  0.43620000  1.0 -0.2386314605
N  N123  1  0.55632000  0.24554000  0.93620000  1.0 -0.2386314605
N  N124  1  0.44368000  0.75446000  0.93620000  1.0 -0.2386314605
N  N125  1  0.16022000  0.42912000  0.90750000  1.0 -0.1619811837
N  N126  1  0.83978000  0.57088000  0.90750000  1.0 -0.1619811837
N  N127  1  0.92912000  0.33978000  0.40750000  1.0 -0.1619811837
N  N128  1  0.07088000  0.66022000  0.40750000  1.0 -0.1619811837
N  N129  1  0.33978000  0.07088000  0.59250000  1.0 -0.1619811837
N  N130  1  0.66022000  0.92912000  0.59250000  1.0 -0.1619811837
N  N131  1  0.57088000  0.16022000  0.09250000  1.0 -0.1619811837
N  N132  1  0.42912000  0.83978000  0.09250000  1.0 -0.1619811837
N  N133  1  0.82240000  0.27110000  0.80350000  1.0 -0.3613901173
N  N134  1  0.17760000  0.72890000  0.80350000  1.0 -0.3613901173
N  N135  1  0.77110000  0.67760000  0.30350000  1.0 -0.3613901173
N  N136  1  0.22890000  0.32240000  0.30350000  1.0 -0.3613901173
N  N137  1  0.67760000  0.22890000  0.69650000  1.0 -0.3613901173
N  N138  1  0.32240000  0.77110000  0.69650000  1.0 -0.3613901173
N  N139  1  0.72890000  0.82240000  0.19650000  1.0 -0.3613901173
N  N140  1  0.27110000  0.17760000  0.19650000  1.0 -0.3613901173
N  N141  1  0.15690000  0.40870000  0.64330000  1.0 -0.341619862
N  N142  1  0.84310000  0.59130000  0.64330000  1.0 -0.341619862
N  N143  1  0.90870000  0.34310000  0.14330000  1.0 -0.341619862
N  N144  1  0.09130000  0.65690000  0.14330000  1.0 -0.341619862
N  N145  1  0.34310000  0.09130000  0.85670000  1.0 -0.341619862
N  N146  1  0.65690000  0.90870000  0.85670000  1.0 -0.341619862
N  N147  1  0.59130000  0.15690000  0.35670000  1.0 -0.341619862
N  N148  1  0.40870000  0.84310000  0.35670000  1.0 -0.341619862
N  N149  1  0.04990000  0.33900000  0.81900000  1.0 -0.341619862
N  N150  1  0.95010000  0.66100000  0.81900000  1.0 -0.341619862
N  N151  1  0.83900000  0.45010000  0.31900000  1.0 -0.341619862
N  N152  1  0.16100000  0.54990000  0.31900000  1.0 -0.341619862
N  N153  1  0.45010000  0.16100000  0.68100000  1.0 -0.341619862
N  N154  1  0.54990000  0.83900000  0.68100000  1.0 -0.341619862
N  N155  1  0.66100000  0.04990000  0.18100000  1.0 -0.341619862
N  N156  1  0.33900000  0.95010000  0.18100000  1.0 -0.341619862
