# DDEC6 charges by PACMAN v1.1 (https://github.com/mtap-research/PACMAN-charge/)
data_PEVQUG_FSR_pacman
_symmetry_space_group_name_H-M   'P 1'
_cell_length_a   15.78900000
_cell_length_b   16.39100000
_cell_length_c   29.50400000
_cell_angle_alpha   90.00000000
_cell_angle_beta   95.95000000
_cell_angle_gamma   90.00000000
_symmetry_Int_Tables_number   1
_chemical_formula_structural   CuH21C28N2O5F
_chemical_formula_sum   'Cu8 H168 C224 N16 O40 F8'
_cell_volume   7594.42661747
_cell_formula_units_Z   8
loop_
 _symmetry_equiv_pos_site_id
 _symmetry_equiv_pos_as_xyz
  1  'x, y, z'
loop_
 _atom_site_type_symbol
 _atom_site_label
 _atom_site_symmetry_multiplicity
 _atom_site_fract_x
 _atom_site_fract_y
 _atom_site_fract_z
 _atom_site_occupancy
 _atom_site_charge
Cu  Cu1  1  0.78106000  0.76047000  0.64103000  1.0 0.80660339
Cu  Cu2  1  0.67346000  0.67071000  0.58809000  1.0 0.7986939133
Cu  Cu3  1  0.21894000  0.26047000  0.85897000  1.0 0.80660339
Cu  Cu4  1  0.32654000  0.17071000  0.91191000  1.0 0.7986939133
Cu  Cu5  1  0.21894000  0.23953000  0.35897000  1.0 0.80660339
Cu  Cu6  1  0.32654000  0.32929000  0.41191000  1.0 0.7986939133
Cu  Cu7  1  0.78106000  0.73953000  0.14103000  1.0 0.80660339
Cu  Cu8  1  0.67346000  0.82929000  0.08809000  1.0 0.7986939133
H  H1  1  0.11798000  0.37885000  0.82754000  1.0 0.2714243115
H  H2  1  0.08911000  0.30704000  0.80242000  1.0 0.2891124418
H  H3  1  0.66185000  0.75014000  0.76226000  1.0 0.1132663817
H  H4  1  0.48027000  0.63180000  0.82140000  1.0 0.1132663817
H  H5  1  0.50942000  0.58969000  0.68972000  1.0 0.1395315707
H  H6  1  0.11127000  0.29000000  0.72834000  1.0 0.1194989359
H  H7  1  0.25548000  0.44398000  0.80863000  1.0 0.1395315707
H  H8  1  0.01249000  0.20795000  0.58903000  1.0 0.1194989359
H  H9  1  0.95462000  0.17133000  0.51676000  1.0 0.1194989359
H  H10  1  0.03143000  0.19128000  0.45494000  1.0 0.1132663817
H  H11  1  0.22060000  0.29376000  0.53734000  1.0 0.1457904049
H  H12  1  0.59157000  0.72375000  0.82548000  1.0 0.1272456154
H  H13  1  0.95901000  0.94921000  0.63475000  1.0 0.2891124418
H  H14  1  0.91369000  0.89126000  0.60173000  1.0 0.2891124418
H  H15  1  0.93511000  0.56899000  0.70423000  1.0 0.1194989359
H  H16  1  0.97154000  0.32769000  0.69778000  1.0 0.1132663817
H  H17  1  0.79779000  0.43708000  0.60894000  1.0 0.1457904049
H  H18  1  0.79848000  0.93762000  0.54634000  1.0 0.1395315707
H  H19  1  0.92788000  0.09056000  0.63358000  1.0 0.1194989359
H  H20  1  0.55279000  0.90243000  0.43911000  1.0 0.1272456154
H  H21  1  0.42497000  0.89032000  0.39377000  1.0 0.1194989359
H  H22  1  0.33989000  0.00332000  0.37789000  1.0 0.1132663817
H  H23  1  0.50980000  0.14171000  0.45418000  1.0 0.1395315707
H  H24  1  0.00593000  0.45260000  0.73126000  1.0 0.1132663817
H  H25  1  0.52653000  0.75145000  0.49592000  1.0 0.0725596815
H  H26  1  0.58957000  0.69676000  0.47160000  1.0 0.0225971297
H  H27  1  0.49148000  0.69240000  0.45658000  1.0 0.0373304153
H  H28  1  0.40615000  0.67186000  0.45122000  1.0 0.0996274522
H  H29  1  0.33104000  0.65465000  0.48073000  1.0 0.0801632414
H  H30  1  0.36319000  0.58555000  0.45000000  1.0 0.1272456154
H  H31  1  0.36387000  0.52999000  0.53051000  1.0 0.1132663817
H  H32  1  0.42789000  0.57105000  0.56785000  1.0 0.1132663817
H  H33  1  0.45927000  0.50189000  0.53691000  1.0 0.1272456154
H  H34  1  0.58841000  0.76195000  0.48842000  1.0 0.0801632414
H  H35  1  0.63314000  0.68632000  0.46874000  1.0 0.0996274522
H  H36  1  0.53757000  0.70544000  0.45235000  1.0 0.0725596815
H  H37  1  0.36405000  0.71227000  0.48296000  1.0 0.0586837188
H  H38  1  0.43016000  0.67781000  0.45172000  1.0 0.0913201973
H  H39  1  0.44778000  0.76092000  0.47726000  1.0 0.0725596815
H  H40  1  0.35337000  0.66252000  0.54306000  1.0 0.0801632414
H  H41  1  0.42865000  0.67927000  0.58087000  1.0 0.0913201973
H  H42  1  0.41230000  0.59065000  0.56198000  1.0 0.1194989359
H  H43  1  0.88202000  0.87885000  0.67246000  1.0 0.2714243115
H  H44  1  0.91089000  0.80704000  0.69758000  1.0 0.2891124418
H  H45  1  0.33815000  0.25014000  0.73774000  1.0 0.1132663817
H  H46  1  0.51973000  0.13180000  0.67860000  1.0 0.1132663817
H  H47  1  0.49058000  0.08969000  0.81028000  1.0 0.1395315707
H  H48  1  0.88873000  0.79000000  0.77166000  1.0 0.1194989359
H  H49  1  0.74452000  0.94398000  0.69137000  1.0 0.1395315707
H  H50  1  0.98751000  0.70795000  0.91097000  1.0 0.1194989359
H  H51  1  0.04538000  0.67133000  0.98324000  1.0 0.1194989359
H  H52  1  0.96857000  0.69128000  0.04506000  1.0 0.1132663817
H  H53  1  0.77940000  0.79376000  0.96266000  1.0 0.1457904049
H  H54  1  0.40843000  0.22375000  0.67452000  1.0 0.1272456154
H  H55  1  0.04099000  0.44921000  0.86525000  1.0 0.2891124418
H  H56  1  0.08631000  0.39126000  0.89827000  1.0 0.2891124418
H  H57  1  0.06489000  0.06899000  0.79577000  1.0 0.1194989359
H  H58  1  0.02846000  0.82769000  0.80222000  1.0 0.1132663817
H  H59  1  0.20221000  0.93708000  0.89106000  1.0 0.1457904049
H  H60  1  0.20152000  0.43762000  0.95366000  1.0 0.1395315707
H  H61  1  0.07212000  0.59056000  0.86642000  1.0 0.1194989359
H  H62  1  0.44721000  0.40243000  0.06089000  1.0 0.1272456154
H  H63  1  0.57503000  0.39032000  0.10623000  1.0 0.1194989359
H  H64  1  0.66011000  0.50332000  0.12211000  1.0 0.1132663817
H  H65  1  0.49020000  0.64171000  0.04582000  1.0 0.1395315707
H  H66  1  0.99407000  0.95260000  0.76874000  1.0 0.1132663817
H  H67  1  0.47347000  0.25145000  0.00408000  1.0 0.0725596815
H  H68  1  0.41043000  0.19676000  0.02840000  1.0 0.0225971297
H  H69  1  0.50852000  0.19240000  0.04342000  1.0 0.0373304153
H  H70  1  0.59385000  0.17186000  0.04878000  1.0 0.0996274522
H  H71  1  0.66896000  0.15465000  0.01927000  1.0 0.0801632414
H  H72  1  0.63681000  0.08555000  0.05000000  1.0 0.1272456154
H  H73  1  0.63613000  0.02999000  0.96949000  1.0 0.1132663817
H  H74  1  0.57211000  0.07105000  0.93215000  1.0 0.1132663817
H  H75  1  0.54073000  0.00189000  0.96309000  1.0 0.1272456154
H  H76  1  0.41159000  0.26195000  0.01158000  1.0 0.0801632414
H  H77  1  0.36686000  0.18632000  0.03126000  1.0 0.0996274522
H  H78  1  0.46243000  0.20544000  0.04765000  1.0 0.0725596815
H  H79  1  0.63595000  0.21227000  0.01704000  1.0 0.0586837188
H  H80  1  0.56984000  0.17781000  0.04828000  1.0 0.0913201973
H  H81  1  0.55222000  0.26092000  0.02274000  1.0 0.0725596815
H  H82  1  0.64663000  0.16252000  0.95694000  1.0 0.0801632414
H  H83  1  0.57135000  0.17927000  0.91913000  1.0 0.0913201973
H  H84  1  0.58770000  0.09065000  0.93802000  1.0 0.1194989359
H  H85  1  0.88202000  0.62115000  0.17246000  1.0 0.2714243115
H  H86  1  0.91089000  0.69296000  0.19758000  1.0 0.2891124418
H  H87  1  0.33815000  0.24986000  0.23774000  1.0 0.1132663817
H  H88  1  0.51973000  0.36820000  0.17860000  1.0 0.1132663817
H  H89  1  0.49058000  0.41031000  0.31028000  1.0 0.1395315707
H  H90  1  0.88873000  0.71000000  0.27166000  1.0 0.1194989359
H  H91  1  0.74452000  0.55602000  0.19137000  1.0 0.1395315707
H  H92  1  0.98751000  0.79205000  0.41097000  1.0 0.1194989359
H  H93  1  0.04538000  0.82867000  0.48324000  1.0 0.1194989359
H  H94  1  0.96857000  0.80872000  0.54506000  1.0 0.1132663817
H  H95  1  0.77940000  0.70624000  0.46266000  1.0 0.1457904049
H  H96  1  0.40843000  0.27625000  0.17452000  1.0 0.1272456154
H  H97  1  0.04099000  0.05079000  0.36525000  1.0 0.2891124418
H  H98  1  0.08631000  0.10874000  0.39827000  1.0 0.2891124418
H  H99  1  0.06489000  0.43101000  0.29577000  1.0 0.1194989359
H  H100  1  0.02846000  0.67231000  0.30222000  1.0 0.1132663817
H  H101  1  0.20221000  0.56292000  0.39106000  1.0 0.1457904049
H  H102  1  0.20152000  0.06238000  0.45366000  1.0 0.1395315707
H  H103  1  0.07212000  0.90944000  0.36642000  1.0 0.1194989359
H  H104  1  0.44721000  0.09757000  0.56089000  1.0 0.1272456154
H  H105  1  0.57503000  0.10968000  0.60623000  1.0 0.1194989359
H  H106  1  0.66011000  0.99668000  0.62211000  1.0 0.1132663817
H  H107  1  0.49020000  0.85829000  0.54582000  1.0 0.1395315707
H  H108  1  0.99407000  0.54740000  0.26874000  1.0 0.1132663817
H  H109  1  0.47347000  0.24855000  0.50408000  1.0 0.0725596815
H  H110  1  0.41043000  0.30324000  0.52840000  1.0 0.0225971297
H  H111  1  0.50852000  0.30760000  0.54342000  1.0 0.0373304153
H  H112  1  0.59385000  0.32814000  0.54878000  1.0 0.0996274522
H  H113  1  0.66896000  0.34535000  0.51927000  1.0 0.0801632414
H  H114  1  0.63681000  0.41445000  0.55000000  1.0 0.1272456154
H  H115  1  0.63613000  0.47001000  0.46949000  1.0 0.1132663817
H  H116  1  0.57211000  0.42895000  0.43215000  1.0 0.1132663817
H  H117  1  0.54073000  0.49811000  0.46309000  1.0 0.1272456154
H  H118  1  0.41159000  0.23805000  0.51158000  1.0 0.0801632414
H  H119  1  0.36686000  0.31368000  0.53126000  1.0 0.0996274522
H  H120  1  0.46243000  0.29456000  0.54765000  1.0 0.0801632414
H  H121  1  0.63595000  0.28773000  0.51704000  1.0 0.0586837188
H  H122  1  0.56984000  0.32219000  0.54828000  1.0 0.0913201973
H  H123  1  0.55222000  0.23908000  0.52274000  1.0 0.0725596815
H  H124  1  0.64663000  0.33748000  0.45694000  1.0 0.0801632414
H  H125  1  0.57135000  0.32073000  0.41913000  1.0 0.0913201973
H  H126  1  0.58770000  0.40935000  0.43802000  1.0 0.1194989359
H  H127  1  0.11798000  0.12115000  0.32754000  1.0 0.2714243115
H  H128  1  0.08911000  0.19296000  0.30242000  1.0 0.2891124418
H  H129  1  0.66185000  0.74986000  0.26226000  1.0 0.1132663817
H  H130  1  0.48027000  0.86820000  0.32140000  1.0 0.1132663817
H  H131  1  0.50942000  0.91031000  0.18972000  1.0 0.1395315707
H  H132  1  0.11127000  0.21000000  0.22834000  1.0 0.1194989359
H  H133  1  0.25548000  0.05602000  0.30863000  1.0 0.1395315707
H  H134  1  0.01249000  0.29205000  0.08903000  1.0 0.1194989359
H  H135  1  0.95462000  0.32867000  0.01676000  1.0 0.1194989359
H  H136  1  0.03143000  0.30872000  0.95494000  1.0 0.1132663817
H  H137  1  0.22060000  0.20624000  0.03734000  1.0 0.1457904049
H  H138  1  0.59157000  0.77625000  0.32548000  1.0 0.1272456154
H  H139  1  0.95901000  0.55079000  0.13475000  1.0 0.2891124418
H  H140  1  0.91369000  0.60874000  0.10173000  1.0 0.2891124418
H  H141  1  0.93511000  0.93101000  0.20423000  1.0 0.1194989359
H  H142  1  0.97154000  0.17231000  0.19778000  1.0 0.1132663817
H  H143  1  0.79779000  0.06292000  0.10894000  1.0 0.1457904049
H  H144  1  0.79848000  0.56238000  0.04634000  1.0 0.1395315707
H  H145  1  0.92788000  0.40944000  0.13358000  1.0 0.1194989359
H  H146  1  0.55279000  0.59757000  0.93911000  1.0 0.1272456154
H  H147  1  0.42497000  0.60968000  0.89377000  1.0 0.1194989359
H  H148  1  0.33989000  0.49668000  0.87789000  1.0 0.1132663817
H  H149  1  0.50980000  0.35829000  0.95418000  1.0 0.1395315707
H  H150  1  0.00593000  0.04740000  0.23126000  1.0 0.1132663817
H  H151  1  0.52653000  0.74855000  0.99592000  1.0 0.0725596815
H  H152  1  0.58957000  0.80324000  0.97160000  1.0 0.0225971297
H  H153  1  0.49148000  0.80760000  0.95658000  1.0 0.0373304153
H  H154  1  0.40615000  0.82814000  0.95122000  1.0 0.0996274522
H  H155  1  0.33104000  0.84535000  0.98073000  1.0 0.0801632414
H  H156  1  0.36319000  0.91445000  0.95000000  1.0 0.1272456154
H  H157  1  0.36387000  0.97001000  0.03051000  1.0 0.1132663817
H  H158  1  0.42789000  0.92895000  0.06785000  1.0 0.1194989359
H  H159  1  0.45927000  0.99811000  0.03691000  1.0 0.1272456154
H  H160  1  0.58841000  0.73805000  0.98842000  1.0 0.0801632414
H  H161  1  0.63314000  0.81368000  0.96874000  1.0 0.0996274522
H  H162  1  0.53757000  0.79456000  0.95235000  1.0 0.0801632414
H  H163  1  0.36405000  0.78773000  0.98296000  1.0 0.0586837188
H  H164  1  0.43016000  0.82219000  0.95172000  1.0 0.0913201973
H  H165  1  0.44778000  0.73908000  0.97726000  1.0 0.0725596815
H  H166  1  0.35337000  0.83748000  0.04306000  1.0 0.0801632414
H  H167  1  0.42865000  0.82073000  0.08087000  1.0 0.0913201973
H  H168  1  0.41230000  0.90935000  0.06198000  1.0 0.1194989359
C  C1  1  0.63990000  0.68730000  0.67942000  1.0 0.5580211163
C  C2  1  0.59310000  0.67150000  0.71986000  1.0 -0.0097691022
C  C3  1  0.61750000  0.71260000  0.76055000  1.0 -0.1008839107
C  C4  1  0.50850000  0.64160000  0.79579000  1.0 -0.1417935423
C  C5  1  0.48350000  0.60080000  0.75533000  1.0 0.1132663817
C  C6  1  0.52600000  0.61630000  0.71705000  1.0 -0.1486928105
C  C7  1  0.41320000  0.54560000  0.75193000  1.0 -0.0900820687
C  C8  1  0.35550000  0.49780000  0.74871000  1.0 -0.0809849437
C  C9  1  0.28640000  0.44120000  0.74367000  1.0 0.0373304153
C  C10  1  0.26430000  0.40480000  0.70201000  1.0 0.1715899885
C  C11  1  0.19890000  0.34900000  0.69501000  1.0 0.0373304153
C  C12  1  0.15520000  0.32800000  0.73216000  1.0 -0.2389265175
C  C13  1  0.17659000  0.36295000  0.77478000  1.0 0.2588004649
C  C14  1  0.24156000  0.41980000  0.78032000  1.0 -0.2283679608
C  C15  1  0.17520000  0.31420000  0.65130000  1.0 -0.0809849437
C  C16  1  0.15340000  0.28620000  0.61500000  1.0 -0.0809849437
C  C17  1  0.12070000  0.25590000  0.57040000  1.0 0.1395315707
C  C18  1  0.04250000  0.21810000  0.56412000  1.0 -0.1486928105
C  C19  1  0.00840000  0.19500000  0.52095000  1.0 -0.0900820687
C  C20  1  0.05420000  0.20730000  0.48391000  1.0 -0.1099160898
C  C21  1  0.13330000  0.24300000  0.48999000  1.0 -0.0097691022
C  C22  1  0.16750000  0.26860000  0.53329000  1.0 -0.1486928105
C  C23  1  0.18370000  0.25770000  0.45043000  1.0 0.5580211163
C  C24  1  0.57520000  0.69690000  0.79819000  1.0 -0.1008839107
C  C25  1  0.81210000  0.58950000  0.63736000  1.0 0.5669300735
C  C26  1  0.85940000  0.51470000  0.65356000  1.0 -0.0097691022
C  C27  1  0.92180000  0.51900000  0.69043000  1.0 -0.1008839107
C  C28  1  0.94390000  0.37470000  0.68640000  1.0 -0.1486928105
C  C29  1  0.88270000  0.36970000  0.64930000  1.0 0.1395315707
C  C30  1  0.83990000  0.44030000  0.63339000  1.0 -0.1311478206
C  C31  1  0.86220000  0.29190000  0.62871000  1.0 -0.1099160898
C  C32  1  0.84740000  0.22630000  0.61198000  1.0 -0.1008839107
C  C33  1  0.83400000  0.14640000  0.59348000  1.0 0.0373304153
C  C34  1  0.77050000  0.13160000  0.55876000  1.0 0.1194989359
C  C35  1  0.75500000  0.05360000  0.54028000  1.0 0.0488483205
C  C36  1  0.80720000  0.99000000  0.55806000  1.0 -0.2389265175
C  C37  1  0.87201000  0.00339000  0.59299000  1.0 0.2714243115
C  C38  1  0.88460000  0.08130000  0.61026000  1.0 -0.2698498785
C  C39  1  0.68490000  0.04150000  0.50683000  1.0 -0.0809849437
C  C40  1  0.62170000  0.03200000  0.48108000  1.0 -0.0809849437
C  C41  1  0.54420000  0.02370000  0.45159000  1.0 0.1132663817
C  C42  1  0.51850000  0.94810000  0.43308000  1.0 -0.1311478206
C  C43  1  0.44200000  0.94090000  0.40580000  1.0 -0.1198759123
C  C44  1  0.39100000  0.00840000  0.39638000  1.0 -0.1198759123
C  C45  1  0.41600000  0.08400000  0.41449000  1.0 -0.0097691022
C  C46  1  0.49290000  0.09120000  0.44209000  1.0 -0.1486928105
C  C47  1  0.36100000  0.15750000  0.40459000  1.0 0.551669854
C  C48  1  0.96400000  0.44930000  0.70670000  1.0 -0.1099160898
C  C49  1  0.53400000  0.69940000  0.48200000  1.0 -0.1311478206
C  C50  1  0.38020000  0.63160000  0.46890000  1.0 -0.2176249034
C  C51  1  0.42160000  0.54770000  0.53780000  1.0 -0.2283679608
C  C52  1  0.52510000  0.63210000  0.51660000  1.0 0.2360179417
C  C53  1  0.55260000  0.65370000  0.51630000  1.0 0.2204524942
C  C54  1  0.58050000  0.70680000  0.47790000  1.0 -0.1709107428
C  C55  1  0.42350000  0.70750000  0.47920000  1.0 -0.1417935423
C  C56  1  0.41100000  0.64800000  0.55430000  1.0 -0.1577514901
C  C57  1  0.36010000  0.18730000  0.82058000  1.0 0.5580211163
C  C58  1  0.40690000  0.17150000  0.78014000  1.0 -0.0097691022
C  C59  1  0.38250000  0.21260000  0.73945000  1.0 -0.1008839107
C  C60  1  0.49150000  0.14160000  0.70421000  1.0 -0.1417935423
C  C61  1  0.51650000  0.10080000  0.74467000  1.0 0.1132663817
C  C62  1  0.47400000  0.11630000  0.78295000  1.0 -0.1486928105
C  C63  1  0.58680000  0.04560000  0.74807000  1.0 -0.0900820687
C  C64  1  0.64450000  0.99780000  0.75129000  1.0 -0.0809849437
C  C65  1  0.71360000  0.94120000  0.75633000  1.0 0.0373304153
C  C66  1  0.73570000  0.90480000  0.79799000  1.0 0.1715899885
C  C67  1  0.80110000  0.84900000  0.80499000  1.0 0.0373304153
C  C68  1  0.84480000  0.82800000  0.76784000  1.0 -0.2389265175
C  C69  1  0.82341000  0.86295000  0.72522000  1.0 0.2588004649
C  C70  1  0.75844000  0.91980000  0.71968000  1.0 -0.2283679608
C  C71  1  0.82480000  0.81420000  0.84870000  1.0 -0.0809849437
C  C72  1  0.84660000  0.78620000  0.88500000  1.0 -0.0809849437
C  C73  1  0.87930000  0.75590000  0.92960000  1.0 0.1395315707
C  C74  1  0.95750000  0.71810000  0.93588000  1.0 -0.1486928105
C  C75  1  0.99160000  0.69500000  0.97905000  1.0 -0.0900820687
C  C76  1  0.94580000  0.70730000  0.01609000  1.0 -0.1099160898
C  C77  1  0.86670000  0.74300000  0.01001000  1.0 -0.0097691022
C  C78  1  0.83250000  0.76860000  0.96671000  1.0 -0.1486928105
C  C79  1  0.81630000  0.75770000  0.04957000  1.0 0.5580211163
C  C80  1  0.42480000  0.19690000  0.70181000  1.0 -0.1008839107
C  C81  1  0.18790000  0.08950000  0.86264000  1.0 0.5669300735
C  C82  1  0.14060000  0.01470000  0.84644000  1.0 -0.0097691022
C  C83  1  0.07820000  0.01900000  0.80957000  1.0 -0.1008839107
C  C84  1  0.05610000  0.87470000  0.81360000  1.0 -0.1486928105
C  C85  1  0.11730000  0.86970000  0.85070000  1.0 0.1395315707
C  C86  1  0.16010000  0.94030000  0.86661000  1.0 -0.1311478206
C  C87  1  0.13780000  0.79190000  0.87129000  1.0 -0.1099160898
C  C88  1  0.15260000  0.72630000  0.88802000  1.0 -0.1008839107
C  C89  1  0.16600000  0.64640000  0.90652000  1.0 0.0373304153
C  C90  1  0.22950000  0.63160000  0.94124000  1.0 0.1194989359
C  C91  1  0.24500000  0.55360000  0.95972000  1.0 0.0488483205
C  C92  1  0.19280000  0.49000000  0.94194000  1.0 -0.2389265175
C  C93  1  0.12799000  0.50339000  0.90701000  1.0 0.2714243115
C  C94  1  0.11540000  0.58130000  0.88974000  1.0 -0.2698498785
C  C95  1  0.31510000  0.54150000  0.99317000  1.0 -0.0809849437
C  C96  1  0.37830000  0.53200000  0.01892000  1.0 -0.0809849437
C  C97  1  0.45580000  0.52370000  0.04841000  1.0 0.1132663817
C  C98  1  0.48150000  0.44810000  0.06692000  1.0 -0.1311478206
C  C99  1  0.55800000  0.44090000  0.09420000  1.0 -0.1198759123
C  C100  1  0.60900000  0.50840000  0.10362000  1.0 -0.1198759123
C  C101  1  0.58400000  0.58400000  0.08551000  1.0 -0.0097691022
C  C102  1  0.50710000  0.59120000  0.05791000  1.0 -0.1486928105
C  C103  1  0.63900000  0.65750000  0.09541000  1.0 0.551669854
C  C104  1  0.03600000  0.94930000  0.79330000  1.0 -0.1099160898
C  C105  1  0.46600000  0.19940000  0.01800000  1.0 -0.1311478206
C  C106  1  0.61980000  0.13160000  0.03110000  1.0 -0.2176249034
C  C107  1  0.57840000  0.04770000  0.96220000  1.0 -0.2283679608
C  C108  1  0.47490000  0.13210000  0.98340000  1.0 0.2360179417
C  C109  1  0.44740000  0.15370000  0.98370000  1.0 0.2204524942
C  C110  1  0.41950000  0.20680000  0.02210000  1.0 -0.1709107428
C  C111  1  0.57650000  0.20750000  0.02080000  1.0 -0.1417935423
C  C112  1  0.58900000  0.14800000  0.94570000  1.0 -0.1577514901
C  C113  1  0.36010000  0.31270000  0.32058000  1.0 0.5580211163
C  C114  1  0.40690000  0.32850000  0.28014000  1.0 -0.0097691022
C  C115  1  0.38250000  0.28740000  0.23945000  1.0 -0.1008839107
C  C116  1  0.49150000  0.35840000  0.20421000  1.0 -0.1417935423
C  C117  1  0.51650000  0.39920000  0.24467000  1.0 0.1132663817
C  C118  1  0.47400000  0.38370000  0.28295000  1.0 -0.1486928105
C  C119  1  0.58680000  0.45440000  0.24807000  1.0 -0.0900820687
C  C120  1  0.64450000  0.50220000  0.25129000  1.0 -0.0809849437
C  C121  1  0.71360000  0.55880000  0.25633000  1.0 0.0373304153
C  C122  1  0.73570000  0.59520000  0.29799000  1.0 0.1715899885
C  C123  1  0.80110000  0.65100000  0.30499000  1.0 0.0373304153
C  C124  1  0.84480000  0.67200000  0.26784000  1.0 -0.2389265175
C  C125  1  0.82341000  0.63705000  0.22522000  1.0 0.2588004649
C  C126  1  0.75844000  0.58020000  0.21968000  1.0 -0.2283679608
C  C127  1  0.82480000  0.68580000  0.34870000  1.0 -0.0809849437
C  C128  1  0.84660000  0.71380000  0.38500000  1.0 -0.0809849437
C  C129  1  0.87930000  0.74410000  0.42960000  1.0 0.1395315707
C  C130  1  0.95750000  0.78190000  0.43588000  1.0 -0.1486928105
C  C131  1  0.99160000  0.80500000  0.47905000  1.0 -0.0900820687
C  C132  1  0.94580000  0.79270000  0.51609000  1.0 -0.1099160898
C  C133  1  0.86670000  0.75700000  0.51001000  1.0 -0.0097691022
C  C134  1  0.83250000  0.73140000  0.46671000  1.0 -0.1486928105
C  C135  1  0.81630000  0.74230000  0.54957000  1.0 0.5580211163
C  C136  1  0.42480000  0.30310000  0.20181000  1.0 -0.1008839107
C  C137  1  0.18790000  0.41050000  0.36264000  1.0 0.5669300735
C  C138  1  0.14060000  0.48530000  0.34644000  1.0 -0.0097691022
C  C139  1  0.07820000  0.48100000  0.30957000  1.0 -0.1008839107
C  C140  1  0.05610000  0.62530000  0.31360000  1.0 -0.1486928105
C  C141  1  0.11730000  0.63030000  0.35070000  1.0 0.1395315707
C  C142  1  0.16010000  0.55970000  0.36661000  1.0 -0.1311478206
C  C143  1  0.13780000  0.70810000  0.37129000  1.0 -0.1099160898
C  C144  1  0.15260000  0.77370000  0.38802000  1.0 -0.1008839107
C  C145  1  0.16600000  0.85360000  0.40652000  1.0 0.0373304153
C  C146  1  0.22950000  0.86840000  0.44124000  1.0 0.1194989359
C  C147  1  0.24500000  0.94640000  0.45972000  1.0 0.0488483205
C  C148  1  0.19280000  0.01000000  0.44194000  1.0 -0.2389265175
C  C149  1  0.12799000  0.99661000  0.40701000  1.0 0.2714243115
C  C150  1  0.11540000  0.91870000  0.38974000  1.0 -0.2698498785
C  C151  1  0.31510000  0.95850000  0.49317000  1.0 -0.0809849437
C  C152  1  0.37830000  0.96800000  0.51892000  1.0 -0.0809849437
C  C153  1  0.45580000  0.97630000  0.54841000  1.0 0.1132663817
C  C154  1  0.48150000  0.05190000  0.56692000  1.0 -0.1311478206
C  C155  1  0.55800000  0.05910000  0.59420000  1.0 -0.1198759123
C  C156  1  0.60900000  0.99160000  0.60362000  1.0 -0.1198759123
C  C157  1  0.58400000  0.91600000  0.58551000  1.0 -0.0097691022
C  C158  1  0.50710000  0.90880000  0.55791000  1.0 -0.1486928105
C  C159  1  0.63900000  0.84250000  0.59541000  1.0 0.551669854
C  C160  1  0.03600000  0.55070000  0.29330000  1.0 -0.1099160898
C  C161  1  0.46600000  0.30060000  0.51800000  1.0 -0.1311478206
C  C162  1  0.61980000  0.36840000  0.53110000  1.0 -0.2176249034
C  C163  1  0.57840000  0.45230000  0.46220000  1.0 -0.2283679608
C  C164  1  0.47490000  0.36790000  0.48340000  1.0 0.2360179417
C  C165  1  0.44740000  0.34630000  0.48370000  1.0 0.2204524942
C  C166  1  0.41950000  0.29320000  0.52210000  1.0 -0.1709107428
C  C167  1  0.57650000  0.29250000  0.52080000  1.0 -0.1417935423
C  C168  1  0.58900000  0.35200000  0.44570000  1.0 -0.1577514901
C  C169  1  0.63990000  0.81270000  0.17942000  1.0 0.5580211163
C  C170  1  0.59310000  0.82850000  0.21986000  1.0 -0.0097691022
C  C171  1  0.61750000  0.78740000  0.26055000  1.0 -0.1008839107
C  C172  1  0.50850000  0.85840000  0.29579000  1.0 -0.1417935423
C  C173  1  0.48350000  0.89920000  0.25533000  1.0 0.1132663817
C  C174  1  0.52600000  0.88370000  0.21705000  1.0 -0.1486928105
C  C175  1  0.41320000  0.95440000  0.25193000  1.0 -0.0900820687
C  C176  1  0.35550000  0.00220000  0.24871000  1.0 -0.0809849437
C  C177  1  0.28640000  0.05880000  0.24367000  1.0 0.0373304153
C  C178  1  0.26430000  0.09520000  0.20201000  1.0 0.1715899885
C  C179  1  0.19890000  0.15100000  0.19501000  1.0 0.0373304153
C  C180  1  0.15520000  0.17200000  0.23216000  1.0 -0.2389265175
C  C181  1  0.17659000  0.13705000  0.27478000  1.0 0.2588004649
C  C182  1  0.24156000  0.08020000  0.28032000  1.0 -0.2283679608
C  C183  1  0.17520000  0.18580000  0.15130000  1.0 -0.0809849437
C  C184  1  0.15340000  0.21380000  0.11500000  1.0 -0.0809849437
C  C185  1  0.12070000  0.24410000  0.07040000  1.0 0.1395315707
C  C186  1  0.04250000  0.28190000  0.06412000  1.0 -0.1486928105
C  C187  1  0.00840000  0.30500000  0.02095000  1.0 -0.0900820687
C  C188  1  0.05420000  0.29270000  0.98391000  1.0 -0.1099160898
C  C189  1  0.13330000  0.25700000  0.98999000  1.0 -0.0097691022
C  C190  1  0.16750000  0.23140000  0.03329000  1.0 -0.1486928105
C  C191  1  0.18370000  0.24230000  0.95043000  1.0 0.5580211163
C  C192  1  0.57520000  0.80310000  0.29819000  1.0 -0.1008839107
C  C193  1  0.81210000  0.91050000  0.13736000  1.0 0.5669300735
C  C194  1  0.85940000  0.98530000  0.15356000  1.0 -0.0097691022
C  C195  1  0.92180000  0.98100000  0.19043000  1.0 -0.1008839107
C  C196  1  0.94390000  0.12530000  0.18640000  1.0 -0.1486928105
C  C197  1  0.88270000  0.13030000  0.14930000  1.0 0.1395315707
C  C198  1  0.83990000  0.05970000  0.13339000  1.0 -0.1311478206
C  C199  1  0.86220000  0.20810000  0.12871000  1.0 -0.1099160898
C  C200  1  0.84740000  0.27370000  0.11198000  1.0 -0.1008839107
C  C201  1  0.83400000  0.35360000  0.09348000  1.0 0.0373304153
C  C202  1  0.77050000  0.36840000  0.05876000  1.0 0.1194989359
C  C203  1  0.75500000  0.44640000  0.04028000  1.0 0.0488483205
C  C204  1  0.80720000  0.51000000  0.05806000  1.0 -0.2389265175
C  C205  1  0.87201000  0.49661000  0.09299000  1.0 0.2714243115
C  C206  1  0.88460000  0.41870000  0.11026000  1.0 -0.2698498785
C  C207  1  0.68490000  0.45850000  0.00683000  1.0 -0.0809849437
C  C208  1  0.62170000  0.46800000  0.98108000  1.0 -0.0809849437
C  C209  1  0.54420000  0.47630000  0.95159000  1.0 0.1132663817
C  C210  1  0.51850000  0.55190000  0.93308000  1.0 -0.1311478206
C  C211  1  0.44200000  0.55910000  0.90580000  1.0 -0.1198759123
C  C212  1  0.39100000  0.49160000  0.89638000  1.0 -0.1198759123
C  C213  1  0.41600000  0.41600000  0.91449000  1.0 -0.0097691022
C  C214  1  0.49290000  0.40880000  0.94209000  1.0 -0.1486928105
C  C215  1  0.36100000  0.34250000  0.90459000  1.0 0.551669854
C  C216  1  0.96400000  0.05070000  0.20670000  1.0 -0.1099160898
C  C217  1  0.53400000  0.80060000  0.98200000  1.0 -0.1311478206
C  C218  1  0.38020000  0.86840000  0.96890000  1.0 -0.2176249034
C  C219  1  0.42160000  0.95230000  0.03780000  1.0 -0.2283679608
C  C220  1  0.52510000  0.86790000  0.01660000  1.0 0.2360179417
C  C221  1  0.55260000  0.84630000  0.01630000  1.0 0.2204524942
C  C222  1  0.58050000  0.79320000  0.97790000  1.0 -0.1709107428
C  C223  1  0.42350000  0.79250000  0.97920000  1.0 -0.1417935423
C  C224  1  0.41100000  0.85200000  0.05430000  1.0 -0.1577514901
N  N1  1  0.13505000  0.33580000  0.81251000  1.0 -0.5951884806
N  N2  1  0.92109000  0.93995000  0.61225000  1.0 -0.5914611488
N  N3  1  0.44130000  0.60510000  0.50680000  1.0 0.0488483205
N  N4  1  0.46770000  0.66330000  0.51880000  1.0 0.0801632414
N  N5  1  0.86495000  0.83580000  0.68749000  1.0 -0.5951884806
N  N6  1  0.07891000  0.43995000  0.88775000  1.0 -0.5914611488
N  N7  1  0.55870000  0.10510000  0.99320000  1.0 0.0488483205
N  N8  1  0.53230000  0.16330000  0.98120000  1.0 0.0801632414
N  N9  1  0.86495000  0.66420000  0.18749000  1.0 -0.5951884806
N  N10  1  0.07891000  0.06005000  0.38775000  1.0 -0.5914611488
N  N11  1  0.55870000  0.39490000  0.49320000  1.0 0.0488483205
N  N12  1  0.53230000  0.33670000  0.48120000  1.0 0.0801632414
N  N13  1  0.13505000  0.16420000  0.31251000  1.0 -0.5951884806
N  N14  1  0.92109000  0.56005000  0.11225000  1.0 -0.5914611488
N  N15  1  0.44130000  0.89490000  0.00680000  1.0 0.0488483205
N  N16  1  0.46770000  0.83670000  0.01880000  1.0 0.0801632414
O  O1  1  0.70041000  0.73750000  0.68518000  1.0 -0.5119181692
O  O2  1  0.61624000  0.64965000  0.64312000  1.0 -0.5119181692
O  O3  1  0.25211000  0.29577000  0.45818000  1.0 -0.5037694692
O  O4  1  0.15358000  0.22955000  0.41223000  1.0 -0.5119181692
O  O5  1  0.83542000  0.65566000  0.65638000  1.0 -0.5360131085
O  O6  1  0.75223000  0.58047000  0.60619000  1.0 -0.5119181692
O  O7  1  0.38949000  0.22536000  0.42000000  1.0 -0.5510888516
O  O8  1  0.29001000  0.14706000  0.38177000  1.0 -0.5037694692
O  O9  1  0.58100000  0.60490000  0.54470000  1.0 -0.3681411564
O  O10  1  0.59890000  0.60310000  0.53780000  1.0 -0.3900852918
O  O11  1  0.29959000  0.23750000  0.81482000  1.0 -0.5119181692
O  O12  1  0.38376000  0.14965000  0.85688000  1.0 -0.5119181692
O  O13  1  0.74789000  0.79577000  0.04182000  1.0 -0.5037694692
O  O14  1  0.84642000  0.72955000  0.08777000  1.0 -0.5119181692
O  O15  1  0.16458000  0.15566000  0.84362000  1.0 -0.5360131085
O  O16  1  0.24777000  0.08047000  0.89381000  1.0 -0.5119181692
O  O17  1  0.61051000  0.72536000  0.08000000  1.0 -0.5510888516
O  O18  1  0.70999000  0.64706000  0.11823000  1.0 -0.5037694692
O  O19  1  0.41900000  0.10490000  0.95530000  1.0 -0.3681411564
O  O20  1  0.40110000  0.10310000  0.96220000  1.0 -0.3900852918
O  O21  1  0.29959000  0.26250000  0.31482000  1.0 -0.5119181692
O  O22  1  0.38376000  0.35035000  0.35688000  1.0 -0.5119181692
O  O23  1  0.74789000  0.70423000  0.54182000  1.0 -0.5037694692
O  O24  1  0.84642000  0.77045000  0.58777000  1.0 -0.5119181692
O  O25  1  0.16458000  0.34434000  0.34362000  1.0 -0.5360131085
O  O26  1  0.24777000  0.41953000  0.39381000  1.0 -0.5119181692
O  O27  1  0.61051000  0.77464000  0.58000000  1.0 -0.5510888516
O  O28  1  0.70999000  0.85294000  0.61823000  1.0 -0.5037694692
O  O29  1  0.41900000  0.39510000  0.45530000  1.0 -0.3681411564
O  O30  1  0.40110000  0.39690000  0.46220000  1.0 -0.3900852918
O  O31  1  0.70041000  0.76250000  0.18518000  1.0 -0.5119181692
O  O32  1  0.61624000  0.85035000  0.14312000  1.0 -0.5119181692
O  O33  1  0.25211000  0.20423000  0.95818000  1.0 -0.5037694692
O  O34  1  0.15358000  0.27045000  0.91223000  1.0 -0.5119181692
O  O35  1  0.83542000  0.84434000  0.15638000  1.0 -0.5360131085
O  O36  1  0.75223000  0.91953000  0.10619000  1.0 -0.5119181692
O  O37  1  0.38949000  0.27464000  0.92000000  1.0 -0.5510888516
O  O38  1  0.29001000  0.35294000  0.88177000  1.0 -0.5037694692
O  O39  1  0.58100000  0.89510000  0.04470000  1.0 -0.3681411564
O  O40  1  0.59890000  0.89690000  0.03780000  1.0 -0.3900852918
F  F1  1  0.30667000  0.42522000  0.66636000  1.0 -0.1417935423
F  F2  1  0.71997000  0.19326000  0.54233000  1.0 -0.1198759123
F  F3  1  0.69333000  0.92522000  0.83364000  1.0 -0.1417935423
F  F4  1  0.28003000  0.69326000  0.95767000  1.0 -0.1198759123
F  F5  1  0.69333000  0.57478000  0.33364000  1.0 -0.1417935423
F  F6  1  0.28003000  0.80674000  0.45767000  1.0 -0.1198759123
F  F7  1  0.30667000  0.07478000  0.16636000  1.0 -0.1417935423
F  F8  1  0.71997000  0.30674000  0.04233000  1.0 -0.1198759123
