# DDEC6 charges by PACMAN v1.1 (https://github.com/mtap-research/PACMAN-charge/)
data_PEWFII01_ASR_pacman
_symmetry_space_group_name_H-M   'P 1'
_cell_length_a   7.11620000
_cell_length_b   7.23530000
_cell_length_c   9.21390000
_cell_angle_alpha   95.36100000
_cell_angle_beta   91.21900000
_cell_angle_gamma   114.92900000
_symmetry_Int_Tables_number   1
_chemical_formula_structural   UCuH2(CO)10
_chemical_formula_sum   'U1 Cu1 H2 C10 O10'
_cell_volume   427.35455854
_cell_formula_units_Z   1
loop_
 _symmetry_equiv_pos_site_id
 _symmetry_equiv_pos_as_xyz
  1  'x, y, z'
loop_
 _atom_site_type_symbol
 _atom_site_label
 _atom_site_symmetry_multiplicity
 _atom_site_fract_x
 _atom_site_fract_y
 _atom_site_fract_z
 _atom_site_occupancy
 _atom_site_charge
U  U1  1  0.50000000  0.00000000  0.50000000  1.0 2.4249228529
Cu  Cu1  1  0.00000000  0.50000000  0.50000000  1.0 0.9722366026
H  H1  1  0.28850000  0.93160000  0.97390000  1.0 0.1367799482
H  H2  1  0.71150000  0.06840000  0.02610000  1.0 0.1367799482
C  C1  1  0.27110000  0.04010000  0.25080000  1.0 0.5607469371
C  C2  1  0.72890000  0.95990000  0.74920000  1.0 0.5607469371
C  C3  1  0.13230000  0.02410000  0.12220000  1.0 -0.0396561939
C  C4  1  0.86770000  0.97590000  0.87780000  1.0 -0.0396561939
C  C5  1  0.17240000  0.95850000  0.98450000  1.0 -0.1013744631
C  C6  1  0.82760000  0.04150000  0.01550000  1.0 -0.1013744631
C  C7  1  0.95840000  0.06760000  0.13750000  1.0 -0.0245384433
C  C8  1  0.04160000  0.93240000  0.86250000  1.0 -0.0264053279
C  C9  1  0.90630000  0.14490000  0.28250000  1.0 0.6403774313
C  C10  1  0.09370000  0.85510000  0.71750000  1.0 0.6403774313
O  O1  1  0.35860000  0.72950000  0.46370000  1.0 -0.7206530878
O  O2  1  0.64140000  0.27050000  0.53630000  1.0 -0.7206530878
O  O3  1  0.77770000  0.01530000  0.35410000  1.0 -0.5771003374
O  O4  1  0.22230000  0.98470000  0.64590000  1.0 -0.5771003374
O  O5  1  0.23960000  0.09950000  0.37800000  1.0 -0.520018951
O  O6  1  0.76040000  0.90050000  0.62200000  1.0 -0.520018951
O  O7  1  0.41570000  0.98320000  0.23430000  1.0 -0.5321901747
O  O8  1  0.58430000  0.01680000  0.76570000  1.0 -0.5321901747
O  O9  1  0.98950000  0.33670000  0.31370000  1.0 -0.520018951
O  O10  1  0.01050000  0.66330000  0.68630000  1.0 -0.520018951
