# DDEC6 charges by PACMAN v1.1 (https://github.com/mtap-research/PACMAN-charge/)
data_PEWFII_FSR_pacman
_symmetry_space_group_name_H-M   'P 1'
_cell_length_a   7.10700000
_cell_length_b   7.22340000
_cell_length_c   9.20500000
_cell_angle_alpha   95.37700000
_cell_angle_beta   91.25600000
_cell_angle_gamma   114.89300000
_symmetry_Int_Tables_number   1
_chemical_formula_structural   UCuH2(C5O6)2
_chemical_formula_sum   'U1 Cu1 H2 C10 O12'
_cell_volume   425.77938671
_cell_formula_units_Z   1
loop_
 _symmetry_equiv_pos_site_id
 _symmetry_equiv_pos_as_xyz
  1  'x, y, z'
loop_
 _atom_site_type_symbol
 _atom_site_label
 _atom_site_symmetry_multiplicity
 _atom_site_fract_x
 _atom_site_fract_y
 _atom_site_fract_z
 _atom_site_occupancy
 _atom_site_charge
U  U1  1  0.50000000  0.50000000  0.50000000  1.0 2.3968628096
Cu  Cu1  1  0.00000000  0.00000000  0.50000000  1.0 1.1667221236
H  H1  1  0.71140000  0.56860000  0.02680000  1.0 0.1427803758
H  H2  1  0.28860000  0.43140000  0.97320000  1.0 0.1427803758
C  C1  1  0.95860000  0.56720000  0.13761000  1.0 -0.0207454459
C  C2  1  0.04140000  0.43280000  0.86239000  1.0 -0.0207454459
C  C3  1  0.90620000  0.64490000  0.28184000  1.0 0.6446008134
C  C4  1  0.09380000  0.35510000  0.71816000  1.0 0.6446008134
C  C5  1  0.13220000  0.52470000  0.12236000  1.0 -0.0325434161
C  C6  1  0.86780000  0.47530000  0.87764000  1.0 -0.0325434161
C  C7  1  0.82750000  0.54150000  0.01603000  1.0 -0.0941767198
C  C8  1  0.17250000  0.45850000  0.98397000  1.0 -0.0941767198
C  C9  1  0.27010000  0.53910000  0.25138000  1.0 0.5558911609
C  C10  1  0.72990000  0.46090000  0.74862000  1.0 0.5558911609
O  O1  1  0.77790000  0.51482000  0.35368000  1.0 -0.5417762053
O  O2  1  0.22210000  0.48518000  0.64632000  1.0 -0.5417762053
O  O3  1  0.23970000  0.59930000  0.37788000  1.0 -0.4608491612
O  O4  1  0.76030000  0.40070000  0.62212000  1.0 -0.4608491612
O  O5  1  0.98980000  0.83687000  0.31375000  1.0 -0.5124399019
O  O6  1  0.01020000  0.16313000  0.68625000  1.0 -0.5124399019
O  O7  1  0.41570000  0.48270000  0.23425000  1.0 -0.5417762053
O  O8  1  0.58430000  0.51730000  0.76575000  1.0 -0.5417762053
O  O9  1  0.35860000  0.22940000  0.46335000  1.0 -0.6867477251
O  O10  1  0.64140000  0.77060000  0.53665000  1.0 -0.6845820499
O  O11  1  0.90350000  0.16380000  0.39101000  1.0 -0.2346593541
O  O12  1  0.09650000  0.83620000  0.60899000  1.0 -0.2355263931
