# DDEC6 charges by PACMAN v1.1 (https://github.com/mtap-research/PACMAN-charge/)
data_PEWLUA_ASR_pacman
_symmetry_space_group_name_H-M   'P 1'
_cell_length_a   31.41300000
_cell_length_b   31.41300000
_cell_length_c   31.41300000
_cell_angle_alpha   121.02300000
_cell_angle_beta   121.02300000
_cell_angle_gamma   88.23680000
_symmetry_Int_Tables_number   1
_chemical_formula_structural   CuH7C16(N3O2)2
_chemical_formula_sum   'Cu24 H168 C384 N144 O96'
_cell_volume   21568.66682361
_cell_formula_units_Z   24
loop_
 _symmetry_equiv_pos_site_id
 _symmetry_equiv_pos_as_xyz
  1  'x, y, z'
loop_
 _atom_site_type_symbol
 _atom_site_label
 _atom_site_symmetry_multiplicity
 _atom_site_fract_x
 _atom_site_fract_y
 _atom_site_fract_z
 _atom_site_occupancy
 _atom_site_charge
Cu  Cu1  1  0.13215000  0.46892000  0.93891000  1.0 0.8635883401
Cu  Cu2  1  0.46892000  0.53001000  0.33677000  1.0 0.8635883401
Cu  Cu3  1  0.53001000  0.19324000  0.06109000  1.0 0.8635883401
Cu  Cu4  1  0.19324000  0.13215000  0.66323000  1.0 0.8635883401
Cu  Cu5  1  0.86785000  0.53108000  0.06109000  1.0 0.8635883401
Cu  Cu6  1  0.53108000  0.46999000  0.66323000  1.0 0.8635883401
Cu  Cu7  1  0.46999000  0.80676000  0.93891000  1.0 0.8635883401
Cu  Cu8  1  0.80676000  0.86785000  0.33677000  1.0 0.871489686
Cu  Cu9  1  0.22424000  0.47392000  0.95424000  1.0 0.871489686
Cu  Cu10  1  0.47392000  0.51968000  0.24968000  1.0 0.871489686
Cu  Cu11  1  0.51968000  0.27000000  0.04576000  1.0 0.871489686
Cu  Cu12  1  0.27000000  0.22424000  0.75032000  1.0 0.871489686
Cu  Cu13  1  0.77576000  0.52608000  0.04576000  1.0 0.871489686
Cu  Cu14  1  0.52608000  0.48032000  0.75032000  1.0 0.871489686
Cu  Cu15  1  0.48032000  0.73000000  0.95424000  1.0 0.871489686
Cu  Cu16  1  0.73000000  0.77576000  0.24968000  1.0 0.871489686
Cu  Cu17  1  0.54306000  0.25058000  0.79364000  1.0 0.871489686
Cu  Cu18  1  0.25058000  0.45694000  0.70752000  1.0 0.871489686
Cu  Cu19  1  0.45694000  0.74942000  0.20636000  1.0 0.871489686
Cu  Cu20  1  0.74942000  0.54306000  0.29248000  1.0 0.871489686
Cu  Cu21  1  0.55754000  0.16541000  0.72295000  1.0 0.8547573831
Cu  Cu22  1  0.16541000  0.44246000  0.60787000  1.0 0.8547573831
Cu  Cu23  1  0.44246000  0.83459000  0.27705000  1.0 0.8635883401
Cu  Cu24  1  0.83459000  0.55754000  0.39213000  1.0 0.8547573831
H  H1  1  0.06070000  0.29860000  0.81850000  1.0 0.1089090287
H  H2  1  0.29860000  0.48010000  0.23790000  1.0 0.1089090287
H  H3  1  0.48010000  0.24220000  0.18150000  1.0 0.1089090287
H  H4  1  0.24220000  0.06070000  0.76210000  1.0 0.1089090287
H  H5  1  0.93930000  0.70140000  0.18150000  1.0 0.1089090287
H  H6  1  0.70140000  0.51990000  0.76210000  1.0 0.1089090287
H  H7  1  0.51990000  0.75780000  0.81850000  1.0 0.1089090287
H  H8  1  0.75780000  0.93930000  0.23790000  1.0 0.1089090287
H  H9  1  0.08700000  0.17080000  0.71440000  1.0 0.1216397748
H  H10  1  0.17080000  0.45640000  0.08380000  1.0 0.1216397748
H  H11  1  0.45640000  0.37260000  0.28560000  1.0 0.1216397748
H  H12  1  0.37260000  0.08700000  0.91620000  1.0 0.1216397748
H  H13  1  0.91300000  0.82920000  0.28560000  1.0 0.1216397748
H  H14  1  0.82920000  0.54360000  0.91620000  1.0 0.1268880139
H  H15  1  0.54360000  0.62740000  0.71440000  1.0 0.1216397748
H  H16  1  0.62740000  0.91300000  0.08380000  1.0 0.1216397748
H  H17  1  0.19470000  0.31400000  0.83070000  1.0 0.1404907206
H  H18  1  0.31400000  0.48330000  0.11930000  1.0 0.1404907206
H  H19  1  0.48330000  0.36400000  0.16930000  1.0 0.1404907206
H  H20  1  0.36400000  0.19470000  0.88070000  1.0 0.1404907206
H  H21  1  0.80530000  0.68600000  0.16930000  1.0 0.1404907206
H  H22  1  0.68600000  0.51670000  0.88070000  1.0 0.1404907206
H  H23  1  0.51670000  0.63600000  0.83070000  1.0 0.1404907206
H  H24  1  0.63600000  0.80530000  0.11930000  1.0 0.1404907206
H  H25  1  0.92960000  0.21340000  0.80560000  1.0 0.0630823897
H  H26  1  0.21340000  0.40780000  0.28380000  1.0 0.0630823897
H  H27  1  0.40780000  0.12400000  0.19440000  1.0 0.0630823897
H  H28  1  0.12400000  0.92960000  0.71620000  1.0 0.0630823897
H  H29  1  0.07040000  0.78660000  0.19440000  1.0 0.0630823897
H  H30  1  0.78660000  0.59220000  0.71620000  1.0 0.0630823897
H  H31  1  0.59220000  0.87600000  0.80560000  1.0 0.0630823897
H  H32  1  0.87600000  0.07040000  0.28380000  1.0 0.0630823897
H  H33  1  0.77530000  0.12750000  0.70160000  1.0 0.0693315667
H  H34  1  0.12750000  0.42590000  0.35220000  1.0 0.0693315667
H  H35  1  0.42590000  0.07370000  0.29840000  1.0 0.0693315667
H  H36  1  0.07370000  0.77530000  0.64780000  1.0 0.0693315667
H  H37  1  0.22470000  0.87250000  0.29840000  1.0 0.0693315667
H  H38  1  0.87250000  0.57410000  0.64780000  1.0 0.0693315667
H  H39  1  0.57410000  0.92630000  0.70160000  1.0 0.0693315667
H  H40  1  0.92630000  0.22470000  0.35220000  1.0 0.0693315667
H  H41  1  0.86230000  0.08210000  0.63420000  1.0 0.0693315667
H  H42  1  0.08210000  0.44790000  0.21980000  1.0 0.0693315667
H  H43  1  0.44790000  0.22810000  0.36580000  1.0 0.0693315667
H  H44  1  0.22810000  0.86230000  0.78020000  1.0 0.0693315667
H  H45  1  0.13770000  0.91790000  0.36580000  1.0 0.0693315667
H  H46  1  0.91790000  0.55210000  0.78020000  1.0 0.0693315667
H  H47  1  0.55210000  0.77190000  0.63420000  1.0 0.0693315667
H  H48  1  0.77190000  0.13770000  0.21980000  1.0 0.0693315667
H  H49  1  0.78320000  0.01800000  0.53920000  1.0 0.1089090287
H  H50  1  0.01800000  0.47880000  0.23480000  1.0 0.1089090287
H  H51  1  0.47880000  0.24400000  0.46080000  1.0 0.1089090287
H  H52  1  0.24400000  0.78320000  0.76520000  1.0 0.1089090287
H  H53  1  0.21680000  0.98200000  0.46080000  1.0 0.1089090287
H  H54  1  0.98200000  0.52120000  0.76520000  1.0 0.1089090287
H  H55  1  0.52120000  0.75600000  0.53920000  1.0 0.1089090287
H  H56  1  0.75600000  0.21680000  0.23480000  1.0 0.1089090287
H  H57  1  0.99410000  0.23610000  0.79520000  1.0 0.1089090287
H  H58  1  0.23610000  0.44090000  0.24200000  1.0 0.1089090287
H  H59  1  0.44090000  0.19890000  0.20480000  1.0 0.1089090287
H  H60  1  0.19890000  0.99410000  0.75800000  1.0 0.1089090287
H  H61  1  0.00590000  0.76390000  0.20480000  1.0 0.1089090287
H  H62  1  0.76390000  0.55910000  0.75800000  1.0 0.1089090287
H  H63  1  0.55910000  0.80110000  0.79520000  1.0 0.1089090287
H  H64  1  0.80110000  0.00590000  0.24200000  1.0 0.1089090287
H  H65  1  0.76580000  0.20280000  0.76940000  1.0 0.099492039
H  H66  1  0.20280000  0.43340000  0.43700000  1.0 0.099492039
H  H67  1  0.43340000  0.99640000  0.23060000  1.0 0.099492039
H  H68  1  0.99640000  0.76580000  0.56300000  1.0 0.099492039
H  H69  1  0.23420000  0.79720000  0.23060000  1.0 0.099492039
H  H70  1  0.79720000  0.56660000  0.56300000  1.0 0.099492039
H  H71  1  0.56660000  0.00360000  0.76940000  1.0 0.099492039
H  H72  1  0.00360000  0.23420000  0.43700000  1.0 0.099492039
H  H73  1  0.74500000  0.94430000  0.44210000  1.0 0.1089090287
H  H74  1  0.94430000  0.50220000  0.19930000  1.0 0.1089090287
H  H75  1  0.50220000  0.30290000  0.55790000  1.0 0.1089090287
H  H76  1  0.30290000  0.74500000  0.80070000  1.0 0.1089090287
H  H77  1  0.25500000  0.05570000  0.55790000  1.0 0.1089090287
H  H78  1  0.05570000  0.49780000  0.80070000  1.0 0.1089090287
H  H79  1  0.49780000  0.69710000  0.44210000  1.0 0.1089090287
H  H80  1  0.69710000  0.25500000  0.19930000  1.0 0.1089090287
H  H81  1  0.61570000  0.81960000  0.28610000  1.0 0.1404907206
H  H82  1  0.81960000  0.53350000  0.20390000  1.0 0.1404907206
H  H83  1  0.53350000  0.32960000  0.71390000  1.0 0.1404907206
H  H84  1  0.32960000  0.61570000  0.79610000  1.0 0.1404907206
H  H85  1  0.38430000  0.18040000  0.71390000  1.0 0.1404907206
H  H86  1  0.18040000  0.46650000  0.79610000  1.0 0.1404907206
H  H87  1  0.46650000  0.67040000  0.28610000  1.0 0.1404907206
H  H88  1  0.67040000  0.38430000  0.20390000  1.0 0.1404907206
H  H89  1  0.60730000  0.93160000  0.42330000  1.0 0.1216397748
H  H90  1  0.93160000  0.50830000  0.32430000  1.0 0.1216397748
H  H91  1  0.50830000  0.18400000  0.57670000  1.0 0.1216397748
H  H92  1  0.18400000  0.60730000  0.67570000  1.0 0.1216397748
H  H93  1  0.39270000  0.06840000  0.57670000  1.0 0.1216397748
H  H94  1  0.06840000  0.49170000  0.67570000  1.0 0.1216397748
H  H95  1  0.49170000  0.81600000  0.42330000  1.0 0.1216397748
H  H96  1  0.81600000  0.39270000  0.32430000  1.0 0.1216397748
H  H97  1  0.69900000  0.36000000  0.91800000  1.0 0.1404907206
H  H98  1  0.36000000  0.44200000  0.66100000  1.0 0.1404907206
H  H99  1  0.44200000  0.78100000  0.08200000  1.0 0.1404907206
H  H100  1  0.78100000  0.69900000  0.33900000  1.0 0.1404907206
H  H101  1  0.30100000  0.64000000  0.08200000  1.0 0.1404907206
H  H102  1  0.64000000  0.55800000  0.33900000  1.0 0.1404907206
H  H103  1  0.55800000  0.21900000  0.91800000  1.0 0.1404907206
H  H104  1  0.21900000  0.30100000  0.66100000  1.0 0.1404907206
H  H105  1  0.83890000  0.36760000  0.93970000  1.0 0.1216397748
H  H106  1  0.36760000  0.42790000  0.52870000  1.0 0.1216397748
H  H107  1  0.42790000  0.89920000  0.06030000  1.0 0.1216397748
H  H108  1  0.89920000  0.83890000  0.47130000  1.0 0.1216397748
H  H109  1  0.16110000  0.63240000  0.06030000  1.0 0.1216397748
H  H110  1  0.63240000  0.57210000  0.47130000  1.0 0.1216397748
H  H111  1  0.57210000  0.10080000  0.93970000  1.0 0.1216397748
H  H112  1  0.10080000  0.16110000  0.52870000  1.0 0.1216397748
H  H113  1  0.72000000  0.22820000  0.81240000  1.0 0.1216397748
H  H114  1  0.22820000  0.41580000  0.50820000  1.0 0.1216397748
H  H115  1  0.41580000  0.90760000  0.18760000  1.0 0.1216397748
H  H116  1  0.90760000  0.72000000  0.49180000  1.0 0.1216397748
H  H117  1  0.28000000  0.77180000  0.18760000  1.0 0.1216397748
H  H118  1  0.77180000  0.58420000  0.49180000  1.0 0.1216397748
H  H119  1  0.58420000  0.09240000  0.81240000  1.0 0.1216397748
H  H120  1  0.09240000  0.28000000  0.50820000  1.0 0.1216397748
H  H121  1  0.91930000  0.22450000  0.78680000  1.0 0.0783771356
H  H122  1  0.22450000  0.43770000  0.30520000  1.0 0.0783771356
H  H123  1  0.43770000  0.13250000  0.21320000  1.0 0.0783771356
H  H124  1  0.13250000  0.91930000  0.69480000  1.0 0.0783771356
H  H125  1  0.08070000  0.77550000  0.21320000  1.0 0.0783771356
H  H126  1  0.77550000  0.56230000  0.69480000  1.0 0.0783771356
H  H127  1  0.56230000  0.86750000  0.78680000  1.0 0.0783771356
H  H128  1  0.86750000  0.08070000  0.30520000  1.0 0.0783771356
H  H129  1  0.76550000  0.14040000  0.68330000  1.0 0.0693315667
H  H130  1  0.14040000  0.45710000  0.37490000  1.0 0.0693315667
H  H131  1  0.45710000  0.08220000  0.31670000  1.0 0.0693315667
H  H132  1  0.08220000  0.76550000  0.62510000  1.0 0.0693315667
H  H133  1  0.23450000  0.85960000  0.31670000  1.0 0.0693315667
H  H134  1  0.85960000  0.54290000  0.62510000  1.0 0.0693315667
H  H135  1  0.54290000  0.91780000  0.68330000  1.0 0.0693315667
H  H136  1  0.91780000  0.23450000  0.37490000  1.0 0.0693315667
H  H137  1  0.84870000  0.09520000  0.61390000  1.0 0.0630823897
H  H138  1  0.09520000  0.48130000  0.24650000  1.0 0.0630823897
H  H139  1  0.48130000  0.23480000  0.38610000  1.0 0.0630823897
H  H140  1  0.23480000  0.84870000  0.75350000  1.0 0.0630823897
H  H141  1  0.15130000  0.90480000  0.38610000  1.0 0.0630823897
H  H142  1  0.90480000  0.51870000  0.75350000  1.0 0.0630823897
H  H143  1  0.51870000  0.76520000  0.61390000  1.0 0.0630823897
H  H144  1  0.76520000  0.15130000  0.24650000  1.0 0.0630823897
H  H145  1  0.77580000  0.02390000  0.52450000  1.0 0.099492039
H  H146  1  0.02390000  0.49940000  0.24810000  1.0 0.099492039
H  H147  1  0.49940000  0.25130000  0.47550000  1.0 0.099492039
H  H148  1  0.25130000  0.77580000  0.75190000  1.0 0.099492039
H  H149  1  0.22420000  0.97610000  0.47550000  1.0 0.099492039
H  H150  1  0.97610000  0.50060000  0.75190000  1.0 0.099492039
H  H151  1  0.50060000  0.74870000  0.52450000  1.0 0.099492039
H  H152  1  0.74870000  0.22420000  0.24810000  1.0 0.099492039
H  H153  1  0.98930000  0.24490000  0.78520000  1.0 0.099492039
H  H154  1  0.24490000  0.45970000  0.25560000  1.0 0.099492039
H  H155  1  0.45970000  0.20410000  0.21480000  1.0 0.099492039
H  H156  1  0.20410000  0.98930000  0.74440000  1.0 0.099492039
H  H157  1  0.01070000  0.75510000  0.21480000  1.0 0.099492039
H  H158  1  0.75510000  0.54030000  0.74440000  1.0 0.099492039
H  H159  1  0.54030000  0.79590000  0.78520000  1.0 0.099492039
H  H160  1  0.79590000  0.01070000  0.25560000  1.0 0.099492039
H  H161  1  0.75760000  0.21290000  0.75670000  1.0 0.0783771356
H  H162  1  0.21290000  0.45620000  0.45530000  1.0 0.0783771356
H  H163  1  0.45620000  0.00090000  0.24330000  1.0 0.0783771356
H  H164  1  0.00090000  0.75760000  0.54470000  1.0 0.0783771356
H  H165  1  0.24240000  0.78710000  0.24330000  1.0 0.0783771356
H  H166  1  0.78710000  0.54380000  0.54470000  1.0 0.0783771356
H  H167  1  0.54380000  0.99910000  0.75670000  1.0 0.0783771356
H  H168  1  0.99910000  0.24240000  0.45530000  1.0 0.0783771356
C  C1  1  0.14745000  0.37352000  0.87557000  1.0 0.5909888082
C  C2  1  0.37352000  0.49795000  0.22607000  1.0 0.5909888082
C  C3  1  0.49795000  0.27188000  0.12443000  1.0 0.5909888082
C  C4  1  0.27188000  0.14745000  0.77393000  1.0 0.5909888082
C  C5  1  0.85255000  0.62648000  0.12443000  1.0 0.5909888082
C  C6  1  0.62648000  0.50205000  0.77393000  1.0 0.5909888082
C  C7  1  0.50205000  0.72812000  0.87557000  1.0 0.5909888082
C  C8  1  0.72812000  0.85255000  0.22607000  1.0 0.5909888082
C  C9  1  0.13026000  0.31473000  0.83069000  1.0 0.0094935412
C  C10  1  0.31473000  0.48404000  0.18447000  1.0 0.0094935412
C  C11  1  0.48404000  0.29957000  0.16931000  1.0 0.0094935412
C  C12  1  0.29957000  0.13026000  0.81553000  1.0 0.0094935412
C  C13  1  0.86974000  0.68527000  0.16931000  1.0 0.0094935412
C  C14  1  0.68527000  0.51596000  0.81553000  1.0 0.0094935412
C  C15  1  0.51596000  0.70043000  0.83069000  1.0 0.0094935412
C  C16  1  0.70043000  0.86974000  0.18447000  1.0 0.0094935412
C  C17  1  0.08237000  0.28351000  0.80606000  1.0 -0.2307065915
C  C18  1  0.28351000  0.47745000  0.20114000  1.0 -0.2307065915
C  C19  1  0.47745000  0.27631000  0.19394000  1.0 -0.2307065915
C  C20  1  0.27631000  0.08237000  0.79886000  1.0 -0.2307065915
C  C21  1  0.91763000  0.71649000  0.19394000  1.0 -0.2307065915
C  C22  1  0.71649000  0.52255000  0.79886000  1.0 -0.2307065915
C  C23  1  0.52255000  0.72369000  0.80606000  1.0 -0.2307065915
C  C24  1  0.72369000  0.91763000  0.20114000  1.0 -0.2307065915
C  C25  1  0.06686000  0.23020000  0.76312000  1.0 0.1404907206
C  C26  1  0.23020000  0.46708000  0.16334000  1.0 0.1404907206
C  C27  1  0.46708000  0.30374000  0.23688000  1.0 0.1404907206
C  C28  1  0.30374000  0.06686000  0.83666000  1.0 0.1404907206
C  C29  1  0.93314000  0.76980000  0.23688000  1.0 0.1404907206
C  C30  1  0.76980000  0.53292000  0.83666000  1.0 0.1404907206
C  C31  1  0.53292000  0.69626000  0.76312000  1.0 0.1404907206
C  C32  1  0.69626000  0.93314000  0.16334000  1.0 0.1404907206
C  C33  1  0.09810000  0.20750000  0.74396000  1.0 -0.2106043588
C  C34  1  0.20750000  0.46354000  0.10940000  1.0 -0.2106043588
C  C35  1  0.46354000  0.35414000  0.25604000  1.0 -0.2106043588
C  C36  1  0.35414000  0.09810000  0.89060000  1.0 -0.2106043588
C  C37  1  0.90190000  0.79250000  0.25604000  1.0 -0.2106043588
C  C38  1  0.79250000  0.53646000  0.89060000  1.0 -0.2106043588
C  C39  1  0.53646000  0.64586000  0.74396000  1.0 -0.2106043588
C  C40  1  0.64586000  0.90190000  0.10940000  1.0 -0.2106043588
C  C41  1  0.14527000  0.23915000  0.76860000  1.0 0.0094935412
C  C42  1  0.23915000  0.47055000  0.09388000  1.0 0.0094935412
C  C43  1  0.47055000  0.37667000  0.23140000  1.0 0.0094935412
C  C44  1  0.37667000  0.14527000  0.90612000  1.0 0.0094935412
C  C45  1  0.85473000  0.76085000  0.23140000  1.0 0.0094935412
C  C46  1  0.76085000  0.52945000  0.90612000  1.0 0.0094935412
C  C47  1  0.52945000  0.62333000  0.76860000  1.0 0.0094935412
C  C48  1  0.62333000  0.85473000  0.09388000  1.0 0.0094935412
C  C49  1  0.16154000  0.29248000  0.81264000  1.0 -0.0906690451
C  C50  1  0.29248000  0.47984000  0.13094000  1.0 -0.0906690451
C  C51  1  0.47984000  0.34890000  0.18736000  1.0 -0.0906690451
C  C52  1  0.34890000  0.16154000  0.86906000  1.0 -0.0906690451
C  C53  1  0.83846000  0.70752000  0.18736000  1.0 -0.0906690451
C  C54  1  0.70752000  0.52016000  0.86906000  1.0 -0.0906690451
C  C55  1  0.52016000  0.65110000  0.81264000  1.0 -0.0906690451
C  C56  1  0.65110000  0.83846000  0.13094000  1.0 -0.0906690451
C  C57  1  0.90229000  0.14819000  0.71990000  1.0 0.022288579
C  C58  1  0.14819000  0.42829000  0.24590000  1.0 0.022288579
C  C59  1  0.42829000  0.18239000  0.28010000  1.0 0.022288579
C  C60  1  0.18239000  0.90229000  0.75410000  1.0 0.022288579
C  C61  1  0.09771000  0.85181000  0.28010000  1.0 0.022288579
C  C62  1  0.85181000  0.57171000  0.75410000  1.0 0.022288579
C  C63  1  0.57171000  0.81761000  0.71990000  1.0 0.022288579
C  C64  1  0.81761000  0.09771000  0.24590000  1.0 0.022288579
C  C65  1  0.89961000  0.18421000  0.76860000  1.0 -0.0780557051
C  C66  1  0.18421000  0.41561000  0.28460000  1.0 -0.0780557051
C  C67  1  0.41561000  0.13101000  0.23140000  1.0 -0.0780557051
C  C68  1  0.13101000  0.89961000  0.71540000  1.0 -0.0780557051
C  C69  1  0.10039000  0.81579000  0.23140000  1.0 -0.0780557051
C  C70  1  0.81579000  0.58439000  0.71540000  1.0 -0.0780557051
C  C71  1  0.58439000  0.86899000  0.76860000  1.0 -0.0780557051
C  C72  1  0.86899000  0.10039000  0.28460000  1.0 -0.0780557051
C  C73  1  0.85218000  0.17668000  0.76210000  1.0 0.0321034352
C  C74  1  0.17668000  0.41458000  0.32450000  1.0 0.0321034352
C  C75  1  0.41458000  0.09008000  0.23790000  1.0 0.0321034352
C  C76  1  0.09008000  0.85218000  0.67550000  1.0 0.0321034352
C  C77  1  0.14782000  0.82332000  0.23790000  1.0 0.0321034352
C  C78  1  0.82332000  0.58542000  0.67550000  1.0 0.0321034352
C  C79  1  0.58542000  0.90992000  0.76210000  1.0 0.0321034352
C  C80  1  0.90992000  0.14782000  0.32450000  1.0 0.0321034352
C  C81  1  0.80745000  0.13265000  0.70620000  1.0 -0.0701398806
C  C82  1  0.13265000  0.42645000  0.32520000  1.0 -0.0780557051
C  C83  1  0.42645000  0.10125000  0.29380000  1.0 -0.0780557051
C  C84  1  0.10125000  0.80745000  0.67480000  1.0 -0.0780557051
C  C85  1  0.19255000  0.86735000  0.29380000  1.0 -0.0701398806
C  C86  1  0.86735000  0.57355000  0.67480000  1.0 -0.0780557051
C  C87  1  0.57355000  0.89875000  0.70620000  1.0 -0.0780557051
C  C88  1  0.89875000  0.19255000  0.32520000  1.0 -0.0701398806
C  C89  1  0.81085000  0.09735000  0.65850000  1.0 0.0321034352
C  C90  1  0.09735000  0.43885000  0.28650000  1.0 0.0321034352
C  C91  1  0.43885000  0.15235000  0.34150000  1.0 0.0321034352
C  C92  1  0.15235000  0.81085000  0.71350000  1.0 0.0321034352
C  C93  1  0.18915000  0.90265000  0.34150000  1.0 0.0321034352
C  C94  1  0.90265000  0.56115000  0.71350000  1.0 0.0321034352
C  C95  1  0.56115000  0.84765000  0.65850000  1.0 0.0321034352
C  C96  1  0.84765000  0.18915000  0.28650000  1.0 0.0321034352
C  C97  1  0.85956000  0.10606000  0.66650000  1.0 -0.0701398806
C  C98  1  0.10606000  0.43956000  0.24650000  1.0 -0.0701398806
C  C99  1  0.43956000  0.19306000  0.33350000  1.0 -0.0701398806
C  C100  1  0.19306000  0.85956000  0.75350000  1.0 -0.0701398806
C  C101  1  0.14044000  0.89394000  0.33350000  1.0 -0.0701398806
C  C102  1  0.89394000  0.56044000  0.75350000  1.0 -0.0701398806
C  C103  1  0.56044000  0.80694000  0.66650000  1.0 -0.0701398806
C  C104  1  0.80694000  0.14044000  0.24650000  1.0 -0.0701398806
C  C105  1  0.76750000  0.05060000  0.60310000  1.0 0.0630823897
C  C106  1  0.05060000  0.44750000  0.28310000  1.0 0.0630823897
C  C107  1  0.44750000  0.16440000  0.39690000  1.0 0.0630823897
C  C108  1  0.16440000  0.76750000  0.71690000  1.0 0.0630823897
C  C109  1  0.23250000  0.94940000  0.39690000  1.0 0.0630823897
C  C110  1  0.94940000  0.55250000  0.71690000  1.0 0.0630823897
C  C111  1  0.55250000  0.83560000  0.60310000  1.0 0.0630823897
C  C112  1  0.83560000  0.23250000  0.28310000  1.0 0.0630823897
C  C113  1  0.75900000  0.01740000  0.54860000  1.0 -0.0701398806
C  C114  1  0.01740000  0.46880000  0.25840000  1.0 -0.0701398806
C  C115  1  0.46880000  0.21040000  0.45140000  1.0 -0.0701398806
C  C116  1  0.21040000  0.75900000  0.74160000  1.0 -0.0701398806
C  C117  1  0.24100000  0.98260000  0.45140000  1.0 -0.0701398806
C  C118  1  0.98260000  0.53120000  0.74160000  1.0 -0.0701398806
C  C119  1  0.53120000  0.78960000  0.54860000  1.0 -0.0701398806
C  C120  1  0.78960000  0.24100000  0.25840000  1.0 -0.0701398806
C  C121  1  0.99055000  0.20315000  0.76380000  1.0 -0.062534187
C  C122  1  0.20315000  0.43935000  0.21260000  1.0 -0.062534187
C  C123  1  0.43935000  0.22675000  0.23620000  1.0 -0.062534187
C  C124  1  0.22675000  0.99055000  0.78740000  1.0 -0.062534187
C  C125  1  0.00945000  0.79685000  0.23620000  1.0 -0.062534187
C  C126  1  0.79685000  0.56065000  0.78740000  1.0 -0.062534187
C  C127  1  0.56065000  0.77325000  0.76380000  1.0 -0.0701398806
C  C128  1  0.77325000  0.00945000  0.21260000  1.0 -0.062534187
C  C129  1  0.95065000  0.15815000  0.72590000  1.0 0.0693315667
C  C130  1  0.15815000  0.43225000  0.20750000  1.0 0.0693315667
C  C131  1  0.43225000  0.22475000  0.27410000  1.0 0.0693315667
C  C132  1  0.22475000  0.95065000  0.79250000  1.0 0.0693315667
C  C133  1  0.04935000  0.84185000  0.27410000  1.0 0.0693315667
C  C134  1  0.84185000  0.56775000  0.79250000  1.0 0.0693315667
C  C135  1  0.56775000  0.77525000  0.72590000  1.0 0.0693315667
C  C136  1  0.77525000  0.04935000  0.20750000  1.0 0.0693315667
C  C137  1  0.80088000  0.22238000  0.80470000  1.0 -0.0780557051
C  C138  1  0.22238000  0.41768000  0.42150000  1.0 -0.0780557051
C  C139  1  0.41768000  0.99618000  0.19530000  1.0 -0.0780557051
C  C140  1  0.99618000  0.80088000  0.57850000  1.0 -0.0780557051
C  C141  1  0.19912000  0.77762000  0.19530000  1.0 -0.0780557051
C  C142  1  0.77762000  0.58232000  0.57850000  1.0 -0.0780557051
C  C143  1  0.58232000  0.00382000  0.80470000  1.0 -0.0780557051
C  C144  1  0.00382000  0.19912000  0.42150000  1.0 -0.0780557051
C  C145  1  0.84637000  0.21437000  0.80960000  1.0 0.0511268578
C  C146  1  0.21437000  0.40477000  0.36800000  1.0 0.0511268578
C  C147  1  0.40477000  0.03677000  0.19040000  1.0 0.0511268578
C  C148  1  0.03677000  0.84637000  0.63200000  1.0 0.0511268578
C  C149  1  0.15363000  0.78563000  0.19040000  1.0 0.0511268578
C  C150  1  0.78563000  0.59523000  0.63200000  1.0 0.0511268578
C  C151  1  0.59523000  0.96323000  0.80960000  1.0 0.0511268578
C  C152  1  0.96323000  0.15363000  0.36800000  1.0 0.0511268578
C  C153  1  0.67880000  0.94378000  0.44038000  1.0 0.1404907206
C  C154  1  0.94378000  0.50340000  0.26498000  1.0 0.1404907206
C  C155  1  0.50340000  0.23842000  0.55962000  1.0 0.1404907206
C  C156  1  0.23842000  0.67880000  0.73502000  1.0 0.1404907206
C  C157  1  0.32120000  0.05622000  0.55962000  1.0 0.1404907206
C  C158  1  0.05622000  0.49660000  0.73502000  1.0 0.1404907206
C  C159  1  0.49660000  0.76158000  0.44038000  1.0 0.1476597633
C  C160  1  0.76158000  0.32120000  0.26498000  1.0 0.1404907206
C  C161  1  0.70882000  0.92565000  0.41799000  1.0 -0.2419032989
C  C162  1  0.92565000  0.50766000  0.21683000  1.0 -0.2419032989
C  C163  1  0.50766000  0.29083000  0.58201000  1.0 -0.2419032989
C  C164  1  0.29083000  0.70882000  0.78317000  1.0 -0.2419032989
C  C165  1  0.29118000  0.07435000  0.58201000  1.0 -0.2419032989
C  C166  1  0.07435000  0.49234000  0.78317000  1.0 -0.2419032989
C  C167  1  0.49234000  0.70917000  0.41799000  1.0 -0.2419032989
C  C168  1  0.70917000  0.29118000  0.21683000  1.0 -0.2419032989
C  C169  1  0.68448000  0.87942000  0.35932000  1.0 -0.0003084217
C  C170  1  0.87942000  0.52010000  0.19494000  1.0 -0.0003084217
C  C171  1  0.52010000  0.32516000  0.64068000  1.0 -0.0003084217
C  C172  1  0.32516000  0.68448000  0.80506000  1.0 -0.0003084217
C  C173  1  0.31552000  0.12058000  0.64068000  1.0 -0.0003084217
C  C174  1  0.12058000  0.47990000  0.80506000  1.0 0.0021258801
C  C175  1  0.47990000  0.67484000  0.35932000  1.0 -0.0003084217
C  C176  1  0.67484000  0.31552000  0.19494000  1.0 -0.0003084217
C  C177  1  0.63183000  0.85195000  0.32520000  1.0 -0.0906690451
C  C178  1  0.85195000  0.52675000  0.22012000  1.0 -0.0906690451
C  C179  1  0.52675000  0.30663000  0.67480000  1.0 -0.0906690451
C  C180  1  0.30663000  0.63183000  0.77988000  1.0 -0.0906690451
C  C181  1  0.36817000  0.14805000  0.67480000  1.0 -0.0906690451
C  C182  1  0.14805000  0.47325000  0.77988000  1.0 -0.0906690451
C  C183  1  0.47325000  0.69337000  0.32520000  1.0 -0.0906690451
C  C184  1  0.69337000  0.36817000  0.22012000  1.0 -0.0906690451
C  C185  1  0.60259000  0.87216000  0.34859000  1.0 0.022288579
C  C186  1  0.87216000  0.52357000  0.26957000  1.0 0.022288579
C  C187  1  0.52357000  0.25400000  0.65141000  1.0 0.022288579
C  C188  1  0.25400000  0.60259000  0.73043000  1.0 0.022288579
C  C189  1  0.39741000  0.12784000  0.65141000  1.0 0.022288579
C  C190  1  0.12784000  0.47643000  0.73043000  1.0 0.022288579
C  C191  1  0.47643000  0.74600000  0.34859000  1.0 0.022288579
C  C192  1  0.74600000  0.39741000  0.26957000  1.0 0.022288579
C  C193  1  0.62683000  0.91812000  0.40687000  1.0 -0.2106043588
C  C194  1  0.91812000  0.51125000  0.29129000  1.0 -0.2106043588
C  C195  1  0.51125000  0.21996000  0.59313000  1.0 -0.2106043588
C  C196  1  0.21996000  0.62683000  0.70871000  1.0 -0.2106043588
C  C197  1  0.37317000  0.08188000  0.59313000  1.0 -0.2106043588
C  C198  1  0.08188000  0.48875000  0.70871000  1.0 -0.2106043588
C  C199  1  0.48875000  0.78004000  0.40687000  1.0 -0.2106043588
C  C200  1  0.78004000  0.37317000  0.29129000  1.0 -0.2106043588
C  C201  1  0.71546000  0.85875000  0.33443000  1.0 0.5909888082
C  C202  1  0.85875000  0.52432000  0.14329000  1.0 0.5909888082
C  C203  1  0.52432000  0.38103000  0.66557000  1.0 0.5909888082
C  C204  1  0.38103000  0.71546000  0.85671000  1.0 0.5909888082
C  C205  1  0.28454000  0.14125000  0.66557000  1.0 0.5909888082
C  C206  1  0.14125000  0.47568000  0.85671000  1.0 0.5909888082
C  C207  1  0.47568000  0.61897000  0.33443000  1.0 0.5909888082
C  C208  1  0.61897000  0.28454000  0.14329000  1.0 0.5909888082
C  C209  1  0.72061000  0.34330000  0.90645000  1.0 -0.1000212995
C  C210  1  0.34330000  0.43685000  0.62269000  1.0 -0.1000212995
C  C211  1  0.43685000  0.81416000  0.09355000  1.0 -0.1000212995
C  C212  1  0.81416000  0.72061000  0.37731000  1.0 -0.1000212995
C  C213  1  0.27939000  0.65670000  0.09355000  1.0 -0.1000212995
C  C214  1  0.65670000  0.56315000  0.37731000  1.0 -0.1000212995
C  C215  1  0.56315000  0.18584000  0.90645000  1.0 -0.1000212995
C  C216  1  0.18584000  0.27939000  0.62269000  1.0 -0.1000212995
C  C217  1  0.77168000  0.37226000  0.93586000  1.0 0.0094935412
C  C218  1  0.37226000  0.43640000  0.60058000  1.0 0.0094935412
C  C219  1  0.43640000  0.83582000  0.06414000  1.0 0.0094935412
C  C220  1  0.83582000  0.77168000  0.39942000  1.0 0.0094935412
C  C221  1  0.22832000  0.62774000  0.06414000  1.0 0.0094935412
C  C222  1  0.62774000  0.56360000  0.39942000  1.0 0.0094935412
C  C223  1  0.56360000  0.16418000  0.93586000  1.0 0.0094935412
C  C224  1  0.16418000  0.22832000  0.60058000  1.0 0.0094935412
C  C225  1  0.80427000  0.34792000  0.91993000  1.0 -0.2307065915
C  C226  1  0.34792000  0.42799000  0.54365000  1.0 -0.2307065915
C  C227  1  0.42799000  0.88434000  0.08007000  1.0 -0.2307065915
C  C228  1  0.88434000  0.80427000  0.45635000  1.0 -0.2307065915
C  C229  1  0.19573000  0.65208000  0.08007000  1.0 -0.2307065915
C  C230  1  0.65208000  0.57201000  0.45635000  1.0 -0.2307065915
C  C231  1  0.57201000  0.11566000  0.91993000  1.0 -0.2307065915
C  C232  1  0.11566000  0.19573000  0.54365000  1.0 -0.2307065915
C  C233  1  0.78468000  0.29421000  0.87447000  1.0 0.1476597633
C  C234  1  0.29421000  0.41974000  0.50953000  1.0 0.1476597633
C  C235  1  0.41974000  0.91021000  0.12553000  1.0 0.1476597633
C  C236  1  0.91021000  0.78468000  0.49047000  1.0 0.1476597633
C  C237  1  0.21532000  0.70579000  0.12553000  1.0 0.1476597633
C  C238  1  0.70579000  0.58026000  0.49047000  1.0 0.1476597633
C  C239  1  0.58026000  0.08979000  0.87447000  1.0 0.1476597633
C  C240  1  0.08979000  0.21532000  0.50953000  1.0 0.1476597633
C  C241  1  0.73306000  0.26475000  0.84381000  1.0 -0.2419032989
C  C242  1  0.26475000  0.42094000  0.53169000  1.0 -0.2419032989
C  C243  1  0.42094000  0.88925000  0.15619000  1.0 -0.2419032989
C  C244  1  0.88925000  0.73306000  0.46831000  1.0 -0.2419032989
C  C245  1  0.26694000  0.73525000  0.15619000  1.0 -0.2419032989
C  C246  1  0.73525000  0.57906000  0.46831000  1.0 -0.2419032989
C  C247  1  0.57906000  0.11075000  0.84381000  1.0 -0.2419032989
C  C248  1  0.11075000  0.26694000  0.53169000  1.0 -0.2419032989
C  C249  1  0.70141000  0.28978000  0.86005000  1.0 0.0094935412
C  C250  1  0.28978000  0.42973000  0.58837000  1.0 0.0094935412
C  C251  1  0.42973000  0.84136000  0.13995000  1.0 0.0094935412
C  C252  1  0.84136000  0.70141000  0.41163000  1.0 0.0094935412
C  C253  1  0.29859000  0.71022000  0.13995000  1.0 0.0094935412
C  C254  1  0.71022000  0.57027000  0.41163000  1.0 0.0094935412
C  C255  1  0.57027000  0.15864000  0.86005000  1.0 0.0094935412
C  C256  1  0.15864000  0.29859000  0.58837000  1.0 0.0094935412
C  C257  1  0.79124000  0.43024000  0.98208000  1.0 0.5909888082
C  C258  1  0.43024000  0.44816000  0.63900000  1.0 0.5909888082
C  C259  1  0.44816000  0.80916000  0.01792000  1.0 0.5909888082
C  C260  1  0.80916000  0.79124000  0.36100000  1.0 0.5909888082
C  C261  1  0.20876000  0.56976000  0.01792000  1.0 0.5909888082
C  C262  1  0.56976000  0.55184000  0.36100000  1.0 0.5909888082
C  C263  1  0.55184000  0.19084000  0.98208000  1.0 0.5909888082
C  C264  1  0.19084000  0.20876000  0.63900000  1.0 0.5909888082
C  C265  1  0.64559000  0.25928000  0.82469000  1.0 0.5909888082
C  C266  1  0.25928000  0.43459000  0.61369000  1.0 0.5909888082
C  C267  1  0.43459000  0.82090000  0.17531000  1.0 0.5909888082
C  C268  1  0.82090000  0.64559000  0.38631000  1.0 0.5909888082
C  C269  1  0.35441000  0.74072000  0.17531000  1.0 0.5909888082
C  C270  1  0.74072000  0.56541000  0.38631000  1.0 0.5909888082
C  C271  1  0.56541000  0.17910000  0.82469000  1.0 0.5909888082
C  C272  1  0.17910000  0.35441000  0.61369000  1.0 0.5909888082
C  C273  1  0.54455000  0.84242000  0.30901000  1.0 0.5909888082
C  C274  1  0.84242000  0.53341000  0.29787000  1.0 0.5909888082
C  C275  1  0.53341000  0.23554000  0.69099000  1.0 0.5909888082
C  C276  1  0.23554000  0.54455000  0.70213000  1.0 0.5909888082
C  C277  1  0.45545000  0.15758000  0.69099000  1.0 0.5909888082
C  C278  1  0.15758000  0.46659000  0.70213000  1.0 0.5909888082
C  C279  1  0.46659000  0.76446000  0.30901000  1.0 0.5909888082
C  C280  1  0.76446000  0.45545000  0.29787000  1.0 0.5909888082
C  C281  1  0.17842000  0.21609000  0.74653000  1.0 0.5909888082
C  C282  1  0.21609000  0.46956000  0.03767000  1.0 0.5909888082
C  C283  1  0.46956000  0.43189000  0.25347000  1.0 0.5909888082
C  C284  1  0.43189000  0.17842000  0.96233000  1.0 0.5909888082
C  C285  1  0.82158000  0.78391000  0.25347000  1.0 0.5909888082
C  C286  1  0.78391000  0.53044000  0.96233000  1.0 0.5909888082
C  C287  1  0.53044000  0.56811000  0.74653000  1.0 0.5909888082
C  C288  1  0.56811000  0.82158000  0.03767000  1.0 0.5909888082
C  C289  1  0.89112000  0.16072000  0.70100000  1.0 0.022288579
C  C290  1  0.16072000  0.45972000  0.26960000  1.0 0.022288579
C  C291  1  0.45972000  0.19012000  0.29900000  1.0 0.022288579
C  C292  1  0.19012000  0.89112000  0.73040000  1.0 0.022288579
C  C293  1  0.10888000  0.83928000  0.29900000  1.0 0.022288579
C  C294  1  0.83928000  0.54028000  0.73040000  1.0 0.022288579
C  C295  1  0.54028000  0.80988000  0.70100000  1.0 0.022288579
C  C296  1  0.80988000  0.10888000  0.26960000  1.0 0.022288579
C  C297  1  0.88903000  0.19573000  0.74950000  1.0 -0.0701398806
C  C298  1  0.19573000  0.44623000  0.30670000  1.0 -0.0701398806
C  C299  1  0.44623000  0.13953000  0.25050000  1.0 -0.0701398806
C  C300  1  0.13953000  0.88903000  0.69330000  1.0 -0.0701398806
C  C301  1  0.11097000  0.80427000  0.25050000  1.0 -0.0701398806
C  C302  1  0.80427000  0.55377000  0.69330000  1.0 -0.0701398806
C  C303  1  0.55377000  0.86047000  0.74950000  1.0 -0.0701398806
C  C304  1  0.86047000  0.11097000  0.30670000  1.0 -0.0701398806
C  C305  1  0.84183000  0.18853000  0.74310000  1.0 0.0321034352
C  C306  1  0.18853000  0.44543000  0.34670000  1.0 0.0321034352
C  C307  1  0.44543000  0.09873000  0.25690000  1.0 0.0321034352
C  C308  1  0.09873000  0.84183000  0.65330000  1.0 0.0321034352
C  C309  1  0.15817000  0.81147000  0.25690000  1.0 0.0321034352
C  C310  1  0.81147000  0.55457000  0.65330000  1.0 0.0321034352
C  C311  1  0.55457000  0.90127000  0.74310000  1.0 0.0321034352
C  C312  1  0.90127000  0.15817000  0.34670000  1.0 0.0321034352
C  C313  1  0.79730000  0.14550000  0.68740000  1.0 -0.0780557051
C  C314  1  0.14550000  0.45810000  0.34820000  1.0 -0.0906690451
C  C315  1  0.45810000  0.10990000  0.31260000  1.0 -0.0906690451
C  C316  1  0.10990000  0.79730000  0.65180000  1.0 -0.0906690451
C  C317  1  0.20270000  0.85450000  0.31260000  1.0 -0.0906690451
C  C318  1  0.85450000  0.54190000  0.65180000  1.0 -0.0906690451
C  C319  1  0.54190000  0.89010000  0.68740000  1.0 -0.0906690451
C  C320  1  0.89010000  0.20270000  0.34820000  1.0 -0.0780557051
C  C321  1  0.79980000  0.11170000  0.64010000  1.0 0.0321034352
C  C322  1  0.11170000  0.47160000  0.31190000  1.0 0.0321034352
C  C323  1  0.47160000  0.15970000  0.35990000  1.0 0.0321034352
C  C324  1  0.15970000  0.79980000  0.68810000  1.0 0.0321034352
C  C325  1  0.20020000  0.88830000  0.35990000  1.0 0.0321034352
C  C326  1  0.88830000  0.52840000  0.68810000  1.0 0.0321034352
C  C327  1  0.52840000  0.84030000  0.64010000  1.0 0.0321034352
C  C328  1  0.84030000  0.20020000  0.31190000  1.0 0.0321034352
C  C329  1  0.84680000  0.11910000  0.64690000  1.0 -0.0780557051
C  C330  1  0.11910000  0.47220000  0.27230000  1.0 -0.0780557051
C  C331  1  0.47220000  0.19990000  0.35310000  1.0 -0.0780557051
C  C332  1  0.19990000  0.84680000  0.72770000  1.0 -0.0780557051
C  C333  1  0.15320000  0.88090000  0.35310000  1.0 -0.0780557051
C  C334  1  0.88090000  0.52780000  0.72770000  1.0 -0.0780557051
C  C335  1  0.52780000  0.80010000  0.64690000  1.0 -0.0780557051
C  C336  1  0.80010000  0.15320000  0.27230000  1.0 -0.0780557051
C  C337  1  0.75620000  0.06570000  0.58610000  1.0 0.0397944948
C  C338  1  0.06570000  0.47960000  0.30950000  1.0 0.0397944948
C  C339  1  0.47960000  0.17010000  0.41390000  1.0 0.0397944948
C  C340  1  0.17010000  0.75620000  0.69050000  1.0 0.0397944948
C  C341  1  0.24380000  0.93430000  0.41390000  1.0 0.0397944948
C  C342  1  0.93430000  0.52040000  0.69050000  1.0 0.0397944948
C  C343  1  0.52040000  0.82990000  0.58610000  1.0 0.0397944948
C  C344  1  0.82990000  0.24380000  0.30950000  1.0 0.0397944948
C  C345  1  0.74966000  0.02726000  0.53180000  1.0 -0.0428186878
C  C346  1  0.02726000  0.49546000  0.27760000  1.0 -0.0428186878
C  C347  1  0.49546000  0.21786000  0.46820000  1.0 -0.0428186878
C  C348  1  0.21786000  0.74966000  0.72240000  1.0 -0.0510617685
C  C349  1  0.25034000  0.97274000  0.46820000  1.0 -0.0428186878
C  C350  1  0.97274000  0.50454000  0.72240000  1.0 -0.0428186878
C  C351  1  0.50454000  0.78214000  0.53180000  1.0 -0.0510617685
C  C352  1  0.78214000  0.25034000  0.27760000  1.0 -0.0428186878
C  C353  1  0.98263000  0.21363000  0.74940000  1.0 -0.0510617685
C  C354  1  0.21363000  0.46423000  0.23100000  1.0 -0.0510617685
C  C355  1  0.46423000  0.23323000  0.25060000  1.0 -0.0510617685
C  C356  1  0.23323000  0.98263000  0.76900000  1.0 -0.0510617685
C  C357  1  0.01737000  0.78637000  0.25060000  1.0 -0.0510617685
C  C358  1  0.78637000  0.53577000  0.76900000  1.0 -0.0510617685
C  C359  1  0.53577000  0.76677000  0.74940000  1.0 -0.0510617685
C  C360  1  0.76677000  0.01737000  0.23100000  1.0 -0.0510617685
C  C361  1  0.93950000  0.16960000  0.70610000  1.0 0.0511268578
C  C362  1  0.16960000  0.46350000  0.23010000  1.0 0.0511268578
C  C363  1  0.46350000  0.23340000  0.29390000  1.0 0.0511268578
C  C364  1  0.23340000  0.93950000  0.76990000  1.0 0.0511268578
C  C365  1  0.06050000  0.83040000  0.29390000  1.0 0.0511268578
C  C366  1  0.83040000  0.53650000  0.76990000  1.0 0.0511268578
C  C367  1  0.53650000  0.76660000  0.70610000  1.0 0.0511268578
C  C368  1  0.76660000  0.06050000  0.23010000  1.0 0.0511268578
C  C369  1  0.79323000  0.23293000  0.79050000  1.0 -0.0428186878
C  C370  1  0.23293000  0.44243000  0.43970000  1.0 -0.0428186878
C  C371  1  0.44243000  0.00273000  0.20950000  1.0 -0.0428186878
C  C372  1  0.00273000  0.79323000  0.56030000  1.0 -0.0428186878
C  C373  1  0.20677000  0.76707000  0.20950000  1.0 -0.0428186878
C  C374  1  0.76707000  0.55757000  0.56030000  1.0 -0.0428186878
C  C375  1  0.55757000  0.99727000  0.79050000  1.0 -0.0428186878
C  C376  1  0.99727000  0.20677000  0.43970000  1.0 -0.0428186878
C  C377  1  0.83806000  0.22596000  0.79190000  1.0 0.0397944948
C  C378  1  0.22596000  0.43406000  0.38790000  1.0 0.0397944948
C  C379  1  0.43406000  0.04616000  0.20810000  1.0 0.0397944948
C  C380  1  0.04616000  0.83806000  0.61210000  1.0 0.0397944948
C  C381  1  0.16194000  0.77404000  0.20810000  1.0 0.0397944948
C  C382  1  0.77404000  0.56594000  0.61210000  1.0 0.0397944948
C  C383  1  0.56594000  0.95384000  0.79190000  1.0 0.0397944948
C  C384  1  0.95384000  0.16194000  0.38790000  1.0 0.0397944948
N  N1  1  0.72290000  0.03540000  0.59630000  1.0 -0.1114218043
N  N2  1  0.03540000  0.43910000  0.31250000  1.0 -0.1114218043
N  N3  1  0.43910000  0.12660000  0.40370000  1.0 -0.1114218043
N  N4  1  0.12660000  0.72290000  0.68750000  1.0 -0.1114218043
N  N5  1  0.27710000  0.96460000  0.40370000  1.0 -0.1114218043
N  N6  1  0.96460000  0.56090000  0.68750000  1.0 -0.1114218043
N  N7  1  0.56090000  0.87340000  0.59630000  1.0 -0.1114218043
N  N8  1  0.87340000  0.27710000  0.31250000  1.0 -0.1114218043
N  N9  1  0.68760000  0.99350000  0.53890000  1.0 -0.0701398806
N  N10  1  0.99350000  0.45460000  0.30590000  1.0 -0.0701398806
N  N11  1  0.45460000  0.14870000  0.46110000  1.0 -0.0701398806
N  N12  1  0.14870000  0.68760000  0.69410000  1.0 -0.062534187
N  N13  1  0.31240000  0.00650000  0.46110000  1.0 -0.0701398806
N  N14  1  0.00650000  0.54540000  0.69410000  1.0 -0.062534187
N  N15  1  0.54540000  0.85130000  0.53890000  1.0 -0.0701398806
N  N16  1  0.85130000  0.31240000  0.30590000  1.0 -0.0701398806
N  N17  1  0.70990000  0.98280000  0.50910000  1.0 0.166912898
N  N18  1  0.98280000  0.47370000  0.27290000  1.0 0.1476597633
N  N19  1  0.47370000  0.20080000  0.49090000  1.0 0.1476597633
N  N20  1  0.20080000  0.70990000  0.72710000  1.0 0.1404907206
N  N21  1  0.29010000  0.01720000  0.49090000  1.0 0.1476597633
N  N22  1  0.01720000  0.52630000  0.72710000  1.0 0.1637129482
N  N23  1  0.52630000  0.79920000  0.50910000  1.0 0.1404907206
N  N24  1  0.79920000  0.29010000  0.27290000  1.0 0.1476597633
N  N25  1  0.96090000  0.12060000  0.68830000  1.0 -0.1114218043
N  N26  1  0.12060000  0.43230000  0.15970000  1.0 -0.1114218043
N  N27  1  0.43230000  0.27260000  0.31170000  1.0 -0.1114218043
N  N28  1  0.27260000  0.96090000  0.84030000  1.0 -0.1114218043
N  N29  1  0.03910000  0.87940000  0.31170000  1.0 -0.1114218043
N  N30  1  0.87940000  0.56770000  0.84030000  1.0 -0.1114218043
N  N31  1  0.56770000  0.72740000  0.68830000  1.0 -0.1114218043
N  N32  1  0.72740000  0.03910000  0.15970000  1.0 -0.1114218043
N  N33  1  0.00716000  0.14136000  0.70220000  1.0 -0.062534187
N  N34  1  0.14136000  0.43916000  0.13420000  1.0 -0.0510617685
N  N35  1  0.43916000  0.30496000  0.29780000  1.0 -0.0510617685
N  N36  1  0.30496000  0.00716000  0.86580000  1.0 -0.0510617685
N  N37  1  0.99284000  0.85864000  0.29780000  1.0 -0.0510617685
N  N38  1  0.85864000  0.56084000  0.86580000  1.0 -0.0510617685
N  N39  1  0.56084000  0.69504000  0.70220000  1.0 -0.0428186878
N  N40  1  0.69504000  0.99284000  0.13420000  1.0 -0.0428186878
N  N41  1  0.02465000  0.19225000  0.74860000  1.0 0.1089090287
N  N42  1  0.19225000  0.44365000  0.16760000  1.0 0.1089090287
N  N43  1  0.44365000  0.27605000  0.25140000  1.0 0.1268880139
N  N44  1  0.27605000  0.02465000  0.83240000  1.0 0.1089090287
N  N45  1  0.97535000  0.80775000  0.25140000  1.0 0.1089090287
N  N46  1  0.80775000  0.55635000  0.83240000  1.0 0.1089090287
N  N47  1  0.55635000  0.72395000  0.74860000  1.0 0.1089090287
N  N48  1  0.72395000  0.97535000  0.16760000  1.0 0.099492039
N  N49  1  0.81760000  0.26420000  0.86120000  1.0 0.1216397748
N  N50  1  0.26420000  0.40300000  0.44660000  1.0 0.1404907206
N  N51  1  0.40300000  0.95640000  0.13880000  1.0 0.1216397748
N  N52  1  0.95640000  0.81760000  0.55340000  1.0 0.1216397748
N  N53  1  0.18240000  0.73580000  0.13880000  1.0 0.1216397748
N  N54  1  0.73580000  0.59700000  0.55340000  1.0 0.1216397748
N  N55  1  0.59700000  0.04360000  0.86120000  1.0 0.1216397748
N  N56  1  0.04360000  0.18240000  0.44660000  1.0 0.1216397748
N  N57  1  0.87040000  0.28130000  0.89910000  1.0 0.0321034352
N  N58  1  0.28130000  0.38220000  0.41090000  1.0 0.0021258801
N  N59  1  0.38220000  0.97130000  0.10090000  1.0 0.0321034352
N  N60  1  0.97130000  0.87040000  0.58910000  1.0 0.0021258801
N  N61  1  0.12960000  0.71870000  0.10090000  1.0 0.0021258801
N  N62  1  0.71870000  0.61780000  0.58910000  1.0 0.0021258801
N  N63  1  0.61780000  0.02870000  0.89910000  1.0 0.0021258801
N  N64  1  0.02870000  0.12960000  0.41090000  1.0 0.0021258801
N  N65  1  0.88733000  0.25113000  0.86780000  1.0 -0.1000212995
N  N66  1  0.25113000  0.38333000  0.36380000  1.0 -0.1000212995
N  N67  1  0.38333000  0.01953000  0.13220000  1.0 -0.1000212995
N  N68  1  0.01953000  0.88733000  0.63620000  1.0 -0.1000212995
N  N69  1  0.11267000  0.74887000  0.13220000  1.0 -0.1000212995
N  N70  1  0.74887000  0.61667000  0.63620000  1.0 -0.1000212995
N  N71  1  0.61667000  0.98047000  0.86780000  1.0 -0.1000212995
N  N72  1  0.98047000  0.11267000  0.36380000  1.0 -0.1000212995
N  N73  1  0.70990000  0.05710000  0.57820000  1.0 -0.1000212995
N  N74  1  0.05710000  0.47890000  0.34720000  1.0 -0.1000212995
N  N75  1  0.47890000  0.13170000  0.42180000  1.0 -0.1000212995
N  N76  1  0.13170000  0.70990000  0.65280000  1.0 -0.1000212995
N  N77  1  0.29010000  0.94290000  0.42180000  1.0 -0.1000212995
N  N78  1  0.94290000  0.52110000  0.65280000  1.0 -0.1000212995
N  N79  1  0.52110000  0.86830000  0.57820000  1.0 -0.1000212995
N  N80  1  0.86830000  0.29010000  0.34720000  1.0 -0.1114218043
N  N81  1  0.67390000  0.01420000  0.52010000  1.0 -0.0906690451
N  N82  1  0.01420000  0.49410000  0.34030000  1.0 -0.0906690451
N  N83  1  0.49410000  0.15380000  0.47990000  1.0 -0.0906690451
N  N84  1  0.15380000  0.67390000  0.65970000  1.0 -0.0906690451
N  N85  1  0.32610000  0.98580000  0.47990000  1.0 -0.0906690451
N  N86  1  0.98580000  0.50590000  0.65970000  1.0 -0.0906690451
N  N87  1  0.50590000  0.84620000  0.52010000  1.0 -0.0906690451
N  N88  1  0.84620000  0.32610000  0.34030000  1.0 -0.0780557051
N  N89  1  0.69983000  0.99613000  0.49210000  1.0 -0.0003084217
N  N90  1  0.99613000  0.50403000  0.29630000  1.0 0.0094935412
N  N91  1  0.50403000  0.20773000  0.50790000  1.0 0.0094935412
N  N92  1  0.20773000  0.69983000  0.70370000  1.0 0.0321034352
N  N93  1  0.30017000  0.00387000  0.50790000  1.0 0.0094935412
N  N94  1  0.00387000  0.49597000  0.70370000  1.0 -0.0003084217
N  N95  1  0.49597000  0.79227000  0.49210000  1.0 0.0397944948
N  N96  1  0.79227000  0.30017000  0.29630000  1.0 0.0021258801
N  N97  1  0.94419000  0.13299000  0.66120000  1.0 -0.1114218043
N  N98  1  0.13299000  0.47179000  0.18880000  1.0 -0.1114218043
N  N99  1  0.47179000  0.28299000  0.33880000  1.0 -0.1114218043
N  N100  1  0.28299000  0.94419000  0.81120000  1.0 -0.1114218043
N  N101  1  0.05581000  0.86701000  0.33880000  1.0 -0.1114218043
N  N102  1  0.86701000  0.52821000  0.81120000  1.0 -0.1114218043
N  N103  1  0.52821000  0.71701000  0.66120000  1.0 -0.1114218043
N  N104  1  0.71701000  0.05581000  0.18880000  1.0 -0.1114218043
N  N105  1  0.99110000  0.15420000  0.67650000  1.0 -0.062534187
N  N106  1  0.15420000  0.47770000  0.16310000  1.0 -0.0701398806
N  N107  1  0.47770000  0.31460000  0.32350000  1.0 -0.0701398806
N  N108  1  0.31460000  0.99110000  0.83690000  1.0 -0.0701398806
N  N109  1  0.00890000  0.84580000  0.32350000  1.0 -0.0701398806
N  N110  1  0.84580000  0.52230000  0.83690000  1.0 -0.0701398806
N  N111  1  0.52230000  0.68540000  0.67650000  1.0 -0.0701398806
N  N112  1  0.68540000  0.00890000  0.16310000  1.0 -0.0701398806
N  N113  1  0.01387000  0.20227000  0.72940000  1.0 0.0630823897
N  N114  1  0.20227000  0.47287000  0.18840000  1.0 0.0630823897
N  N115  1  0.47287000  0.28447000  0.27060000  1.0 0.0511268578
N  N116  1  0.28447000  0.01387000  0.81160000  1.0 0.0630823897
N  N117  1  0.98613000  0.79773000  0.27060000  1.0 0.0630823897
N  N118  1  0.79773000  0.52713000  0.81160000  1.0 0.0630823897
N  N119  1  0.52713000  0.71553000  0.72940000  1.0 0.0511268578
N  N120  1  0.71553000  0.98613000  0.18840000  1.0 0.0867987942
N  N121  1  0.81174000  0.27414000  0.84720000  1.0 0.022288579
N  N122  1  0.27414000  0.42694000  0.46240000  1.0 0.0094935412
N  N123  1  0.42694000  0.96454000  0.15280000  1.0 0.0094935412
N  N124  1  0.96454000  0.81174000  0.53760000  1.0 0.0397944948
N  N125  1  0.18826000  0.72586000  0.15280000  1.0 0.022288579
N  N126  1  0.72586000  0.57306000  0.53760000  1.0 0.0397944948
N  N127  1  0.57306000  0.03546000  0.84720000  1.0 0.022288579
N  N128  1  0.03546000  0.18826000  0.46240000  1.0 0.022288579
N  N129  1  0.86529000  0.29379000  0.88470000  1.0 -0.0510617685
N  N130  1  0.29379000  0.40909000  0.42850000  1.0 -0.0510617685
N  N131  1  0.40909000  0.98059000  0.11530000  1.0 -0.0510617685
N  N132  1  0.98059000  0.86529000  0.57150000  1.0 -0.0510617685
N  N133  1  0.13471000  0.70621000  0.11530000  1.0 -0.0510617685
N  N134  1  0.70621000  0.59091000  0.57150000  1.0 -0.0510617685
N  N135  1  0.59091000  0.01941000  0.88470000  1.0 -0.0510617685
N  N136  1  0.01941000  0.13471000  0.42850000  1.0 -0.0510617685
N  N137  1  0.88145000  0.26455000  0.85090000  1.0 -0.1114218043
N  N138  1  0.26455000  0.41365000  0.38310000  1.0 -0.1114218043
N  N139  1  0.41365000  0.03055000  0.14910000  1.0 -0.1114218043
N  N140  1  0.03055000  0.88145000  0.61690000  1.0 -0.1114218043
N  N141  1  0.11855000  0.73545000  0.14910000  1.0 -0.1114218043
N  N142  1  0.73545000  0.58635000  0.61690000  1.0 -0.1114218043
N  N143  1  0.58635000  0.96945000  0.85090000  1.0 -0.1114218043
N  N144  1  0.96945000  0.11855000  0.38310000  1.0 -0.1114218043
O  O1  1  0.11434000  0.39295000  0.88227000  1.0 -0.5104775582
O  O2  1  0.39295000  0.51068000  0.27861000  1.0 -0.5104775582
O  O3  1  0.51068000  0.23207000  0.11773000  1.0 -0.5104775582
O  O4  1  0.23207000  0.11434000  0.72139000  1.0 -0.5104775582
O  O5  1  0.88566000  0.60705000  0.11773000  1.0 -0.5104775582
O  O6  1  0.60705000  0.48932000  0.72139000  1.0 -0.5104775582
O  O7  1  0.48932000  0.76793000  0.88227000  1.0 -0.5104775582
O  O8  1  0.76793000  0.88566000  0.27861000  1.0 -0.5104775582
O  O9  1  0.19399000  0.39761000  0.90234000  1.0 -0.5283531411
O  O10  1  0.39761000  0.49527000  0.20362000  1.0 -0.5283531411
O  O11  1  0.49527000  0.29165000  0.09766000  1.0 -0.5283531411
O  O12  1  0.29165000  0.19399000  0.79638000  1.0 -0.5283531411
O  O13  1  0.80601000  0.60239000  0.09766000  1.0 -0.5283531411
O  O14  1  0.60239000  0.50473000  0.79638000  1.0 -0.5283531411
O  O15  1  0.50473000  0.70835000  0.90234000  1.0 -0.5283531411
O  O16  1  0.70835000  0.80601000  0.20362000  1.0 -0.5283531411
O  O17  1  0.22089000  0.24659000  0.77144000  1.0 -0.5206557467
O  O18  1  0.24659000  0.47515000  0.02570000  1.0 -0.5206557467
O  O19  1  0.47515000  0.44945000  0.22856000  1.0 -0.5206557467
O  O20  1  0.44945000  0.22089000  0.97430000  1.0 -0.5206557467
O  O21  1  0.77911000  0.75341000  0.22856000  1.0 -0.5206557467
O  O22  1  0.75341000  0.52485000  0.97430000  1.0 -0.5206557467
O  O23  1  0.52485000  0.55055000  0.77144000  1.0 -0.5206557467
O  O24  1  0.55055000  0.77911000  0.02570000  1.0 -0.5206557467
O  O25  1  0.15984000  0.16724000  0.70404000  1.0 -0.5410355408
O  O26  1  0.16724000  0.46320000  0.00740000  1.0 -0.5410355408
O  O27  1  0.46320000  0.45580000  0.29596000  1.0 -0.5410355408
O  O28  1  0.45580000  0.15984000  0.99260000  1.0 -0.5410355408
O  O29  1  0.84016000  0.83276000  0.29596000  1.0 -0.5410355408
O  O30  1  0.83276000  0.53680000  0.99260000  1.0 -0.5410355408
O  O31  1  0.53680000  0.54420000  0.70404000  1.0 -0.5410355408
O  O32  1  0.54420000  0.84016000  0.00740000  1.0 -0.5410355408
O  O33  1  0.83502000  0.45437000  0.00177000  1.0 -0.5283531411
O  O34  1  0.45437000  0.45260000  0.61935000  1.0 -0.5283531411
O  O35  1  0.45260000  0.83325000  0.99823000  1.0 -0.5283531411
O  O36  1  0.83325000  0.83502000  0.38065000  1.0 -0.5206557467
O  O37  1  0.16498000  0.54563000  0.99823000  1.0 -0.5206557467
O  O38  1  0.54563000  0.54740000  0.38065000  1.0 -0.5283531411
O  O39  1  0.54740000  0.16675000  0.00177000  1.0 -0.5283531411
O  O40  1  0.16675000  0.16498000  0.61935000  1.0 -0.5283531411
O  O41  1  0.76107000  0.45005000  0.99604000  1.0 -0.5283531411
O  O42  1  0.45005000  0.45401000  0.68898000  1.0 -0.5283531411
O  O43  1  0.45401000  0.76503000  0.00396000  1.0 -0.5283531411
O  O44  1  0.76503000  0.76107000  0.31102000  1.0 -0.5283531411
O  O45  1  0.23893000  0.54995000  0.00396000  1.0 -0.5283531411
O  O46  1  0.54995000  0.54599000  0.31102000  1.0 -0.5283531411
O  O47  1  0.54599000  0.23497000  0.99604000  1.0 -0.5283531411
O  O48  1  0.23497000  0.23893000  0.68898000  1.0 -0.5283531411
O  O49  1  0.62994000  0.21198000  0.78036000  1.0 -0.5283531411
O  O50  1  0.21198000  0.43162000  0.58204000  1.0 -0.5283531411
O  O51  1  0.43162000  0.84958000  0.21964000  1.0 -0.5283531411
O  O52  1  0.84958000  0.62994000  0.41796000  1.0 -0.5283531411
O  O53  1  0.37006000  0.78802000  0.21964000  1.0 -0.5283531411
O  O54  1  0.78802000  0.56838000  0.41796000  1.0 -0.5283531411
O  O55  1  0.56838000  0.15042000  0.78036000  1.0 -0.5283531411
O  O56  1  0.15042000  0.37006000  0.58204000  1.0 -0.5283531411
O  O57  1  0.61823000  0.28344000  0.84089000  1.0 -0.5283531411
O  O58  1  0.28344000  0.44255000  0.66521000  1.0 -0.5283531411
O  O59  1  0.44255000  0.77734000  0.15911000  1.0 -0.5283531411
O  O60  1  0.77734000  0.61823000  0.33479000  1.0 -0.5283531411
O  O61  1  0.38177000  0.71656000  0.15911000  1.0 -0.5283531411
O  O62  1  0.71656000  0.55745000  0.33479000  1.0 -0.5283531411
O  O63  1  0.55745000  0.22266000  0.84089000  1.0 -0.5283531411
O  O64  1  0.22266000  0.38177000  0.66521000  1.0 -0.5283531411
O  O65  1  0.51835000  0.86781000  0.32568000  1.0 -0.5206557467
O  O66  1  0.86781000  0.54213000  0.34946000  1.0 -0.5206557467
O  O67  1  0.54213000  0.19267000  0.67432000  1.0 -0.5206557467
O  O68  1  0.19267000  0.51835000  0.65054000  1.0 -0.5206557467
O  O69  1  0.48165000  0.13219000  0.67432000  1.0 -0.5206557467
O  O70  1  0.13219000  0.45787000  0.65054000  1.0 -0.5206557467
O  O71  1  0.45787000  0.80733000  0.32568000  1.0 -0.5206557467
O  O72  1  0.80733000  0.48165000  0.34946000  1.0 -0.5206557467
O  O73  1  0.52937000  0.79641000  0.26446000  1.0 -0.5283531411
O  O74  1  0.79641000  0.53195000  0.26704000  1.0 -0.5283531411
O  O75  1  0.53195000  0.26491000  0.73554000  1.0 -0.5283531411
O  O76  1  0.26491000  0.52937000  0.73296000  1.0 -0.5283531411
O  O77  1  0.47063000  0.20359000  0.73554000  1.0 -0.5283531411
O  O78  1  0.20359000  0.46805000  0.73296000  1.0 -0.5283531411
O  O79  1  0.46805000  0.73509000  0.26446000  1.0 -0.5283531411
O  O80  1  0.73509000  0.47063000  0.26704000  1.0 -0.5283531411
O  O81  1  0.76118000  0.88806000  0.36418000  1.0 -0.5283531411
O  O82  1  0.88806000  0.52388000  0.12688000  1.0 -0.5283531411
O  O83  1  0.52388000  0.39700000  0.63582000  1.0 -0.5283531411
O  O84  1  0.39700000  0.76118000  0.87312000  1.0 -0.5283531411
O  O85  1  0.23882000  0.11194000  0.63582000  1.0 -0.5283531411
O  O86  1  0.11194000  0.47612000  0.87312000  1.0 -0.5283531411
O  O87  1  0.47612000  0.60300000  0.36418000  1.0 -0.5283531411
O  O88  1  0.60300000  0.23882000  0.12688000  1.0 -0.5283531411
O  O89  1  0.69361000  0.81330000  0.28567000  1.0 -0.5283531411
O  O90  1  0.81330000  0.52763000  0.11969000  1.0 -0.5283531411
O  O91  1  0.52763000  0.40794000  0.71433000  1.0 -0.5283531411
O  O92  1  0.40794000  0.69361000  0.88031000  1.0 -0.5283531411
O  O93  1  0.30639000  0.18670000  0.71433000  1.0 -0.5283531411
O  O94  1  0.18670000  0.47237000  0.88031000  1.0 -0.5283531411
O  O95  1  0.47237000  0.59206000  0.28567000  1.0 -0.5283531411
O  O96  1  0.59206000  0.30639000  0.11969000  1.0 -0.5283531411
