# DDEC6 charges by PACMAN v1.1 (https://github.com/mtap-research/PACMAN-charge/)
data_PEXMOY_ASR_pacman
_symmetry_space_group_name_H-M   'P 1'
_cell_length_a   15.13740000
_cell_length_b   15.13740000
_cell_length_c   19.24260000
_cell_angle_alpha   90.00000000
_cell_angle_beta   90.00000000
_cell_angle_gamma   90.00000000
_symmetry_Int_Tables_number   1
_chemical_formula_structural   Cd5H48C72O29
_chemical_formula_sum   'Cd10 H96 C144 O58'
_cell_volume   4409.26627363
_cell_formula_units_Z   2
loop_
 _symmetry_equiv_pos_site_id
 _symmetry_equiv_pos_as_xyz
  1  'x, y, z'
loop_
 _atom_site_type_symbol
 _atom_site_label
 _atom_site_symmetry_multiplicity
 _atom_site_fract_x
 _atom_site_fract_y
 _atom_site_fract_z
 _atom_site_occupancy
 _atom_site_charge
Cd  Cd1  1  0.51750000  0.16249000  0.03518000  1.0 0.9534448914
Cd  Cd2  1  0.48250000  0.83751000  0.03518000  1.0 0.9534448914
Cd  Cd3  1  0.33751000  0.01750000  0.03518000  1.0 0.9534448914
Cd  Cd4  1  0.66249000  0.98250000  0.03518000  1.0 0.9534448914
Cd  Cd5  1  0.98250000  0.66249000  0.96482000  1.0 0.9534448914
Cd  Cd6  1  0.01750000  0.33751000  0.96482000  1.0 0.9534448914
Cd  Cd7  1  0.16249000  0.51750000  0.96482000  1.0 0.9534448914
Cd  Cd8  1  0.83751000  0.48250000  0.96482000  1.0 0.9534448914
Cd  Cd9  1  0.50000000  0.00000000  0.18533000  1.0 0.9002385072
Cd  Cd10  1  0.00000000  0.50000000  0.81467000  1.0 0.9002385072
H  H1  1  0.33587000  0.23018000  0.28392000  1.0 0.1225157592
H  H2  1  0.28255000  0.22308000  0.07942000  1.0 0.1298217073
H  H3  1  0.16033000  0.39989000  0.20197000  1.0 0.1401709437
H  H4  1  0.11386000  0.41640000  0.60609000  1.0 0.1225157592
H  H5  1  0.32198000  0.33120000  0.37513000  1.0 0.0991816934
H  H6  1  0.25889000  0.24871000  0.37423000  1.0 0.0891795768
H  H7  1  0.05136000  0.18120000  0.36039000  1.0 0.1100025757
H  H8  1  0.03572000  0.27931000  0.38359000  1.0 0.0891795768
H  H9  1  0.04498000  0.20390000  0.55135000  1.0 0.0891795768
H  H10  1  0.09594000  0.24211000  0.65757000  1.0 0.1225157592
H  H11  1  0.02954000  0.32148000  0.66079000  1.0 0.1225157592
H  H12  1  0.99401000  0.22421000  0.66050000  1.0 0.1298217073
H  H13  1  0.66413000  0.76982000  0.28392000  1.0 0.1225157592
H  H14  1  0.71745000  0.77692000  0.07942000  1.0 0.1298217073
H  H15  1  0.83967000  0.60011000  0.20197000  1.0 0.1401709437
H  H16  1  0.88614000  0.58360000  0.60609000  1.0 0.1225157592
H  H17  1  0.67802000  0.66880000  0.37513000  1.0 0.0991816934
H  H18  1  0.74111000  0.75129000  0.37423000  1.0 0.0891795768
H  H19  1  0.94864000  0.81880000  0.36039000  1.0 0.1100025757
H  H20  1  0.96428000  0.72069000  0.38359000  1.0 0.0891795768
H  H21  1  0.95502000  0.79610000  0.55135000  1.0 0.0891795768
H  H22  1  0.90406000  0.75789000  0.65757000  1.0 0.1225157592
H  H23  1  0.97046000  0.67852000  0.66079000  1.0 0.1225157592
H  H24  1  0.00599000  0.77579000  0.66050000  1.0 0.1298217073
H  H25  1  0.26982000  0.83587000  0.28392000  1.0 0.1225157592
H  H26  1  0.27692000  0.78255000  0.07942000  1.0 0.1298217073
H  H27  1  0.10011000  0.66033000  0.20197000  1.0 0.1401709437
H  H28  1  0.08360000  0.61386000  0.60609000  1.0 0.1225157592
H  H29  1  0.16880000  0.82198000  0.37513000  1.0 0.0991816934
H  H30  1  0.25129000  0.75889000  0.37423000  1.0 0.0891795768
H  H31  1  0.31880000  0.55136000  0.36039000  1.0 0.1100025757
H  H32  1  0.22069000  0.53572000  0.38359000  1.0 0.0891795768
H  H33  1  0.29610000  0.54498000  0.55135000  1.0 0.0891795768
H  H34  1  0.25789000  0.59594000  0.65757000  1.0 0.1225157592
H  H35  1  0.17852000  0.52954000  0.66079000  1.0 0.1225157592
H  H36  1  0.27579000  0.49401000  0.66050000  1.0 0.1298217073
H  H37  1  0.73018000  0.16413000  0.28392000  1.0 0.1225157592
H  H38  1  0.72308000  0.21745000  0.07942000  1.0 0.1298217073
H  H39  1  0.89989000  0.33967000  0.20197000  1.0 0.1401709437
H  H40  1  0.91640000  0.38614000  0.60609000  1.0 0.1225157592
H  H41  1  0.83120000  0.17802000  0.37513000  1.0 0.0991816934
H  H42  1  0.74871000  0.24111000  0.37423000  1.0 0.0891795768
H  H43  1  0.68120000  0.44864000  0.36039000  1.0 0.1100025757
H  H44  1  0.77931000  0.46428000  0.38359000  1.0 0.0891795768
H  H45  1  0.70390000  0.45502000  0.55135000  1.0 0.0891795768
H  H46  1  0.74211000  0.40406000  0.65757000  1.0 0.1225157592
H  H47  1  0.82148000  0.47046000  0.66079000  1.0 0.1225157592
H  H48  1  0.72421000  0.50599000  0.66050000  1.0 0.1298217073
H  H49  1  0.16413000  0.73018000  0.71608000  1.0 0.1225157592
H  H50  1  0.21745000  0.72308000  0.92058000  1.0 0.1298217073
H  H51  1  0.33967000  0.89989000  0.79803000  1.0 0.1401709437
H  H52  1  0.38614000  0.91640000  0.39391000  1.0 0.1225157592
H  H53  1  0.17802000  0.83120000  0.62487000  1.0 0.0991816934
H  H54  1  0.24111000  0.74871000  0.62577000  1.0 0.0891795768
H  H55  1  0.44864000  0.68120000  0.63961000  1.0 0.1100025757
H  H56  1  0.46428000  0.77931000  0.61641000  1.0 0.0891795768
H  H57  1  0.45502000  0.70390000  0.44865000  1.0 0.0891795768
H  H58  1  0.40406000  0.74211000  0.34243000  1.0 0.1225157592
H  H59  1  0.47046000  0.82148000  0.33921000  1.0 0.1225157592
H  H60  1  0.50599000  0.72421000  0.33950000  1.0 0.1298217073
H  H61  1  0.83587000  0.26982000  0.71608000  1.0 0.1225157592
H  H62  1  0.78255000  0.27692000  0.92058000  1.0 0.1298217073
H  H63  1  0.66033000  0.10011000  0.79803000  1.0 0.1401709437
H  H64  1  0.61386000  0.08360000  0.39391000  1.0 0.1225157592
H  H65  1  0.82198000  0.16880000  0.62487000  1.0 0.0991816934
H  H66  1  0.75889000  0.25129000  0.62577000  1.0 0.0891795768
H  H67  1  0.55136000  0.31880000  0.63961000  1.0 0.1100025757
H  H68  1  0.53572000  0.22069000  0.61641000  1.0 0.0891795768
H  H69  1  0.54498000  0.29610000  0.44865000  1.0 0.0891795768
H  H70  1  0.59594000  0.25789000  0.34243000  1.0 0.1225157592
H  H71  1  0.52954000  0.17852000  0.33921000  1.0 0.1225157592
H  H72  1  0.49401000  0.27579000  0.33950000  1.0 0.1298217073
H  H73  1  0.23018000  0.33587000  0.71608000  1.0 0.1225157592
H  H74  1  0.22308000  0.28255000  0.92058000  1.0 0.1298217073
H  H75  1  0.39989000  0.16033000  0.79803000  1.0 0.1401709437
H  H76  1  0.41640000  0.11386000  0.39391000  1.0 0.1225157592
H  H77  1  0.33120000  0.32198000  0.62487000  1.0 0.0991816934
H  H78  1  0.24871000  0.25889000  0.62577000  1.0 0.0891795768
H  H79  1  0.18120000  0.05136000  0.63961000  1.0 0.1100025757
H  H80  1  0.27931000  0.03572000  0.61641000  1.0 0.0891795768
H  H81  1  0.20390000  0.04498000  0.44865000  1.0 0.0891795768
H  H82  1  0.24211000  0.09594000  0.34243000  1.0 0.1225157592
H  H83  1  0.32148000  0.02954000  0.33921000  1.0 0.1225157592
H  H84  1  0.22421000  0.99401000  0.33950000  1.0 0.1298217073
H  H85  1  0.76982000  0.66413000  0.71608000  1.0 0.1225157592
H  H86  1  0.77692000  0.71745000  0.92058000  1.0 0.1298217073
H  H87  1  0.60011000  0.83967000  0.79803000  1.0 0.1401709437
H  H88  1  0.58360000  0.88614000  0.39391000  1.0 0.1225157592
H  H89  1  0.66880000  0.67802000  0.62487000  1.0 0.0991816934
H  H90  1  0.75129000  0.74111000  0.62577000  1.0 0.0891795768
H  H91  1  0.81880000  0.94864000  0.63961000  1.0 0.1100025757
H  H92  1  0.72069000  0.96428000  0.61641000  1.0 0.0891795768
H  H93  1  0.79610000  0.95502000  0.44865000  1.0 0.0891795768
H  H94  1  0.75789000  0.90406000  0.34243000  1.0 0.1225157592
H  H95  1  0.67852000  0.97046000  0.33921000  1.0 0.1225157592
H  H96  1  0.77579000  0.00599000  0.33950000  1.0 0.1298217073
C  C1  1  0.24580000  0.32110000  0.25370000  1.0 0.2583196431
C  C2  1  0.30530000  0.25190000  0.24560000  1.0 -0.2455211312
C  C3  1  0.31910000  0.21520000  0.18030000  1.0 0.0022989761
C  C4  1  0.27330000  0.24770000  0.12310000  1.0 -0.1682443481
C  C5  1  0.21390000  0.31690000  0.13120000  1.0 0.0086041536
C  C6  1  0.20010000  0.35360000  0.19650000  1.0 -0.2278467782
C  C7  1  0.21540000  0.34620000  0.43950000  1.0 -0.1369736411
C  C8  1  0.14690000  0.29590000  0.47020000  1.0 0.1511300381
C  C9  1  0.11060000  0.32170000  0.53370000  1.0 -0.0162770182
C  C10  1  0.13870000  0.39900000  0.56410000  1.0 -0.2124995082
C  C11  1  0.20530000  0.45360000  0.53290000  1.0 -0.048472252
C  C12  1  0.24000000  0.42260000  0.47090000  1.0 0.1401709437
C  C13  1  0.16000000  0.34900000  0.07110000  1.0 0.5392326906
C  C14  1  0.39040000  0.14420000  0.17310000  1.0 0.5392326906
C  C15  1  0.26060000  0.31280000  0.37510000  1.0 -0.048472252
C  C16  1  0.04570000  0.21970000  0.40040000  1.0 0.1100025757
C  C17  1  0.03510000  0.26480000  0.56690000  1.0 -0.0001572851
C  C18  1  0.03900000  0.26300000  0.64300000  1.0 -0.4396104656
C  C19  1  0.75420000  0.67890000  0.25370000  1.0 0.2583196431
C  C20  1  0.69470000  0.74810000  0.24560000  1.0 -0.2455211312
C  C21  1  0.68090000  0.78480000  0.18030000  1.0 0.0022989761
C  C22  1  0.72670000  0.75230000  0.12310000  1.0 -0.1682443481
C  C23  1  0.78610000  0.68310000  0.13120000  1.0 0.0086041536
C  C24  1  0.79990000  0.64640000  0.19650000  1.0 -0.2278467782
C  C25  1  0.78460000  0.65380000  0.43950000  1.0 -0.1369736411
C  C26  1  0.85310000  0.70410000  0.47020000  1.0 0.1511300381
C  C27  1  0.88940000  0.67830000  0.53370000  1.0 -0.0162770182
C  C28  1  0.86130000  0.60100000  0.56410000  1.0 -0.2124995082
C  C29  1  0.79470000  0.54640000  0.53290000  1.0 -0.048472252
C  C30  1  0.76000000  0.57740000  0.47090000  1.0 0.1401709437
C  C31  1  0.84000000  0.65100000  0.07110000  1.0 0.5392326906
C  C32  1  0.60960000  0.85580000  0.17310000  1.0 0.5392326906
C  C33  1  0.73940000  0.68720000  0.37510000  1.0 -0.048472252
C  C34  1  0.95430000  0.78030000  0.40040000  1.0 0.0991816934
C  C35  1  0.96490000  0.73520000  0.56690000  1.0 -0.0001572851
C  C36  1  0.96100000  0.73700000  0.64300000  1.0 -0.4396104656
C  C37  1  0.17890000  0.74580000  0.25370000  1.0 0.2583196431
C  C38  1  0.24810000  0.80530000  0.24560000  1.0 -0.2455211312
C  C39  1  0.28480000  0.81910000  0.18030000  1.0 0.0022989761
C  C40  1  0.25230000  0.77330000  0.12310000  1.0 -0.1682443481
C  C41  1  0.18310000  0.71390000  0.13120000  1.0 0.0086041536
C  C42  1  0.14640000  0.70010000  0.19650000  1.0 -0.2278467782
C  C43  1  0.15380000  0.71540000  0.43950000  1.0 -0.1369736411
C  C44  1  0.20410000  0.64690000  0.47020000  1.0 0.1511300381
C  C45  1  0.17830000  0.61060000  0.53370000  1.0 -0.0162770182
C  C46  1  0.10100000  0.63870000  0.56410000  1.0 -0.2124995082
C  C47  1  0.04640000  0.70530000  0.53290000  1.0 -0.048472252
C  C48  1  0.07740000  0.74000000  0.47090000  1.0 0.1401709437
C  C49  1  0.15100000  0.66000000  0.07110000  1.0 0.5392326906
C  C50  1  0.35580000  0.89040000  0.17310000  1.0 0.5392326906
C  C51  1  0.18720000  0.76060000  0.37510000  1.0 -0.048472252
C  C52  1  0.28030000  0.54570000  0.40040000  1.0 0.1100025757
C  C53  1  0.23520000  0.53510000  0.56690000  1.0 -0.0001572851
C  C54  1  0.23700000  0.53900000  0.64300000  1.0 -0.4396104656
C  C55  1  0.82110000  0.25420000  0.25370000  1.0 0.2583196431
C  C56  1  0.75190000  0.19470000  0.24560000  1.0 -0.2455211312
C  C57  1  0.71520000  0.18090000  0.18030000  1.0 0.0022989761
C  C58  1  0.74770000  0.22670000  0.12310000  1.0 -0.1682443481
C  C59  1  0.81690000  0.28610000  0.13120000  1.0 0.0086041536
C  C60  1  0.85360000  0.29990000  0.19650000  1.0 -0.2278467782
C  C61  1  0.84620000  0.28460000  0.43950000  1.0 -0.1369736411
C  C62  1  0.79590000  0.35310000  0.47020000  1.0 0.1511300381
C  C63  1  0.82170000  0.38940000  0.53370000  1.0 -0.0162770182
C  C64  1  0.89900000  0.36130000  0.56410000  1.0 -0.2124995082
C  C65  1  0.95360000  0.29470000  0.53290000  1.0 -0.048472252
C  C66  1  0.92260000  0.26000000  0.47090000  1.0 0.1401709437
C  C67  1  0.84900000  0.34000000  0.07110000  1.0 0.5392326906
C  C68  1  0.64420000  0.10960000  0.17310000  1.0 0.5392326906
C  C69  1  0.81280000  0.23940000  0.37510000  1.0 -0.048472252
C  C70  1  0.71970000  0.45430000  0.40040000  1.0 0.1100025757
C  C71  1  0.76480000  0.46490000  0.56690000  1.0 -0.0001572851
C  C72  1  0.76300000  0.46100000  0.64300000  1.0 -0.4396104656
C  C73  1  0.25420000  0.82110000  0.74630000  1.0 0.2583196431
C  C74  1  0.19470000  0.75190000  0.75440000  1.0 -0.2455211312
C  C75  1  0.18090000  0.71520000  0.81970000  1.0 0.0022989761
C  C76  1  0.22670000  0.74770000  0.87690000  1.0 -0.1682443481
C  C77  1  0.28610000  0.81690000  0.86880000  1.0 0.0086041536
C  C78  1  0.29990000  0.85360000  0.80350000  1.0 -0.2278467782
C  C79  1  0.28460000  0.84620000  0.56050000  1.0 -0.1369736411
C  C80  1  0.35310000  0.79590000  0.52980000  1.0 0.1511300381
C  C81  1  0.38940000  0.82170000  0.46630000  1.0 -0.0162770182
C  C82  1  0.36130000  0.89900000  0.43590000  1.0 -0.2124995082
C  C83  1  0.29470000  0.95360000  0.46710000  1.0 -0.048472252
C  C84  1  0.26000000  0.92260000  0.52910000  1.0 0.1401709437
C  C85  1  0.34000000  0.84900000  0.92890000  1.0 0.5392326906
C  C86  1  0.10960000  0.64420000  0.82690000  1.0 0.5392326906
C  C87  1  0.23940000  0.81280000  0.62490000  1.0 -0.048472252
C  C88  1  0.45430000  0.71970000  0.59960000  1.0 0.0991816934
C  C89  1  0.46490000  0.76480000  0.43310000  1.0 -0.0001572851
C  C90  1  0.46100000  0.76300000  0.35700000  1.0 -0.4396104656
C  C91  1  0.74580000  0.17890000  0.74630000  1.0 0.2583196431
C  C92  1  0.80530000  0.24810000  0.75440000  1.0 -0.2455211312
C  C93  1  0.81910000  0.28480000  0.81970000  1.0 0.0022989761
C  C94  1  0.77330000  0.25230000  0.87690000  1.0 -0.1682443481
C  C95  1  0.71390000  0.18310000  0.86880000  1.0 0.0086041536
C  C96  1  0.70010000  0.14640000  0.80350000  1.0 -0.2278467782
C  C97  1  0.71540000  0.15380000  0.56050000  1.0 -0.1369736411
C  C98  1  0.64690000  0.20410000  0.52980000  1.0 0.1511300381
C  C99  1  0.61060000  0.17830000  0.46630000  1.0 -0.0162770182
C  C100  1  0.63870000  0.10100000  0.43590000  1.0 -0.2124995082
C  C101  1  0.70530000  0.04640000  0.46710000  1.0 -0.048472252
C  C102  1  0.74000000  0.07740000  0.52910000  1.0 0.1401709437
C  C103  1  0.66000000  0.15100000  0.92890000  1.0 0.5392326906
C  C104  1  0.89040000  0.35580000  0.82690000  1.0 0.5392326906
C  C105  1  0.76060000  0.18720000  0.62490000  1.0 -0.048472252
C  C106  1  0.54570000  0.28030000  0.59960000  1.0 0.1100025757
C  C107  1  0.53510000  0.23520000  0.43310000  1.0 -0.0001572851
C  C108  1  0.53900000  0.23700000  0.35700000  1.0 -0.4396104656
C  C109  1  0.32110000  0.24580000  0.74630000  1.0 0.2583196431
C  C110  1  0.25190000  0.30530000  0.75440000  1.0 -0.2455211312
C  C111  1  0.21520000  0.31910000  0.81970000  1.0 0.0022989761
C  C112  1  0.24770000  0.27330000  0.87690000  1.0 -0.1682443481
C  C113  1  0.31690000  0.21390000  0.86880000  1.0 0.0086041536
C  C114  1  0.35360000  0.20010000  0.80350000  1.0 -0.2278467782
C  C115  1  0.34620000  0.21540000  0.56050000  1.0 -0.1369736411
C  C116  1  0.29590000  0.14690000  0.52980000  1.0 0.1511300381
C  C117  1  0.32170000  0.11060000  0.46630000  1.0 -0.0162770182
C  C118  1  0.39900000  0.13870000  0.43590000  1.0 -0.2124995082
C  C119  1  0.45360000  0.20530000  0.46710000  1.0 -0.048472252
C  C120  1  0.42260000  0.24000000  0.52910000  1.0 0.1401709437
C  C121  1  0.34900000  0.16000000  0.92890000  1.0 0.5392326906
C  C122  1  0.14420000  0.39040000  0.82690000  1.0 0.5392326906
C  C123  1  0.31280000  0.26060000  0.62490000  1.0 -0.048472252
C  C124  1  0.21970000  0.04570000  0.59960000  1.0 0.1100025757
C  C125  1  0.26480000  0.03510000  0.43310000  1.0 -0.0001572851
C  C126  1  0.26300000  0.03900000  0.35700000  1.0 -0.4396104656
C  C127  1  0.67890000  0.75420000  0.74630000  1.0 0.2583196431
C  C128  1  0.74810000  0.69470000  0.75440000  1.0 -0.2455211312
C  C129  1  0.78480000  0.68090000  0.81970000  1.0 0.0022989761
C  C130  1  0.75230000  0.72670000  0.87690000  1.0 -0.1682443481
C  C131  1  0.68310000  0.78610000  0.86880000  1.0 0.0086041536
C  C132  1  0.64640000  0.79990000  0.80350000  1.0 -0.2278467782
C  C133  1  0.65380000  0.78460000  0.56050000  1.0 -0.1369736411
C  C134  1  0.70410000  0.85310000  0.52980000  1.0 0.1511300381
C  C135  1  0.67830000  0.88940000  0.46630000  1.0 -0.0162770182
C  C136  1  0.60100000  0.86130000  0.43590000  1.0 -0.2124995082
C  C137  1  0.54640000  0.79470000  0.46710000  1.0 -0.048472252
C  C138  1  0.57740000  0.76000000  0.52910000  1.0 0.1401709437
C  C139  1  0.65100000  0.84000000  0.92890000  1.0 0.5392326906
C  C140  1  0.85580000  0.60960000  0.82690000  1.0 0.5392326906
C  C141  1  0.68720000  0.73940000  0.62490000  1.0 -0.048472252
C  C142  1  0.78030000  0.95430000  0.59960000  1.0 0.0991816934
C  C143  1  0.73520000  0.96490000  0.43310000  1.0 -0.0001572851
C  C144  1  0.73700000  0.96100000  0.35700000  1.0 -0.4396104656
O  O1  1  0.15600000  0.30250000  0.01730000  1.0 -0.5206111067
O  O2  1  0.13110000  0.42330000  0.07170000  1.0 -0.4571060568
O  O3  1  0.40860000  0.11210000  0.11730000  1.0 -0.5206111067
O  O4  1  0.42290000  0.11420000  0.22630000  1.0 -0.4530947127
O  O5  1  0.12380000  0.21760000  0.43860000  1.0 -0.2124995082
O  O6  1  0.30730000  0.47240000  0.44050000  1.0 -0.2390971772
O  O7  1  0.21750000  0.34680000  0.31620000  1.0 -0.1804564793
O  O8  1  0.84400000  0.69750000  0.01730000  1.0 -0.5206111067
O  O9  1  0.86890000  0.57670000  0.07170000  1.0 -0.4571060568
O  O10  1  0.59140000  0.88790000  0.11730000  1.0 -0.5206111067
O  O11  1  0.57710000  0.88580000  0.22630000  1.0 -0.4530947127
O  O12  1  0.87620000  0.78240000  0.43860000  1.0 -0.2124995082
O  O13  1  0.69270000  0.52760000  0.44050000  1.0 -0.2390971772
O  O14  1  0.78250000  0.65320000  0.31620000  1.0 -0.1804564793
O  O15  1  0.19750000  0.65600000  0.01730000  1.0 -0.5206111067
O  O16  1  0.07670000  0.63110000  0.07170000  1.0 -0.4571060568
O  O17  1  0.38790000  0.90860000  0.11730000  1.0 -0.5206111067
O  O18  1  0.38580000  0.92290000  0.22630000  1.0 -0.4530947127
O  O19  1  0.28240000  0.62380000  0.43860000  1.0 -0.2124995082
O  O20  1  0.02760000  0.80730000  0.44050000  1.0 -0.2390971772
O  O21  1  0.15320000  0.71750000  0.31620000  1.0 -0.1804564793
O  O22  1  0.80250000  0.34400000  0.01730000  1.0 -0.5206111067
O  O23  1  0.92330000  0.36890000  0.07170000  1.0 -0.4571060568
O  O24  1  0.61210000  0.09140000  0.11730000  1.0 -0.5206111067
O  O25  1  0.61420000  0.07710000  0.22630000  1.0 -0.4530947127
O  O26  1  0.71760000  0.37620000  0.43860000  1.0 -0.2124995082
O  O27  1  0.97240000  0.19270000  0.44050000  1.0 -0.2390971772
O  O28  1  0.84680000  0.28250000  0.31620000  1.0 -0.1804564793
O  O29  1  0.34400000  0.80250000  0.98270000  1.0 -0.5206111067
O  O30  1  0.36890000  0.92330000  0.92830000  1.0 -0.4571060568
O  O31  1  0.09140000  0.61210000  0.88270000  1.0 -0.5206111067
O  O32  1  0.07710000  0.61420000  0.77370000  1.0 -0.4530947127
O  O33  1  0.37620000  0.71760000  0.56140000  1.0 -0.2124995082
O  O34  1  0.19270000  0.97240000  0.55950000  1.0 -0.2390971772
O  O35  1  0.28250000  0.84680000  0.68380000  1.0 -0.1804564793
O  O36  1  0.65600000  0.19750000  0.98270000  1.0 -0.5206111067
O  O37  1  0.63110000  0.07670000  0.92830000  1.0 -0.4571060568
O  O38  1  0.90860000  0.38790000  0.88270000  1.0 -0.5206111067
O  O39  1  0.92290000  0.38580000  0.77370000  1.0 -0.4530947127
O  O40  1  0.62380000  0.28240000  0.56140000  1.0 -0.2154081978
O  O41  1  0.80730000  0.02760000  0.55950000  1.0 -0.2390971772
O  O42  1  0.71750000  0.15320000  0.68380000  1.0 -0.1804564793
O  O43  1  0.30250000  0.15600000  0.98270000  1.0 -0.5206111067
O  O44  1  0.42330000  0.13110000  0.92830000  1.0 -0.4571060568
O  O45  1  0.11210000  0.40860000  0.88270000  1.0 -0.5206111067
O  O46  1  0.11420000  0.42290000  0.77370000  1.0 -0.4530947127
O  O47  1  0.21760000  0.12380000  0.56140000  1.0 -0.2154081978
O  O48  1  0.47240000  0.30730000  0.55950000  1.0 -0.2390971772
O  O49  1  0.34680000  0.21750000  0.68380000  1.0 -0.1804564793
O  O50  1  0.69750000  0.84400000  0.98270000  1.0 -0.5206111067
O  O51  1  0.57670000  0.86890000  0.92830000  1.0 -0.4571060568
O  O52  1  0.88790000  0.59140000  0.88270000  1.0 -0.5206111067
O  O53  1  0.88580000  0.57710000  0.77370000  1.0 -0.4530947127
O  O54  1  0.78240000  0.87620000  0.56140000  1.0 -0.2124995082
O  O55  1  0.52760000  0.69270000  0.55950000  1.0 -0.2390971772
O  O56  1  0.65320000  0.78250000  0.68380000  1.0 -0.1804564793
O  O57  1  0.50000000  0.00000000  0.01350000  1.0 -0.6470431753
O  O58  1  0.00000000  0.50000000  0.98650000  1.0 -0.6470431753
