# DDEC6 charges by PACMAN v1.1 (https://github.com/mtap-research/PACMAN-charge/)
data_PEXTUI_ASR_pacman
_symmetry_space_group_name_H-M   'P 1'
_cell_length_a   10.22600000
_cell_length_b   10.81400000
_cell_length_c   29.87600000
_cell_angle_alpha   90.00000000
_cell_angle_beta   99.43700000
_cell_angle_gamma   90.00000000
_symmetry_Int_Tables_number   1
_chemical_formula_structural   Cd5H12(C3O2)12
_chemical_formula_sum   'Cd10 H24 C72 O48'
_cell_volume   3259.09439220
_cell_formula_units_Z   2
loop_
 _symmetry_equiv_pos_site_id
 _symmetry_equiv_pos_as_xyz
  1  'x, y, z'
loop_
 _atom_site_type_symbol
 _atom_site_label
 _atom_site_symmetry_multiplicity
 _atom_site_fract_x
 _atom_site_fract_y
 _atom_site_fract_z
 _atom_site_occupancy
 _atom_site_charge
Cd  Cd1  1  0.02927000  0.20337000  0.89667000  1.0 1.0199410607
Cd  Cd2  1  0.97073000  0.70337000  0.60333000  1.0 1.0199410607
Cd  Cd3  1  0.97073000  0.79663000  0.10333000  1.0 1.0199410607
Cd  Cd4  1  0.02927000  0.29663000  0.39667000  1.0 1.0199410607
Cd  Cd5  1  0.72814000  0.37372000  0.84909000  1.0 1.0199410607
Cd  Cd6  1  0.27186000  0.87372000  0.65091000  1.0 1.0199410607
Cd  Cd7  1  0.27186000  0.62628000  0.15091000  1.0 1.0261031591
Cd  Cd8  1  0.72814000  0.12628000  0.34909000  1.0 1.0199410607
Cd  Cd9  1  0.50000000  0.50000000  0.00000000  1.0 1.0375631654
Cd  Cd10  1  0.50000000  0.00000000  0.50000000  1.0 1.0375631654
H  H1  1  0.75290000  0.92320000  0.95390000  1.0 0.1381871923
H  H2  1  0.24710000  0.42320000  0.54610000  1.0 0.1381871923
H  H3  1  0.24710000  0.07680000  0.04610000  1.0 0.1381871923
H  H4  1  0.75290000  0.57680000  0.45390000  1.0 0.1381871923
H  H5  1  0.36090000  0.88630000  0.94950000  1.0 0.1381871923
H  H6  1  0.63910000  0.38630000  0.55050000  1.0 0.1381871923
H  H7  1  0.63910000  0.11370000  0.05050000  1.0 0.1381871923
H  H8  1  0.36090000  0.61370000  0.44950000  1.0 0.1381871923
H  H9  1  0.50840000  0.20550000  0.91070000  1.0 0.1381871923
H  H10  1  0.49160000  0.70550000  0.58930000  1.0 0.1381871923
H  H11  1  0.49160000  0.79450000  0.08930000  1.0 0.1381871923
H  H12  1  0.50840000  0.29450000  0.41070000  1.0 0.1381871923
H  H13  1  0.24150000  0.39410000  0.84790000  1.0 0.1381871923
H  H14  1  0.75850000  0.89410000  0.65210000  1.0 0.1381871923
H  H15  1  0.75850000  0.60590000  0.15210000  1.0 0.1381871923
H  H16  1  0.24150000  0.10590000  0.34790000  1.0 0.1381871923
H  H17  1  0.37440000  0.56080000  0.74450000  1.0 0.1381871923
H  H18  1  0.62560000  0.06080000  0.75550000  1.0 0.1381871923
H  H19  1  0.62560000  0.43920000  0.25550000  1.0 0.1381871923
H  H20  1  0.37440000  0.93920000  0.24450000  1.0 0.1381871923
H  H21  1  0.98520000  0.55360000  0.74890000  1.0 0.1346065008
H  H22  1  0.01480000  0.05360000  0.75110000  1.0 0.1381871923
H  H23  1  0.01480000  0.44640000  0.25110000  1.0 0.1381871923
H  H24  1  0.98520000  0.94640000  0.24890000  1.0 0.1346065008
C  C1  1  0.76530000  0.14940000  0.92144000  1.0 0.5852930152
C  C2  1  0.23470000  0.64940000  0.57856000  1.0 0.5852930152
C  C3  1  0.23470000  0.85060000  0.07856000  1.0 0.5852930152
C  C4  1  0.76530000  0.35060000  0.42144000  1.0 0.5852930152
C  C5  1  0.64940000  0.07650000  0.93128000  1.0 -0.017715473
C  C6  1  0.35060000  0.57650000  0.56872000  1.0 -0.017715473
C  C7  1  0.35060000  0.92350000  0.06872000  1.0 -0.017715473
C  C8  1  0.64940000  0.42350000  0.43128000  1.0 -0.017715473
C  C9  1  0.66770000  0.95600000  0.94760000  1.0 -0.0975702447
C  C10  1  0.33230000  0.45600000  0.55240000  1.0 -0.0975702447
C  C11  1  0.33230000  0.04400000  0.05240000  1.0 -0.0975702447
C  C12  1  0.66770000  0.54400000  0.44760000  1.0 -0.0975702447
C  C13  1  0.56090000  0.88500000  0.95440000  1.0 -0.0097698052
C  C14  1  0.43910000  0.38500000  0.54560000  1.0 -0.017715473
C  C15  1  0.43910000  0.11500000  0.04560000  1.0 -0.0097698052
C  C16  1  0.56090000  0.61500000  0.45440000  1.0 -0.0097698052
C  C17  1  0.43320000  0.93410000  0.94490000  1.0 -0.0975702447
C  C18  1  0.56680000  0.43410000  0.55510000  1.0 -0.0975702447
C  C19  1  0.56680000  0.06590000  0.05510000  1.0 -0.0975702447
C  C20  1  0.43320000  0.56590000  0.44490000  1.0 -0.0975702447
C  C21  1  0.41370000  0.05360000  0.92870000  1.0 -0.0097698052
C  C22  1  0.58630000  0.55360000  0.57130000  1.0 -0.0097698052
C  C23  1  0.58630000  0.94640000  0.07130000  1.0 -0.0097698052
C  C24  1  0.41370000  0.44640000  0.42870000  1.0 -0.0097698052
C  C25  1  0.52150000  0.12520000  0.92170000  1.0 -0.0975702447
C  C26  1  0.47850000  0.62520000  0.57830000  1.0 -0.0924896843
C  C27  1  0.47850000  0.87480000  0.07830000  1.0 -0.0975702447
C  C28  1  0.52150000  0.37480000  0.42170000  1.0 -0.0975702447
C  C29  1  0.58110000  0.75330000  0.97080000  1.0 0.5512548738
C  C30  1  0.41890000  0.25330000  0.52920000  1.0 0.5512548738
C  C31  1  0.41890000  0.24670000  0.02920000  1.0 0.5512548738
C  C32  1  0.58110000  0.74670000  0.47080000  1.0 0.5512548738
C  C33  1  0.27520000  0.10420000  0.91700000  1.0 0.5397309789
C  C34  1  0.72480000  0.60420000  0.58300000  1.0 0.5397309789
C  C35  1  0.72480000  0.89580000  0.08300000  1.0 0.5397309789
C  C36  1  0.27520000  0.39580000  0.41700000  1.0 0.5397309789
C  C37  1  0.98160000  0.43450000  0.82560000  1.0 0.5829356515
C  C38  1  0.01840000  0.93450000  0.67440000  1.0 0.5829356515
C  C39  1  0.01840000  0.56550000  0.17440000  1.0 0.5829356515
C  C40  1  0.98160000  0.06550000  0.32560000  1.0 0.5829356515
C  C41  1  0.09620000  0.46890000  0.80240000  1.0 -0.017715473
C  C42  1  0.90380000  0.96890000  0.69760000  1.0 -0.017715473
C  C43  1  0.90380000  0.53110000  0.19760000  1.0 -0.017715473
C  C44  1  0.09620000  0.03110000  0.30240000  1.0 -0.017715473
C  C45  1  0.22460000  0.43700000  0.82060000  1.0 -0.0924896843
C  C46  1  0.77540000  0.93700000  0.67940000  1.0 -0.0924896843
C  C47  1  0.77540000  0.56300000  0.17940000  1.0 -0.0924896843
C  C48  1  0.22460000  0.06300000  0.32060000  1.0 -0.0924896843
C  C49  1  0.32920000  0.46880000  0.79810000  1.0 -0.0097698052
C  C50  1  0.67080000  0.96880000  0.70190000  1.0 -0.0097698052
C  C51  1  0.67080000  0.53120000  0.20190000  1.0 -0.0097698052
C  C52  1  0.32920000  0.03120000  0.29810000  1.0 -0.0097698052
C  C53  1  0.30410000  0.53630000  0.75870000  1.0 -0.0924896843
C  C54  1  0.69590000  0.03630000  0.74130000  1.0 -0.0924896843
C  C55  1  0.69590000  0.46370000  0.24130000  1.0 -0.0924896843
C  C56  1  0.30410000  0.96370000  0.25870000  1.0 -0.0924896843
C  C57  1  0.17570000  0.56850000  0.73960000  1.0 -0.017715473
C  C58  1  0.82430000  0.06850000  0.76040000  1.0 -0.017715473
C  C59  1  0.82430000  0.43150000  0.26040000  1.0 -0.017715473
C  C60  1  0.17570000  0.93150000  0.23960000  1.0 -0.017715473
C  C61  1  0.07190000  0.53360000  0.76160000  1.0 -0.0924896843
C  C62  1  0.92810000  0.03360000  0.73840000  1.0 -0.0924896843
C  C63  1  0.92810000  0.46640000  0.23840000  1.0 -0.0924896843
C  C64  1  0.07190000  0.96640000  0.26160000  1.0 -0.0924896843
C  C65  1  0.47100000  0.43320000  0.81670000  1.0 0.5397309789
C  C66  1  0.52900000  0.93320000  0.68330000  1.0 0.5397309789
C  C67  1  0.52900000  0.56680000  0.18330000  1.0 0.5397309789
C  C68  1  0.47100000  0.06680000  0.31670000  1.0 0.5397309789
C  C69  1  0.14910000  0.64020000  0.69580000  1.0 0.5829356515
C  C70  1  0.85090000  0.14020000  0.80420000  1.0 0.5829356515
C  C71  1  0.85090000  0.35980000  0.30420000  1.0 0.5829356515
C  C72  1  0.14910000  0.85980000  0.19580000  1.0 0.5829356515
O  O1  1  0.75200000  0.26570000  0.91553000  1.0 -0.5954784847
O  O2  1  0.24800000  0.76570000  0.58447000  1.0 -0.5954784847
O  O3  1  0.24800000  0.73430000  0.08447000  1.0 -0.5930369592
O  O4  1  0.75200000  0.23430000  0.41553000  1.0 -0.5930369592
O  O5  1  0.86970000  0.09220000  0.91960000  1.0 -0.4908469415
O  O6  1  0.13030000  0.59220000  0.58040000  1.0 -0.4908469415
O  O7  1  0.13030000  0.90780000  0.08040000  1.0 -0.4908469415
O  O8  1  0.86970000  0.40780000  0.41960000  1.0 -0.4908469415
O  O9  1  0.47880000  0.68840000  0.97080000  1.0 -0.527460689
O  O10  1  0.52120000  0.18840000  0.52920000  1.0 -0.527460689
O  O11  1  0.52120000  0.31160000  0.02920000  1.0 -0.527460689
O  O12  1  0.47880000  0.81160000  0.47080000  1.0 -0.527460689
O  O13  1  0.69390000  0.71420000  0.98330000  1.0 -0.4700529671
O  O14  1  0.30610000  0.21420000  0.51670000  1.0 -0.4700529671
O  O15  1  0.30610000  0.28580000  0.01670000  1.0 -0.4700529671
O  O16  1  0.69390000  0.78580000  0.48330000  1.0 -0.4700529671
O  O17  1  0.18000000  0.03500000  0.91970000  1.0 -0.4700529671
O  O18  1  0.82000000  0.53500000  0.58030000  1.0 -0.4700529671
O  O19  1  0.82000000  0.96500000  0.08030000  1.0 -0.4700529671
O  O20  1  0.18000000  0.46500000  0.41970000  1.0 -0.4700529671
O  O21  1  0.25900000  0.21380000  0.90368000  1.0 -0.4978528178
O  O22  1  0.74100000  0.71380000  0.59632000  1.0 -0.4908469415
O  O23  1  0.74100000  0.78620000  0.09632000  1.0 -0.4908469415
O  O24  1  0.25900000  0.28620000  0.40368000  1.0 -0.4908469415
O  O25  1  0.00380000  0.39760000  0.86585000  1.0 -0.5576906896
O  O26  1  0.99620000  0.89760000  0.63415000  1.0 -0.5576906896
O  O27  1  0.99620000  0.60240000  0.13415000  1.0 -0.5576906896
O  O28  1  0.00380000  0.10240000  0.36585000  1.0 -0.5576906896
O  O29  1  0.86720000  0.44670000  0.80340000  1.0 -0.4828761316
O  O30  1  0.13280000  0.94670000  0.69660000  1.0 -0.4908469415
O  O31  1  0.13280000  0.55330000  0.19660000  1.0 -0.4908469415
O  O32  1  0.86720000  0.05330000  0.30340000  1.0 -0.4908469415
O  O33  1  0.49920000  0.39210000  0.85604000  1.0 -0.4978528178
O  O34  1  0.50080000  0.89210000  0.64396000  1.0 -0.4978528178
O  O35  1  0.50080000  0.60790000  0.14396000  1.0 -0.4978528178
O  O36  1  0.49920000  0.10790000  0.35604000  1.0 -0.4978528178
O  O37  1  0.55580000  0.44690000  0.79240000  1.0 -0.4610943368
O  O38  1  0.44420000  0.94690000  0.70760000  1.0 -0.4610943368
O  O39  1  0.44420000  0.55310000  0.20760000  1.0 -0.4610943368
O  O40  1  0.55580000  0.05310000  0.29240000  1.0 -0.4610943368
O  O41  1  0.03200000  0.64410000  0.67613000  1.0 -0.5168122298
O  O42  1  0.96800000  0.14410000  0.82387000  1.0 -0.5168122298
O  O43  1  0.96800000  0.35590000  0.32387000  1.0 -0.5168122298
O  O44  1  0.03200000  0.85590000  0.17613000  1.0 -0.5168122298
O  O45  1  0.24920000  0.68690000  0.68257000  1.0 -0.5484922773
O  O46  1  0.75080000  0.18690000  0.81743000  1.0 -0.5484922773
O  O47  1  0.75080000  0.31310000  0.31743000  1.0 -0.5484922773
O  O48  1  0.24920000  0.81310000  0.18257000  1.0 -0.5484922773
