# DDEC6 charges by PACMAN v1.1 (https://github.com/mtap-research/PACMAN-charge/)
data_PEYVEV_FSR_pacman
_symmetry_space_group_name_H-M   'P 1'
_cell_length_a   15.32130000
_cell_length_b   15.32130000
_cell_length_c   32.57100000
_cell_angle_alpha   90.00000000
_cell_angle_beta   90.00000000
_cell_angle_gamma   120.00000000
_symmetry_Int_Tables_number   1
_chemical_formula_structural   In6H9C27O29
_chemical_formula_sum   'In24 H36 C108 O116'
_cell_volume   6621.44776017
_cell_formula_units_Z   4
loop_
 _symmetry_equiv_pos_site_id
 _symmetry_equiv_pos_as_xyz
  1  'x, y, z'
loop_
 _atom_site_type_symbol
 _atom_site_label
 _atom_site_symmetry_multiplicity
 _atom_site_fract_x
 _atom_site_fract_y
 _atom_site_fract_z
 _atom_site_occupancy
 _atom_site_charge
In  In1  1  0.57965000  0.42035000  0.59211000  1.0 1.6251521658
In  In2  1  0.57965000  0.15930000  0.59211000  1.0 1.6251521658
In  In3  1  0.84070000  0.42035000  0.59211000  1.0 1.6242989104
In  In4  1  0.42035000  0.84070000  0.09211000  1.0 1.6242989104
In  In5  1  0.15930000  0.57965000  0.09211000  1.0 1.6251521658
In  In6  1  0.42035000  0.57965000  0.40789000  1.0 1.6251521658
In  In7  1  0.84070000  0.42035000  0.90789000  1.0 1.6242989104
In  In8  1  0.57965000  0.15930000  0.90789000  1.0 1.6251521658
In  In9  1  0.42035000  0.57965000  0.09211000  1.0 1.6242989104
In  In10  1  0.15930000  0.57965000  0.40789000  1.0 1.6251521658
In  In11  1  0.42035000  0.84070000  0.40789000  1.0 1.6251521658
In  In12  1  0.57965000  0.42035000  0.90789000  1.0 1.6251521658
In  In13  1  0.50000000  0.50000000  0.50000000  1.0 1.5813436012
In  In14  1  0.50000000  0.00000000  0.50000000  1.0 1.5813436012
In  In15  1  0.00000000  0.50000000  0.50000000  1.0 1.5813436012
In  In16  1  0.50000000  0.00000000  0.00000000  1.0 1.5813436012
In  In17  1  0.00000000  0.50000000  0.00000000  1.0 1.5813436012
In  In18  1  0.50000000  0.50000000  0.00000000  1.0 1.5813436012
In  In19  1  0.92274000  0.07726000  0.75000000  1.0 1.5813436012
In  In20  1  0.92274000  0.84548000  0.75000000  1.0 1.5813436012
In  In21  1  0.15452000  0.07726000  0.75000000  1.0 1.5813436012
In  In22  1  0.07726000  0.15452000  0.25000000  1.0 1.5813436012
In  In23  1  0.84548000  0.92274000  0.25000000  1.0 1.5813436012
In  In24  1  0.07726000  0.92274000  0.25000000  1.0 1.5813436012
H  H1  1  0.57540000  0.78770000  0.55440000  1.0 0.17885531
H  H2  1  0.21230000  0.78770000  0.55440000  1.0 0.17885531
H  H3  1  0.21230000  0.42460000  0.55440000  1.0 0.17885531
H  H4  1  0.78770000  0.21230000  0.05440000  1.0 0.17885531
H  H5  1  0.78770000  0.57540000  0.05440000  1.0 0.17885531
H  H6  1  0.78770000  0.57540000  0.44560000  1.0 0.17885531
H  H7  1  0.21230000  0.78770000  0.94560000  1.0 0.17885531
H  H8  1  0.57540000  0.78770000  0.94560000  1.0 0.17885531
H  H9  1  0.42460000  0.21230000  0.05440000  1.0 0.17885531
H  H10  1  0.78770000  0.21230000  0.44560000  1.0 0.17885531
H  H11  1  0.42460000  0.21230000  0.44560000  1.0 0.17885531
H  H12  1  0.21230000  0.42460000  0.94560000  1.0 0.17885531
H  H13  1  0.71720000  0.72740000  0.64480000  1.0 0.17885531
H  H14  1  0.27260000  0.98980000  0.64480000  1.0 0.17885531
H  H15  1  0.01020000  0.28280000  0.64480000  1.0 0.17885531
H  H16  1  0.72740000  0.01020000  0.14480000  1.0 0.17885531
H  H17  1  0.98980000  0.71720000  0.14480000  1.0 0.17885531
H  H18  1  0.72740000  0.71720000  0.35520000  1.0 0.17885531
H  H19  1  0.01020000  0.72740000  0.85520000  1.0 0.17885531
H  H20  1  0.71720000  0.98980000  0.85520000  1.0 0.17885531
H  H21  1  0.28280000  0.27260000  0.14480000  1.0 0.17885531
H  H22  1  0.98980000  0.27260000  0.35520000  1.0 0.17885531
H  H23  1  0.28280000  0.01020000  0.35520000  1.0 0.17885531
H  H24  1  0.27260000  0.28280000  0.85520000  1.0 0.17885531
H  H25  1  0.28280000  0.27260000  0.35520000  1.0 0.17885531
H  H26  1  0.72740000  0.01020000  0.35520000  1.0 0.17885531
H  H27  1  0.98980000  0.71720000  0.35520000  1.0 0.17885531
H  H28  1  0.27260000  0.98980000  0.85520000  1.0 0.17885531
H  H29  1  0.01020000  0.28280000  0.85520000  1.0 0.17885531
H  H30  1  0.27260000  0.28280000  0.64480000  1.0 0.17885531
H  H31  1  0.98980000  0.27260000  0.14480000  1.0 0.17885531
H  H32  1  0.28280000  0.01020000  0.14480000  1.0 0.17885531
H  H33  1  0.71720000  0.72740000  0.85520000  1.0 0.17885531
H  H34  1  0.01020000  0.72740000  0.64480000  1.0 0.17885531
H  H35  1  0.71720000  0.98980000  0.64480000  1.0 0.17885531
H  H36  1  0.72740000  0.71720000  0.14480000  1.0 0.17885531
C  C1  1  0.79360000  0.89680000  0.68880000  1.0 0.6439081232
C  C2  1  0.10320000  0.89680000  0.68880000  1.0 0.6439081232
C  C3  1  0.10320000  0.20640000  0.68880000  1.0 0.6439081232
C  C4  1  0.89680000  0.10320000  0.18880000  1.0 0.6439081232
C  C5  1  0.89680000  0.79360000  0.18880000  1.0 0.6439081232
C  C6  1  0.89680000  0.79360000  0.31120000  1.0 0.6439081232
C  C7  1  0.10320000  0.89680000  0.81120000  1.0 0.6439081232
C  C8  1  0.79360000  0.89680000  0.81120000  1.0 0.6439081232
C  C9  1  0.20640000  0.10320000  0.18880000  1.0 0.6439081232
C  C10  1  0.89680000  0.10320000  0.31120000  1.0 0.6439081232
C  C11  1  0.20640000  0.10320000  0.31120000  1.0 0.6439081232
C  C12  1  0.10320000  0.20640000  0.81120000  1.0 0.6439081232
C  C13  1  0.60890000  0.64070000  0.57730000  1.0 0.634917597
C  C14  1  0.35930000  0.96820000  0.57730000  1.0 0.634917597
C  C15  1  0.03180000  0.39110000  0.57730000  1.0 0.634917597
C  C16  1  0.64070000  0.03180000  0.07730000  1.0 0.634917597
C  C17  1  0.96820000  0.60890000  0.07730000  1.0 0.634917597
C  C18  1  0.64070000  0.60890000  0.42270000  1.0 0.634917597
C  C19  1  0.03180000  0.64070000  0.92270000  1.0 0.634917597
C  C20  1  0.60890000  0.96820000  0.92270000  1.0 0.634917597
C  C21  1  0.39110000  0.35930000  0.07730000  1.0 0.634917597
C  C22  1  0.96820000  0.35930000  0.42270000  1.0 0.634917597
C  C23  1  0.39110000  0.03180000  0.42270000  1.0 0.634917597
C  C24  1  0.35930000  0.39110000  0.92270000  1.0 0.634917597
C  C25  1  0.39110000  0.35930000  0.42270000  1.0 0.634917597
C  C26  1  0.64070000  0.03180000  0.42270000  1.0 0.634917597
C  C27  1  0.96820000  0.60890000  0.42270000  1.0 0.634917597
C  C28  1  0.35930000  0.96820000  0.92270000  1.0 0.634917597
C  C29  1  0.03180000  0.39110000  0.92270000  1.0 0.634917597
C  C30  1  0.35930000  0.39110000  0.57730000  1.0 0.634917597
C  C31  1  0.96820000  0.35930000  0.07730000  1.0 0.634917597
C  C32  1  0.39110000  0.03180000  0.07730000  1.0 0.634917597
C  C33  1  0.60890000  0.64070000  0.92270000  1.0 0.634917597
C  C34  1  0.03180000  0.64070000  0.57730000  1.0 0.634917597
C  C35  1  0.60890000  0.96820000  0.57730000  1.0 0.634917597
C  C36  1  0.64070000  0.60890000  0.07730000  1.0 0.634917597
C  C37  1  0.72640000  0.86320000  0.65060000  1.0 -0.0024278202
C  C38  1  0.13680000  0.86320000  0.65060000  1.0 -0.0024278202
C  C39  1  0.13680000  0.27360000  0.65060000  1.0 -0.0024278202
C  C40  1  0.86320000  0.13680000  0.15060000  1.0 -0.0024278202
C  C41  1  0.86320000  0.72640000  0.15060000  1.0 -0.0024278202
C  C42  1  0.86320000  0.72640000  0.34940000  1.0 -0.0024278202
C  C43  1  0.13680000  0.86320000  0.84940000  1.0 -0.0024278202
C  C44  1  0.72640000  0.86320000  0.84940000  1.0 -0.0024278202
C  C45  1  0.27360000  0.13680000  0.15060000  1.0 -0.0024278202
C  C46  1  0.86320000  0.13680000  0.34940000  1.0 -0.0024278202
C  C47  1  0.27360000  0.13680000  0.34940000  1.0 -0.0024278202
C  C48  1  0.13680000  0.27360000  0.84940000  1.0 -0.0024278202
C  C49  1  0.61280000  0.80640000  0.57850000  1.0 -0.0248862219
C  C50  1  0.19360000  0.80640000  0.57850000  1.0 -0.0248862219
C  C51  1  0.19360000  0.38720000  0.57850000  1.0 -0.0248862219
C  C52  1  0.80640000  0.19360000  0.07850000  1.0 -0.0248862219
C  C53  1  0.80640000  0.61280000  0.07850000  1.0 -0.0256050055
C  C54  1  0.80640000  0.61280000  0.42150000  1.0 -0.0248862219
C  C55  1  0.19360000  0.80640000  0.92150000  1.0 -0.0248862219
C  C56  1  0.61280000  0.80640000  0.92150000  1.0 -0.0248862219
C  C57  1  0.38720000  0.19360000  0.07850000  1.0 -0.0248862219
C  C58  1  0.80640000  0.19360000  0.42150000  1.0 -0.0248862219
C  C59  1  0.38720000  0.19360000  0.42150000  1.0 -0.0248862219
C  C60  1  0.19360000  0.38720000  0.92150000  1.0 -0.0248862219
C  C61  1  0.64120000  0.74060000  0.59690000  1.0 -0.0024278202
C  C62  1  0.25940000  0.90060000  0.59690000  1.0 -0.0024278202
C  C63  1  0.09940000  0.35880000  0.59690000  1.0 -0.0024278202
C  C64  1  0.74060000  0.09940000  0.09690000  1.0 -0.0024278202
C  C65  1  0.90060000  0.64120000  0.09690000  1.0 -0.0024278202
C  C66  1  0.74060000  0.64120000  0.40310000  1.0 -0.0024278202
C  C67  1  0.09940000  0.74060000  0.90310000  1.0 -0.0024278202
C  C68  1  0.64120000  0.90060000  0.90310000  1.0 -0.0024278202
C  C69  1  0.35880000  0.25940000  0.09690000  1.0 -0.0024278202
C  C70  1  0.90060000  0.25940000  0.40310000  1.0 -0.0024278202
C  C71  1  0.35880000  0.09940000  0.40310000  1.0 -0.0024278202
C  C72  1  0.25940000  0.35880000  0.90310000  1.0 -0.0024278202
C  C73  1  0.35880000  0.25940000  0.40310000  1.0 -0.0024278202
C  C74  1  0.74060000  0.09940000  0.40310000  1.0 -0.0024278202
C  C75  1  0.90060000  0.64120000  0.40310000  1.0 -0.0024278202
C  C76  1  0.25940000  0.90060000  0.90310000  1.0 -0.0024278202
C  C77  1  0.09940000  0.35880000  0.90310000  1.0 -0.0024278202
C  C78  1  0.25940000  0.35880000  0.59690000  1.0 -0.0024278202
C  C79  1  0.90060000  0.25940000  0.09690000  1.0 -0.0024278202
C  C80  1  0.35880000  0.09940000  0.09690000  1.0 -0.0024278202
C  C81  1  0.64120000  0.74060000  0.90310000  1.0 -0.0024278202
C  C82  1  0.09940000  0.74060000  0.59690000  1.0 -0.0024278202
C  C83  1  0.64120000  0.90060000  0.59690000  1.0 -0.0024278202
C  C84  1  0.74060000  0.64120000  0.09690000  1.0 -0.0024278202
C  C85  1  0.69800000  0.77010000  0.63270000  1.0 -0.0463675878
C  C86  1  0.22990000  0.92790000  0.63270000  1.0 -0.0463675878
C  C87  1  0.07210000  0.30200000  0.63270000  1.0 -0.0463675878
C  C88  1  0.77010000  0.07210000  0.13270000  1.0 -0.0463675878
C  C89  1  0.92790000  0.69800000  0.13270000  1.0 -0.0463675878
C  C90  1  0.77010000  0.69800000  0.36730000  1.0 -0.0463675878
C  C91  1  0.07210000  0.77010000  0.86730000  1.0 -0.0463675878
C  C92  1  0.69800000  0.92790000  0.86730000  1.0 -0.0463675878
C  C93  1  0.30200000  0.22990000  0.13270000  1.0 -0.0463675878
C  C94  1  0.92790000  0.22990000  0.36730000  1.0 -0.0463675878
C  C95  1  0.30200000  0.07210000  0.36730000  1.0 -0.0463675878
C  C96  1  0.22990000  0.30200000  0.86730000  1.0 -0.0463675878
C  C97  1  0.30200000  0.22990000  0.36730000  1.0 -0.0463675878
C  C98  1  0.77010000  0.07210000  0.36730000  1.0 -0.0463675878
C  C99  1  0.92790000  0.69800000  0.36730000  1.0 -0.0463675878
C  C100  1  0.22990000  0.92790000  0.86730000  1.0 -0.0463675878
C  C101  1  0.07210000  0.30200000  0.86730000  1.0 -0.0463675878
C  C102  1  0.22990000  0.30200000  0.63270000  1.0 -0.0463675878
C  C103  1  0.92790000  0.22990000  0.13270000  1.0 -0.0463675878
C  C104  1  0.30200000  0.07210000  0.13270000  1.0 -0.0463675878
C  C105  1  0.69800000  0.77010000  0.86730000  1.0 -0.0463675878
C  C106  1  0.07210000  0.77010000  0.63270000  1.0 -0.0463675878
C  C107  1  0.69800000  0.92790000  0.63270000  1.0 -0.0463675878
C  C108  1  0.77010000  0.69800000  0.13270000  1.0 -0.0463675878
O  O1  1  0.84320000  0.15680000  0.75000000  1.0 -0.3342429002
O  O2  1  0.84320000  0.68640000  0.75000000  1.0 -0.3342429002
O  O3  1  0.31360000  0.15680000  0.75000000  1.0 -0.3342429002
O  O4  1  0.15680000  0.31360000  0.25000000  1.0 -0.3342429002
O  O5  1  0.68640000  0.84320000  0.25000000  1.0 -0.3342429002
O  O6  1  0.15680000  0.84320000  0.25000000  1.0 -0.3342429002
O  O7  1  0.00000000  0.00000000  0.75000000  1.0 -1.0970615943
O  O8  1  0.00000000  0.00000000  0.25000000  1.0 -1.0970615943
O  O9  1  0.81690000  0.98190000  0.70285000  1.0 -0.5108941445
O  O10  1  0.01810000  0.83500000  0.70285000  1.0 -0.5108941445
O  O11  1  0.16500000  0.18310000  0.70285000  1.0 -0.5108941445
O  O12  1  0.98190000  0.16500000  0.20285000  1.0 -0.5108941445
O  O13  1  0.83500000  0.81690000  0.20285000  1.0 -0.5108941445
O  O14  1  0.98190000  0.81690000  0.29715000  1.0 -0.5108941445
O  O15  1  0.16500000  0.98190000  0.79715000  1.0 -0.5108941445
O  O16  1  0.81690000  0.83500000  0.79715000  1.0 -0.5108941445
O  O17  1  0.18310000  0.01810000  0.20285000  1.0 -0.5108941445
O  O18  1  0.83500000  0.01810000  0.29715000  1.0 -0.5108941445
O  O19  1  0.18310000  0.16500000  0.29715000  1.0 -0.5108941445
O  O20  1  0.01810000  0.18310000  0.79715000  1.0 -0.5108941445
O  O21  1  0.18310000  0.01810000  0.29715000  1.0 -0.5108941445
O  O22  1  0.98190000  0.16500000  0.29715000  1.0 -0.5108941445
O  O23  1  0.83500000  0.81690000  0.29715000  1.0 -0.5108941445
O  O24  1  0.01810000  0.83500000  0.79715000  1.0 -0.5108941445
O  O25  1  0.16500000  0.18310000  0.79715000  1.0 -0.5108941445
O  O26  1  0.01810000  0.18310000  0.70285000  1.0 -0.5108941445
O  O27  1  0.83500000  0.01810000  0.20285000  1.0 -0.5108941445
O  O28  1  0.18310000  0.16500000  0.20285000  1.0 -0.5108941445
O  O29  1  0.81690000  0.98190000  0.79715000  1.0 -0.5108941445
O  O30  1  0.16500000  0.98190000  0.70285000  1.0 -0.5108941445
O  O31  1  0.81690000  0.83500000  0.70285000  1.0 -0.5108941445
O  O32  1  0.98190000  0.81690000  0.20285000  1.0 -0.5108941445
O  O33  1  0.57130000  0.42870000  0.52730000  1.0 -0.7597572803
O  O34  1  0.57130000  0.14260000  0.52730000  1.0 -0.7597572803
O  O35  1  0.85740000  0.42870000  0.52730000  1.0 -0.7597572803
O  O36  1  0.42870000  0.85740000  0.02730000  1.0 -0.7597572803
O  O37  1  0.14260000  0.57130000  0.02730000  1.0 -0.7597572803
O  O38  1  0.42870000  0.57130000  0.47270000  1.0 -0.7597572803
O  O39  1  0.85740000  0.42870000  0.97270000  1.0 -0.7597572803
O  O40  1  0.57130000  0.14260000  0.97270000  1.0 -0.7597572803
O  O41  1  0.42870000  0.57130000  0.02730000  1.0 -0.7597572803
O  O42  1  0.14260000  0.57130000  0.47270000  1.0 -0.7597572803
O  O43  1  0.42870000  0.85740000  0.47270000  1.0 -0.7597572803
O  O44  1  0.57130000  0.42870000  0.97270000  1.0 -0.7597572803
O  O45  1  0.52890000  0.26445000  0.59380000  1.0 -0.77340885
O  O46  1  0.73555000  0.26445000  0.59380000  1.0 -0.77340885
O  O47  1  0.73555000  0.47110000  0.59380000  1.0 -0.77340885
O  O48  1  0.26445000  0.73555000  0.09380000  1.0 -0.77340885
O  O49  1  0.26445000  0.52890000  0.09380000  1.0 -0.77340885
O  O50  1  0.26445000  0.52890000  0.40620000  1.0 -0.77340885
O  O51  1  0.73555000  0.26445000  0.90620000  1.0 -0.77340885
O  O52  1  0.52890000  0.26445000  0.90620000  1.0 -0.77340885
O  O53  1  0.47110000  0.73555000  0.09380000  1.0 -0.77340885
O  O54  1  0.26445000  0.73555000  0.40620000  1.0 -0.77340885
O  O55  1  0.47110000  0.73555000  0.40620000  1.0 -0.77340885
O  O56  1  0.73555000  0.47110000  0.90620000  1.0 -0.77340885
O  O57  1  0.62010000  0.57840000  0.59851000  1.0 -0.5918919046
O  O58  1  0.42160000  0.04170000  0.59851000  1.0 -0.5918919046
O  O59  1  0.95830000  0.37990000  0.59851000  1.0 -0.5918919046
O  O60  1  0.57840000  0.95830000  0.09851000  1.0 -0.5918919046
O  O61  1  0.04170000  0.62010000  0.09851000  1.0 -0.5918919046
O  O62  1  0.57840000  0.62010000  0.40149000  1.0 -0.5918919046
O  O63  1  0.95830000  0.57840000  0.90149000  1.0 -0.5918919046
O  O64  1  0.62010000  0.04170000  0.90149000  1.0 -0.5918919046
O  O65  1  0.37990000  0.42160000  0.09851000  1.0 -0.5918919046
O  O66  1  0.04170000  0.42160000  0.40149000  1.0 -0.5918919046
O  O67  1  0.37990000  0.95830000  0.40149000  1.0 -0.5918919046
O  O68  1  0.42160000  0.37990000  0.90149000  1.0 -0.5918919046
O  O69  1  0.37990000  0.42160000  0.40149000  1.0 -0.5918919046
O  O70  1  0.57840000  0.95830000  0.40149000  1.0 -0.5918919046
O  O71  1  0.04170000  0.62010000  0.40149000  1.0 -0.5918919046
O  O72  1  0.42160000  0.04170000  0.90149000  1.0 -0.5918919046
O  O73  1  0.95830000  0.37990000  0.90149000  1.0 -0.5918919046
O  O74  1  0.42160000  0.37990000  0.59851000  1.0 -0.5918919046
O  O75  1  0.04170000  0.42160000  0.09851000  1.0 -0.5918919046
O  O76  1  0.37990000  0.95830000  0.09851000  1.0 -0.5918919046
O  O77  1  0.62010000  0.57840000  0.90149000  1.0 -0.5918919046
O  O78  1  0.95830000  0.57840000  0.59851000  1.0 -0.5918919046
O  O79  1  0.62010000  0.04170000  0.59851000  1.0 -0.5918919046
O  O80  1  0.57840000  0.62010000  0.09851000  1.0 -0.5918919046
O  O81  1  0.57630000  0.42370000  0.65930000  1.0 -0.3878453224
O  O82  1  0.57630000  0.15260000  0.65930000  1.0 -0.3878453224
O  O83  1  0.84740000  0.42370000  0.65930000  1.0 -0.3878453224
O  O84  1  0.42370000  0.84740000  0.15930000  1.0 -0.3878453224
O  O85  1  0.15260000  0.57630000  0.15930000  1.0 -0.3878453224
O  O86  1  0.42370000  0.57630000  0.34070000  1.0 -0.3878453224
O  O87  1  0.84740000  0.42370000  0.84070000  1.0 -0.3878453224
O  O88  1  0.57630000  0.15260000  0.84070000  1.0 -0.3878453224
O  O89  1  0.42370000  0.57630000  0.15930000  1.0 -0.3878453224
O  O90  1  0.15260000  0.57630000  0.34070000  1.0 -0.3878453224
O  O91  1  0.42370000  0.84740000  0.34070000  1.0 -0.3878453224
O  O92  1  0.57630000  0.42370000  0.84070000  1.0 -0.3878453224
O  O93  1  0.57230000  0.62640000  0.54178000  1.0 -0.5275036195
O  O94  1  0.37360000  0.94590000  0.54178000  1.0 -0.5275036195
O  O95  1  0.05410000  0.42770000  0.54178000  1.0 -0.5275036195
O  O96  1  0.62640000  0.05410000  0.04178000  1.0 -0.5275036195
O  O97  1  0.94590000  0.57230000  0.04178000  1.0 -0.5275036195
O  O98  1  0.62640000  0.57230000  0.45822000  1.0 -0.5275036195
O  O99  1  0.05410000  0.62640000  0.95822000  1.0 -0.5275036195
O  O100  1  0.57230000  0.94590000  0.95822000  1.0 -0.5275036195
O  O101  1  0.42770000  0.37360000  0.04178000  1.0 -0.5275036195
O  O102  1  0.94590000  0.37360000  0.45822000  1.0 -0.5275036195
O  O103  1  0.42770000  0.05410000  0.45822000  1.0 -0.5275036195
O  O104  1  0.37360000  0.42770000  0.95822000  1.0 -0.5275036195
O  O105  1  0.42770000  0.37360000  0.45822000  1.0 -0.5275036195
O  O106  1  0.62640000  0.05410000  0.45822000  1.0 -0.5275036195
O  O107  1  0.94590000  0.57230000  0.45822000  1.0 -0.5275036195
O  O108  1  0.37360000  0.94590000  0.95822000  1.0 -0.5275036195
O  O109  1  0.05410000  0.42770000  0.95822000  1.0 -0.5275036195
O  O110  1  0.37360000  0.42770000  0.54178000  1.0 -0.5275036195
O  O111  1  0.94590000  0.37360000  0.04178000  1.0 -0.5275036195
O  O112  1  0.42770000  0.05410000  0.04178000  1.0 -0.5275036195
O  O113  1  0.57230000  0.62640000  0.95822000  1.0 -0.5275036195
O  O114  1  0.05410000  0.62640000  0.54178000  1.0 -0.5275036195
O  O115  1  0.57230000  0.94590000  0.54178000  1.0 -0.5275036195
O  O116  1  0.62640000  0.57230000  0.04178000  1.0 -0.5275036195
