# DDEC6 charges by PACMAN v1.1 (https://github.com/mtap-research/PACMAN-charge/)
data_PIBLUJ_ASR_pacman
_symmetry_space_group_name_H-M   'P 1'
_cell_length_a   19.74510000
_cell_length_b   30.28680000
_cell_length_c   20.18180000
_cell_angle_alpha   90.00000000
_cell_angle_beta   90.68800000
_cell_angle_gamma   90.00000000
_symmetry_Int_Tables_number   1
_chemical_formula_structural   Zn2H43C59(N2O3)4
_chemical_formula_sum   'Zn16 H344 C472 N64 O96'
_cell_volume   12068.16708354
_cell_formula_units_Z   8
loop_
 _symmetry_equiv_pos_site_id
 _symmetry_equiv_pos_as_xyz
  1  'x, y, z'
loop_
 _atom_site_type_symbol
 _atom_site_label
 _atom_site_symmetry_multiplicity
 _atom_site_fract_x
 _atom_site_fract_y
 _atom_site_fract_z
 _atom_site_occupancy
 _atom_site_charge
Zn  Zn1  1  0.94768000  0.32118000  0.72778000  1.0 0.81175965
Zn  Zn2  1  0.44768000  0.17882000  0.72778000  1.0 0.81175965
Zn  Zn3  1  0.04814000  0.42594000  0.68108000  1.0 0.81175965
Zn  Zn4  1  0.54814000  0.07406000  0.68108000  1.0 0.81175965
Zn  Zn5  1  0.54890000  0.57348000  0.66092000  1.0 0.7598180167
Zn  Zn6  1  0.04890000  0.92652000  0.66092000  1.0 0.7598180167
Zn  Zn7  1  0.44470000  0.67646000  0.61282000  1.0 0.7998581521
Zn  Zn8  1  0.94470000  0.82354000  0.61282000  1.0 0.7998581521
Zn  Zn9  1  0.55232000  0.82118000  0.27222000  1.0 0.81175965
Zn  Zn10  1  0.05232000  0.67882000  0.27222000  1.0 0.81175965
Zn  Zn11  1  0.45186000  0.92594000  0.31892000  1.0 0.81175965
Zn  Zn12  1  0.95186000  0.57406000  0.31892000  1.0 0.81175965
Zn  Zn13  1  0.95110000  0.07348000  0.33908000  1.0 0.7598180167
Zn  Zn14  1  0.45110000  0.42652000  0.33908000  1.0 0.7598180167
Zn  Zn15  1  0.05530000  0.17646000  0.38718000  1.0 0.7998581521
Zn  Zn16  1  0.55530000  0.32354000  0.38718000  1.0 0.7998581521
H  H1  1  0.09780000  0.42610000  0.01340000  1.0 0.2823330901
H  H2  1  0.59780000  0.07390000  0.01340000  1.0 0.2823330901
H  H3  1  0.99390000  0.44220000  0.35210000  1.0 0.2920195825
H  H4  1  0.49390000  0.05780000  0.35210000  1.0 0.2920195825
H  H5  1  0.90240000  0.33390000  0.05920000  1.0 0.2823330901
H  H6  1  0.40240000  0.16610000  0.05920000  1.0 0.2823330901
H  H7  1  0.00510000  0.30470000  0.39950000  1.0 0.3033973269
H  H8  1  0.50510000  0.19530000  0.39950000  1.0 0.3033973269
H  H9  1  0.59190000  0.59510000  0.99170000  1.0 0.2483934156
H  H10  1  0.09190000  0.90490000  0.99170000  1.0 0.2483934156
H  H11  1  0.49560000  0.55550000  0.33160000  1.0 0.2920195825
H  H12  1  0.99560000  0.94450000  0.33160000  1.0 0.2920195825
H  H13  1  0.39130000  0.67540000  0.94410000  1.0 0.2561100714
H  H14  1  0.89130000  0.82460000  0.94410000  1.0 0.2561100714
H  H15  1  0.49690000  0.68670000  0.28450000  1.0 0.2920195825
H  H16  1  0.99690000  0.81330000  0.28450000  1.0 0.2920195825
H  H17  1  0.13380000  0.24880000  0.75370000  1.0 0.1101449527
H  H18  1  0.63380000  0.25120000  0.75370000  1.0 0.1101449527
H  H19  1  0.24210000  0.21830000  0.75790000  1.0 0.1217194722
H  H20  1  0.74210000  0.28170000  0.75790000  1.0 0.1217194722
H  H21  1  0.32020000  0.33620000  0.70330000  1.0 0.1217194722
H  H22  1  0.82020000  0.16380000  0.70330000  1.0 0.1217194722
H  H23  1  0.21130000  0.36570000  0.69420000  1.0 0.1269927315
H  H24  1  0.71130000  0.13430000  0.69420000  1.0 0.1269927315
H  H25  1  0.77080000  0.38620000  0.71370000  1.0 0.1217194722
H  H26  1  0.27080000  0.11380000  0.71370000  1.0 0.1217194722
H  H27  1  0.66790000  0.42420000  0.70500000  1.0 0.1217194722
H  H28  1  0.16790000  0.07580000  0.70500000  1.0 0.1217194722
H  H29  1  0.76450000  0.53860000  0.67500000  1.0 0.1269927315
H  H30  1  0.26450000  0.96140000  0.67500000  1.0 0.1269927315
H  H31  1  0.86870000  0.50170000  0.67770000  1.0 0.1101449527
H  H32  1  0.36870000  0.99830000  0.67770000  1.0 0.1101449527
H  H33  1  0.27360000  0.61220000  0.63070000  1.0 0.1217194722
H  H34  1  0.77360000  0.88780000  0.63070000  1.0 0.1217194722
H  H35  1  0.16960000  0.57640000  0.63960000  1.0 0.1269927315
H  H36  1  0.66960000  0.92360000  0.63960000  1.0 0.1269927315
H  H37  1  0.26330000  0.46350000  0.69450000  1.0 0.1217194722
H  H38  1  0.76330000  0.03650000  0.69450000  1.0 0.1217194722
H  H39  1  0.36760000  0.49850000  0.68790000  1.0 0.1101449527
H  H40  1  0.86760000  0.00150000  0.68790000  1.0 0.1101449527
H  H41  1  0.23250000  0.71130000  0.61120000  1.0 0.1217194722
H  H42  1  0.73250000  0.78870000  0.61120000  1.0 0.1217194722
H  H43  1  0.12560000  0.74440000  0.61360000  1.0 0.1101449527
H  H44  1  0.62560000  0.75560000  0.61360000  1.0 0.1101449527
H  H45  1  0.21250000  0.86320000  0.65040000  1.0 0.1217194722
H  H46  1  0.71250000  0.63680000  0.65040000  1.0 0.1217194722
H  H47  1  0.31930000  0.83160000  0.63800000  1.0 0.1269927315
H  H48  1  0.81930000  0.66840000  0.63800000  1.0 0.1269927315
H  H49  1  0.95500000  0.45400000  0.80320000  1.0 0.1003059374
H  H50  1  0.45500000  0.04600000  0.80320000  1.0 0.1003059374
H  H51  1  0.95580000  0.45530000  0.91730000  1.0 0.1480334665
H  H52  1  0.45580000  0.04470000  0.91730000  1.0 0.1480334665
H  H53  1  0.14970000  0.41280000  0.91150000  1.0 0.1407403839
H  H54  1  0.64970000  0.08720000  0.91150000  1.0 0.1407403839
H  H55  1  0.14230000  0.41120000  0.79850000  1.0 0.1101449527
H  H56  1  0.64230000  0.08880000  0.79850000  1.0 0.1101449527
H  H57  1  0.12910000  0.42080000  0.10330000  1.0 0.1217194722
H  H58  1  0.62910000  0.07920000  0.10330000  1.0 0.1217194722
H  H59  1  0.15540000  0.41490000  0.21690000  1.0 0.1217194722
H  H60  1  0.65540000  0.08510000  0.21690000  1.0 0.1217194722
H  H61  1  0.95940000  0.44100000  0.25790000  1.0 0.1269927315
H  H62  1  0.45940000  0.05900000  0.25790000  1.0 0.1269927315
H  H63  1  0.93640000  0.44800000  0.14540000  1.0 0.1217194722
H  H64  1  0.43640000  0.05200000  0.14540000  1.0 0.1217194722
H  H65  1  0.12980000  0.39310000  0.56110000  1.0 0.1217194722
H  H66  1  0.62980000  0.10690000  0.56110000  1.0 0.1217194722
H  H67  1  0.12780000  0.39220000  0.44780000  1.0 0.1480334665
H  H68  1  0.62780000  0.10780000  0.44780000  1.0 0.1480334665
H  H69  1  0.95000000  0.45780000  0.45170000  1.0 0.1480334665
H  H70  1  0.45000000  0.04220000  0.45170000  1.0 0.1480334665
H  H71  1  0.95550000  0.45600000  0.56510000  1.0 0.1217194722
H  H72  1  0.45550000  0.04400000  0.56510000  1.0 0.1217194722
H  H73  1  0.86160000  0.35190000  0.84460000  1.0 0.1217194722
H  H74  1  0.36160000  0.14810000  0.84460000  1.0 0.1217194722
H  H75  1  0.85520000  0.35270000  0.95610000  1.0 0.1407403839
H  H76  1  0.35520000  0.14730000  0.95610000  1.0 0.1407403839
H  H77  1  0.04890000  0.31120000  0.96530000  1.0 0.1480334665
H  H78  1  0.54890000  0.18880000  0.96530000  1.0 0.1480334665
H  H79  1  0.04840000  0.31170000  0.85120000  1.0 0.1101449527
H  H80  1  0.54840000  0.18830000  0.85120000  1.0 0.1101449527
H  H81  1  0.06860000  0.31080000  0.19560000  1.0 0.1217194722
H  H82  1  0.56860000  0.18920000  0.19560000  1.0 0.1217194722
H  H83  1  0.04370000  0.31470000  0.30800000  1.0 0.1217194722
H  H84  1  0.54370000  0.18530000  0.30800000  1.0 0.1217194722
H  H85  1  0.85000000  0.34320000  0.26550000  1.0 0.1217194722
H  H86  1  0.35000000  0.15680000  0.26550000  1.0 0.1217194722
H  H87  1  0.87290000  0.33570000  0.15170000  1.0 0.1101449527
H  H88  1  0.37290000  0.16430000  0.15170000  1.0 0.1101449527
H  H89  1  0.86320000  0.34780000  0.60580000  1.0 0.1101449527
H  H90  1  0.36320000  0.15220000  0.60580000  1.0 0.1101449527
H  H91  1  0.86920000  0.35300000  0.49020000  1.0 0.1480334665
H  H92  1  0.36920000  0.14700000  0.49020000  1.0 0.1480334665
H  H93  1  0.04150000  0.28000000  0.50130000  1.0 0.1480334665
H  H94  1  0.54150000  0.22000000  0.50130000  1.0 0.1480334665
H  H95  1  0.03120000  0.27930000  0.61520000  1.0 0.1101449527
H  H96  1  0.53120000  0.22070000  0.61520000  1.0 0.1101449527
H  H97  1  0.64430000  0.59700000  0.78330000  1.0 0.1003059374
H  H98  1  0.14430000  0.90300000  0.78330000  1.0 0.1003059374
H  H99  1  0.64580000  0.59630000  0.89140000  1.0 0.1217194722
H  H100  1  0.14580000  0.90370000  0.89140000  1.0 0.1217194722
H  H101  1  0.45320000  0.57020000  0.89930000  1.0 0.0615063181
H  H102  1  0.95320000  0.92980000  0.89930000  1.0 0.0615063181
H  H103  1  0.45230000  0.56290000  0.78590000  1.0 0.07085529
H  H104  1  0.95230000  0.93710000  0.78590000  1.0 0.07085529
H  H105  1  0.43830000  0.56520000  0.12890000  1.0 0.0806636434
H  H106  1  0.93830000  0.93480000  0.12890000  1.0 0.0806636434
H  H107  1  0.46200000  0.56680000  0.23750000  1.0 0.0806636434
H  H108  1  0.96200000  0.93320000  0.23750000  1.0 0.0806636434
H  H109  1  0.66000000  0.58820000  0.19950000  1.0 0.089472462
H  H110  1  0.16000000  0.91180000  0.19950000  1.0 0.089472462
H  H111  1  0.63290000  0.58830000  0.08490000  1.0 0.0615063181
H  H112  1  0.13290000  0.91170000  0.08490000  1.0 0.0615063181
H  H113  1  0.45300000  0.54580000  0.54420000  1.0 0.1003059374
H  H114  1  0.95300000  0.95420000  0.54420000  1.0 0.1003059374
H  H115  1  0.44770000  0.54350000  0.43040000  1.0 0.1407403839
H  H116  1  0.94770000  0.95650000  0.43040000  1.0 0.1407403839
H  H117  1  0.64060000  0.59100000  0.42740000  1.0 0.1480334665
H  H118  1  0.14060000  0.90900000  0.42740000  1.0 0.1480334665
H  H119  1  0.64030000  0.59030000  0.54120000  1.0 0.1101449527
H  H120  1  0.14030000  0.90970000  0.54120000  1.0 0.1101449527
H  H121  1  0.53020000  0.71250000  0.73790000  1.0 0.1101449527
H  H122  1  0.03020000  0.78750000  0.73790000  1.0 0.1101449527
H  H123  1  0.52840000  0.71370000  0.85140000  1.0 0.1480334665
H  H124  1  0.02840000  0.78630000  0.85140000  1.0 0.1480334665
H  H125  1  0.33140000  0.67980000  0.83750000  1.0 0.1101449527
H  H126  1  0.83140000  0.82020000  0.83750000  1.0 0.1101449527
H  H127  1  0.36790000  0.63820000  0.73170000  1.0 0.0806636434
H  H128  1  0.86790000  0.86180000  0.73170000  1.0 0.0806636434
H  H129  1  0.54690000  0.70590000  0.08120000  1.0 0.1003059374
H  H130  1  0.04690000  0.79410000  0.08120000  1.0 0.1003059374
H  H131  1  0.52200000  0.69500000  0.19300000  1.0 0.1101449527
H  H132  1  0.02200000  0.80500000  0.19300000  1.0 0.1101449527
H  H133  1  0.33250000  0.66100000  0.14550000  1.0 0.0806636434
H  H134  1  0.83250000  0.83900000  0.14550000  1.0 0.0806636434
H  H135  1  0.35750000  0.66650000  0.03320000  1.0 0.07085529
H  H136  1  0.85750000  0.83350000  0.03320000  1.0 0.07085529
H  H137  1  0.35570000  0.65240000  0.49300000  1.0 0.1101449527
H  H138  1  0.85570000  0.84760000  0.49300000  1.0 0.1101449527
H  H139  1  0.35370000  0.65320000  0.37610000  1.0 0.1480334665
H  H140  1  0.85370000  0.84680000  0.37610000  1.0 0.1480334665
H  H141  1  0.55070000  0.68980000  0.38340000  1.0 0.1480334665
H  H142  1  0.05070000  0.81020000  0.38340000  1.0 0.1480334665
H  H143  1  0.54720000  0.68790000  0.49750000  1.0 0.1101449527
H  H144  1  0.04720000  0.81210000  0.49750000  1.0 0.1101449527
H  H145  1  0.62420000  0.61890000  0.77540000  1.0 0.089472462
H  H146  1  0.12420000  0.88110000  0.77540000  1.0 0.089472462
H  H147  1  0.63330000  0.62230000  0.88930000  1.0 0.1101449527
H  H148  1  0.13330000  0.87770000  0.88930000  1.0 0.1101449527
H  H149  1  0.47340000  0.53180000  0.89690000  1.0 0.07085529
H  H150  1  0.97340000  0.96820000  0.89690000  1.0 0.07085529
H  H151  1  0.47490000  0.53330000  0.78220000  1.0 0.0615063181
H  H152  1  0.97490000  0.96670000  0.78220000  1.0 0.0615063181
H  H153  1  0.46480000  0.52050000  0.12640000  1.0 0.1003059374
H  H154  1  0.96480000  0.97950000  0.12640000  1.0 0.1003059374
H  H155  1  0.48590000  0.52850000  0.23560000  1.0 0.089472462
H  H156  1  0.98590000  0.97150000  0.23560000  1.0 0.089472462
H  H157  1  0.62180000  0.62480000  0.19950000  1.0 0.0806636434
H  H158  1  0.12180000  0.87520000  0.19950000  1.0 0.0806636434
H  H159  1  0.59670000  0.62010000  0.08670000  1.0 0.07085529
H  H160  1  0.09670000  0.87990000  0.08670000  1.0 0.07085529
H  H161  1  0.36640000  0.63430000  0.83580000  1.0 0.1003059374
H  H162  1  0.86640000  0.86570000  0.83580000  1.0 0.1003059374
H  H163  1  0.34430000  0.68430000  0.73310000  1.0 0.089472462
H  H164  1  0.84430000  0.81570000  0.73310000  1.0 0.089472462
H  H165  1  0.52910000  0.72950000  0.08120000  1.0 0.1003059374
H  H166  1  0.02910000  0.77050000  0.08120000  1.0 0.1003059374
H  H167  1  0.50930000  0.72040000  0.19250000  1.0 0.1003059374
H  H168  1  0.00930000  0.77960000  0.19250000  1.0 0.1003059374
H  H169  1  0.36170000  0.62890000  0.14440000  1.0 0.0806636434
H  H170  1  0.86170000  0.87110000  0.14440000  1.0 0.0806636434
H  H171  1  0.38910000  0.63740000  0.03270000  1.0 0.0806636434
H  H172  1  0.88910000  0.86260000  0.03270000  1.0 0.0806636434
H  H173  1  0.40220000  0.92610000  0.98660000  1.0 0.2823330901
H  H174  1  0.90220000  0.57390000  0.98660000  1.0 0.2823330901
H  H175  1  0.50610000  0.94220000  0.64790000  1.0 0.2920195825
H  H176  1  0.00610000  0.55780000  0.64790000  1.0 0.2920195825
H  H177  1  0.59760000  0.83390000  0.94080000  1.0 0.2823330901
H  H178  1  0.09760000  0.66610000  0.94080000  1.0 0.2823330901
H  H179  1  0.49490000  0.80470000  0.60050000  1.0 0.3033973269
H  H180  1  0.99490000  0.69530000  0.60050000  1.0 0.3033973269
H  H181  1  0.90810000  0.09510000  0.00830000  1.0 0.2483934156
H  H182  1  0.40810000  0.40490000  0.00830000  1.0 0.2483934156
H  H183  1  0.00440000  0.05550000  0.66840000  1.0 0.2920195825
H  H184  1  0.50440000  0.44450000  0.66840000  1.0 0.2920195825
H  H185  1  0.10870000  0.17540000  0.05590000  1.0 0.2561100714
H  H186  1  0.60870000  0.32460000  0.05590000  1.0 0.2561100714
H  H187  1  0.00310000  0.18670000  0.71550000  1.0 0.2920195825
H  H188  1  0.50310000  0.31330000  0.71550000  1.0 0.2920195825
H  H189  1  0.36620000  0.74880000  0.24630000  1.0 0.1101449527
H  H190  1  0.86620000  0.75120000  0.24630000  1.0 0.1101449527
H  H191  1  0.25790000  0.71830000  0.24210000  1.0 0.1217194722
H  H192  1  0.75790000  0.78170000  0.24210000  1.0 0.1217194722
H  H193  1  0.17980000  0.83620000  0.29670000  1.0 0.1217194722
H  H194  1  0.67980000  0.66380000  0.29670000  1.0 0.1217194722
H  H195  1  0.28870000  0.86570000  0.30580000  1.0 0.1269927315
H  H196  1  0.78870000  0.63430000  0.30580000  1.0 0.1269927315
H  H197  1  0.72920000  0.88620000  0.28630000  1.0 0.1217194722
H  H198  1  0.22920000  0.61380000  0.28630000  1.0 0.1217194722
H  H199  1  0.83210000  0.92420000  0.29500000  1.0 0.1217194722
H  H200  1  0.33210000  0.57580000  0.29500000  1.0 0.1217194722
H  H201  1  0.73550000  0.03860000  0.32500000  1.0 0.1269927315
H  H202  1  0.23550000  0.46140000  0.32500000  1.0 0.1269927315
H  H203  1  0.63130000  0.00170000  0.32230000  1.0 0.1101449527
H  H204  1  0.13130000  0.49830000  0.32230000  1.0 0.1101449527
H  H205  1  0.22640000  0.11220000  0.36930000  1.0 0.1217194722
H  H206  1  0.72640000  0.38780000  0.36930000  1.0 0.1217194722
H  H207  1  0.33040000  0.07640000  0.36040000  1.0 0.1269927315
H  H208  1  0.83040000  0.42360000  0.36040000  1.0 0.1269927315
H  H209  1  0.23670000  0.96350000  0.30550000  1.0 0.1217194722
H  H210  1  0.73670000  0.53650000  0.30550000  1.0 0.1217194722
H  H211  1  0.13240000  0.99850000  0.31210000  1.0 0.1101449527
H  H212  1  0.63240000  0.50150000  0.31210000  1.0 0.1101449527
H  H213  1  0.26750000  0.21130000  0.38880000  1.0 0.1217194722
H  H214  1  0.76750000  0.28870000  0.38880000  1.0 0.1217194722
H  H215  1  0.37440000  0.24440000  0.38640000  1.0 0.1101449527
H  H216  1  0.87440000  0.25560000  0.38640000  1.0 0.1101449527
H  H217  1  0.28750000  0.36320000  0.34960000  1.0 0.1217194722
H  H218  1  0.78750000  0.13680000  0.34960000  1.0 0.1217194722
H  H219  1  0.18070000  0.33160000  0.36200000  1.0 0.1269927315
H  H220  1  0.68070000  0.16840000  0.36200000  1.0 0.1269927315
H  H221  1  0.54500000  0.95400000  0.19680000  1.0 0.1003059374
H  H222  1  0.04500000  0.54600000  0.19680000  1.0 0.1003059374
H  H223  1  0.54420000  0.95530000  0.08270000  1.0 0.1480334665
H  H224  1  0.04420000  0.54470000  0.08270000  1.0 0.1480334665
H  H225  1  0.35030000  0.91280000  0.08850000  1.0 0.1407403839
H  H226  1  0.85030000  0.58720000  0.08850000  1.0 0.1407403839
H  H227  1  0.35770000  0.91120000  0.20150000  1.0 0.1101449527
H  H228  1  0.85770000  0.58880000  0.20150000  1.0 0.1101449527
H  H229  1  0.37090000  0.92080000  0.89670000  1.0 0.1217194722
H  H230  1  0.87090000  0.57920000  0.89670000  1.0 0.1217194722
H  H231  1  0.34460000  0.91490000  0.78310000  1.0 0.1217194722
H  H232  1  0.84460000  0.58510000  0.78310000  1.0 0.1217194722
H  H233  1  0.54060000  0.94100000  0.74210000  1.0 0.1269927315
H  H234  1  0.04060000  0.55900000  0.74210000  1.0 0.1269927315
H  H235  1  0.56360000  0.94800000  0.85460000  1.0 0.1217194722
H  H236  1  0.06360000  0.55200000  0.85460000  1.0 0.1217194722
H  H237  1  0.37020000  0.89310000  0.43890000  1.0 0.1217194722
H  H238  1  0.87020000  0.60690000  0.43890000  1.0 0.1217194722
H  H239  1  0.37220000  0.89220000  0.55220000  1.0 0.1480334665
H  H240  1  0.87220000  0.60780000  0.55220000  1.0 0.1480334665
H  H241  1  0.55000000  0.95780000  0.54830000  1.0 0.1480334665
H  H242  1  0.05000000  0.54220000  0.54830000  1.0 0.1480334665
H  H243  1  0.54450000  0.95600000  0.43490000  1.0 0.1217194722
H  H244  1  0.04450000  0.54400000  0.43490000  1.0 0.1217194722
H  H245  1  0.63840000  0.85190000  0.15540000  1.0 0.1217194722
H  H246  1  0.13840000  0.64810000  0.15540000  1.0 0.1217194722
H  H247  1  0.64480000  0.85270000  0.04390000  1.0 0.1407403839
H  H248  1  0.14480000  0.64730000  0.04390000  1.0 0.1407403839
H  H249  1  0.45110000  0.81120000  0.03470000  1.0 0.1480334665
H  H250  1  0.95110000  0.68880000  0.03470000  1.0 0.1480334665
H  H251  1  0.45160000  0.81170000  0.14880000  1.0 0.1101449527
H  H252  1  0.95160000  0.68830000  0.14880000  1.0 0.1101449527
H  H253  1  0.43140000  0.81080000  0.80440000  1.0 0.1217194722
H  H254  1  0.93140000  0.68920000  0.80440000  1.0 0.1217194722
H  H255  1  0.45630000  0.81470000  0.69200000  1.0 0.1217194722
H  H256  1  0.95630000  0.68530000  0.69200000  1.0 0.1217194722
H  H257  1  0.65000000  0.84320000  0.73450000  1.0 0.1217194722
H  H258  1  0.15000000  0.65680000  0.73450000  1.0 0.1217194722
H  H259  1  0.62710000  0.83570000  0.84830000  1.0 0.1101449527
H  H260  1  0.12710000  0.66430000  0.84830000  1.0 0.1101449527
H  H261  1  0.63680000  0.84780000  0.39420000  1.0 0.1101449527
H  H262  1  0.13680000  0.65220000  0.39420000  1.0 0.1101449527
H  H263  1  0.63080000  0.85300000  0.50980000  1.0 0.1480334665
H  H264  1  0.13080000  0.64700000  0.50980000  1.0 0.1480334665
H  H265  1  0.45850000  0.78000000  0.49870000  1.0 0.1480334665
H  H266  1  0.95850000  0.72000000  0.49870000  1.0 0.1480334665
H  H267  1  0.46880000  0.77930000  0.38480000  1.0 0.1101449527
H  H268  1  0.96880000  0.72070000  0.38480000  1.0 0.1101449527
H  H269  1  0.85570000  0.09700000  0.21670000  1.0 0.1003059374
H  H270  1  0.35570000  0.40300000  0.21670000  1.0 0.1003059374
H  H271  1  0.85420000  0.09630000  0.10860000  1.0 0.1217194722
H  H272  1  0.35420000  0.40370000  0.10860000  1.0 0.1217194722
H  H273  1  0.04680000  0.07020000  0.10070000  1.0 0.0615063181
H  H274  1  0.54680000  0.42980000  0.10070000  1.0 0.0615063181
H  H275  1  0.04770000  0.06290000  0.21410000  1.0 0.07085529
H  H276  1  0.54770000  0.43710000  0.21410000  1.0 0.07085529
H  H277  1  0.06170000  0.06520000  0.87110000  1.0 0.0806636434
H  H278  1  0.56170000  0.43480000  0.87110000  1.0 0.0806636434
H  H279  1  0.03800000  0.06680000  0.76250000  1.0 0.0806636434
H  H280  1  0.53800000  0.43320000  0.76250000  1.0 0.0806636434
H  H281  1  0.84000000  0.08820000  0.80050000  1.0 0.089472462
H  H282  1  0.34000000  0.41180000  0.80050000  1.0 0.089472462
H  H283  1  0.86710000  0.08830000  0.91510000  1.0 0.0615063181
H  H284  1  0.36710000  0.41170000  0.91510000  1.0 0.0615063181
H  H285  1  0.04700000  0.04580000  0.45580000  1.0 0.1003059374
H  H286  1  0.54700000  0.45420000  0.45580000  1.0 0.1003059374
H  H287  1  0.05230000  0.04350000  0.56960000  1.0 0.1407403839
H  H288  1  0.55230000  0.45650000  0.56960000  1.0 0.1407403839
H  H289  1  0.85940000  0.09100000  0.57260000  1.0 0.1480334665
H  H290  1  0.35940000  0.40900000  0.57260000  1.0 0.1480334665
H  H291  1  0.85970000  0.09030000  0.45880000  1.0 0.1101449527
H  H292  1  0.35970000  0.40970000  0.45880000  1.0 0.1101449527
H  H293  1  0.96980000  0.21250000  0.26210000  1.0 0.1101449527
H  H294  1  0.46980000  0.28750000  0.26210000  1.0 0.1101449527
H  H295  1  0.97160000  0.21370000  0.14860000  1.0 0.1480334665
H  H296  1  0.47160000  0.28630000  0.14860000  1.0 0.1480334665
H  H297  1  0.16860000  0.17980000  0.16250000  1.0 0.1101449527
H  H298  1  0.66860000  0.32020000  0.16250000  1.0 0.1101449527
H  H299  1  0.13210000  0.13820000  0.26830000  1.0 0.0806636434
H  H300  1  0.63210000  0.36180000  0.26830000  1.0 0.0806636434
H  H301  1  0.95310000  0.20590000  0.91880000  1.0 0.1003059374
H  H302  1  0.45310000  0.29410000  0.91880000  1.0 0.1003059374
H  H303  1  0.97800000  0.19500000  0.80700000  1.0 0.1101449527
H  H304  1  0.47800000  0.30500000  0.80700000  1.0 0.1101449527
H  H305  1  0.16750000  0.16100000  0.85450000  1.0 0.0806636434
H  H306  1  0.66750000  0.33900000  0.85450000  1.0 0.0806636434
H  H307  1  0.14250000  0.16650000  0.96680000  1.0 0.07085529
H  H308  1  0.64250000  0.33350000  0.96680000  1.0 0.07085529
H  H309  1  0.14430000  0.15240000  0.50700000  1.0 0.1101449527
H  H310  1  0.64430000  0.34760000  0.50700000  1.0 0.1101449527
H  H311  1  0.14630000  0.15320000  0.62390000  1.0 0.1480334665
H  H312  1  0.64630000  0.34680000  0.62390000  1.0 0.1480334665
H  H313  1  0.94930000  0.18980000  0.61660000  1.0 0.1480334665
H  H314  1  0.44930000  0.31020000  0.61660000  1.0 0.1480334665
H  H315  1  0.95280000  0.18790000  0.50250000  1.0 0.1101449527
H  H316  1  0.45280000  0.31210000  0.50250000  1.0 0.1101449527
H  H317  1  0.87580000  0.11890000  0.22460000  1.0 0.089472462
H  H318  1  0.37580000  0.38110000  0.22460000  1.0 0.089472462
H  H319  1  0.86670000  0.12230000  0.11070000  1.0 0.1101449527
H  H320  1  0.36670000  0.37770000  0.11070000  1.0 0.1101449527
H  H321  1  0.02660000  0.03180000  0.10310000  1.0 0.07085529
H  H322  1  0.52660000  0.46820000  0.10310000  1.0 0.07085529
H  H323  1  0.02510000  0.03330000  0.21780000  1.0 0.0615063181
H  H324  1  0.52510000  0.46670000  0.21780000  1.0 0.0615063181
H  H325  1  0.03520000  0.02050000  0.87360000  1.0 0.1003059374
H  H326  1  0.53520000  0.47950000  0.87360000  1.0 0.1003059374
H  H327  1  0.01410000  0.02850000  0.76440000  1.0 0.089472462
H  H328  1  0.51410000  0.47150000  0.76440000  1.0 0.089472462
H  H329  1  0.87820000  0.12480000  0.80050000  1.0 0.0806636434
H  H330  1  0.37820000  0.37520000  0.80050000  1.0 0.0806636434
H  H331  1  0.90330000  0.12010000  0.91330000  1.0 0.07085529
H  H332  1  0.40330000  0.37990000  0.91330000  1.0 0.07085529
H  H333  1  0.13360000  0.13430000  0.16420000  1.0 0.1003059374
H  H334  1  0.63360000  0.36570000  0.16420000  1.0 0.1003059374
H  H335  1  0.15570000  0.18430000  0.26690000  1.0 0.089472462
H  H336  1  0.65570000  0.31570000  0.26690000  1.0 0.089472462
H  H337  1  0.97090000  0.22950000  0.91880000  1.0 0.1003059374
H  H338  1  0.47090000  0.27050000  0.91880000  1.0 0.1003059374
H  H339  1  0.99070000  0.22040000  0.80750000  1.0 0.1003059374
H  H340  1  0.49070000  0.27960000  0.80750000  1.0 0.1003059374
H  H341  1  0.13830000  0.12890000  0.85560000  1.0 0.0806636434
H  H342  1  0.63830000  0.37110000  0.85560000  1.0 0.0806636434
H  H343  1  0.11090000  0.13740000  0.96730000  1.0 0.0806636434
H  H344  1  0.61090000  0.36260000  0.96730000  1.0 0.0806636434
C  C1  1  0.16160000  0.31000000  0.72320000  1.0 -0.0305243474
C  C2  1  0.66160000  0.19000000  0.72320000  1.0 -0.0305243474
C  C3  1  0.17170000  0.26640000  0.74240000  1.0 -0.1165143557
C  C4  1  0.67170000  0.23360000  0.74240000  1.0 -0.1165143557
C  C5  1  0.23610000  0.24830000  0.74540000  1.0 -0.0937674053
C  C6  1  0.73610000  0.25170000  0.74540000  1.0 -0.0937674053
C  C7  1  0.29180000  0.27410000  0.73010000  1.0 -0.0081059028
C  C8  1  0.79180000  0.22590000  0.73010000  1.0 -0.0081059028
C  C9  1  0.28210000  0.31810000  0.71240000  1.0 -0.1107827512
C  C10  1  0.78210000  0.18190000  0.71240000  1.0 -0.1107827512
C  C11  1  0.21740000  0.33590000  0.70780000  1.0 -0.1013497723
C  C12  1  0.71740000  0.16410000  0.70780000  1.0 -0.1013497723
C  C13  1  0.09110000  0.32680000  0.71510000  1.0 0.5642793767
C  C14  1  0.59110000  0.17320000  0.71510000  1.0 0.5642793767
C  C15  1  0.36280000  0.25470000  0.73080000  1.0 0.5511355989
C  C16  1  0.86280000  0.24530000  0.73080000  1.0 0.5511355989
C  C17  1  0.83070000  0.44040000  0.69750000  1.0 -0.0401054895
C  C18  1  0.33070000  0.05960000  0.69750000  1.0 -0.0401054895
C  C19  1  0.77020000  0.41700000  0.70510000  1.0 -0.1013497723
C  C20  1  0.27020000  0.08300000  0.70510000  1.0 -0.1013497723
C  C21  1  0.70910000  0.43990000  0.69960000  1.0 -0.1013497723
C  C22  1  0.20910000  0.06010000  0.69960000  1.0 -0.1013497723
C  C23  1  0.70660000  0.48370000  0.68700000  1.0 -0.0081059028
C  C24  1  0.20660000  0.01630000  0.68700000  1.0 -0.0081059028
C  C25  1  0.76600000  0.50750000  0.68120000  1.0 -0.0937674053
C  C26  1  0.26600000  0.99250000  0.68120000  1.0 -0.0937674053
C  C27  1  0.82800000  0.48570000  0.68440000  1.0 -0.1107827512
C  C28  1  0.32800000  0.01430000  0.68440000  1.0 -0.1107827512
C  C29  1  0.89790000  0.41800000  0.70060000  1.0 0.5663572542
C  C30  1  0.39790000  0.08200000  0.70060000  1.0 0.5663572542
C  C31  1  0.63910000  0.50680000  0.67830000  1.0 0.5440043799
C  C32  1  0.13910000  0.99320000  0.67830000  1.0 0.5440043799
C  C33  1  0.33200000  0.55850000  0.65650000  1.0 -0.0401054895
C  C34  1  0.83200000  0.94150000  0.65650000  1.0 -0.0401054895
C  C35  1  0.27190000  0.58200000  0.64330000  1.0 -0.1107827512
C  C36  1  0.77190000  0.91800000  0.64330000  1.0 -0.1107827512
C  C37  1  0.21030000  0.56070000  0.64900000  1.0 -0.1107827512
C  C38  1  0.71030000  0.93930000  0.64900000  1.0 -0.1107827512
C  C39  1  0.20700000  0.51660000  0.66810000  1.0 -0.0081059028
C  C40  1  0.70700000  0.98340000  0.66810000  1.0 -0.0081059028
C  C41  1  0.26550000  0.49370000  0.68180000  1.0 -0.0937674053
C  C42  1  0.76550000  0.00630000  0.68180000  1.0 -0.0937674053
C  C43  1  0.32740000  0.51430000  0.67710000  1.0 -0.1344624467
C  C44  1  0.82740000  0.98570000  0.67710000  1.0 -0.1344624467
C  C45  1  0.40020000  0.57880000  0.64850000  1.0 0.5511355989
C  C46  1  0.90020000  0.92120000  0.64850000  1.0 0.5511355989
C  C47  1  0.13830000  0.49350000  0.66940000  1.0 0.5511355989
C  C48  1  0.63830000  0.00650000  0.66940000  1.0 0.5511355989
C  C49  1  0.28690000  0.76860000  0.62260000  1.0 -0.0204058793
C  C50  1  0.78690000  0.73140000  0.62260000  1.0 -0.0204058793
C  C51  1  0.22850000  0.74230000  0.61700000  1.0 -0.1107827512
C  C52  1  0.72850000  0.75770000  0.61700000  1.0 -0.1107827512
C  C53  1  0.16510000  0.76180000  0.61990000  1.0 -0.1107827512
C  C54  1  0.66510000  0.73820000  0.61990000  1.0 -0.1107827512
C  C55  1  0.15930000  0.80660000  0.63200000  1.0 -0.0204058793
C  C56  1  0.65930000  0.69340000  0.63200000  1.0 -0.0204058793
C  C57  1  0.21670000  0.83270000  0.64050000  1.0 -0.1107827512
C  C58  1  0.71670000  0.66730000  0.64050000  1.0 -0.1107827512
C  C59  1  0.28000000  0.81370000  0.63430000  1.0 -0.1013497723
C  C60  1  0.78000000  0.68630000  0.63430000  1.0 -0.1013497723
C  C61  1  0.35550000  0.74820000  0.61440000  1.0 0.5511355989
C  C62  1  0.85550000  0.75180000  0.61440000  1.0 0.5511355989
C  C63  1  0.08960000  0.82670000  0.63460000  1.0 0.5663572542
C  C64  1  0.58960000  0.67330000  0.63460000  1.0 0.5663572542
C  C65  1  0.99540000  0.44540000  0.82580000  1.0 0.1003059374
C  C66  1  0.49540000  0.05460000  0.82580000  1.0 0.1003059374
C  C67  1  0.99520000  0.44660000  0.89410000  1.0 -0.2310601942
C  C68  1  0.49520000  0.05340000  0.89410000  1.0 -0.2310601942
C  C69  1  0.05290000  0.43480000  0.92780000  1.0 0.2698032457
C  C70  1  0.55290000  0.06520000  0.92780000  1.0 0.2698032457
C  C71  1  0.10880000  0.42140000  0.89000000  1.0 -0.2481676981
C  C72  1  0.60880000  0.07860000  0.89000000  1.0 -0.2481676981
C  C73  1  0.10420000  0.42080000  0.82290000  1.0 0.07085529
C  C74  1  0.60420000  0.07920000  0.82290000  1.0 0.07085529
C  C75  1  0.01190000  0.44010000  0.04230000  1.0 0.4520158462
C  C76  1  0.51190000  0.05990000  0.04230000  1.0 0.4520158462
C  C77  1  0.03110000  0.43660000  0.11360000  1.0 -0.0305243474
C  C78  1  0.53110000  0.06340000  0.11360000  1.0 -0.0305243474
C  C79  1  0.09470000  0.42560000  0.13500000  1.0 -0.1418140873
C  C80  1  0.59470000  0.07440000  0.13500000  1.0 -0.1418140873
C  C81  1  0.11050000  0.42120000  0.20250000  1.0 -0.1013497723
C  C82  1  0.61050000  0.07880000  0.20250000  1.0 -0.1013497723
C  C83  1  0.05680000  0.42660000  0.24970000  1.0 -0.0204058793
C  C84  1  0.55680000  0.07340000  0.24970000  1.0 -0.0204058793
C  C85  1  0.99490000  0.43680000  0.22720000  1.0 -0.0937674053
C  C86  1  0.49490000  0.06320000  0.22720000  1.0 -0.0937674053
C  C87  1  0.98120000  0.44140000  0.15980000  1.0 -0.1013497723
C  C88  1  0.48120000  0.05860000  0.15980000  1.0 -0.1013497723
C  C89  1  0.07990000  0.41800000  0.31990000  1.0 0.466597899
C  C90  1  0.57990000  0.08200000  0.31990000  1.0 0.466597899
C  C91  1  0.09210000  0.40610000  0.53880000  1.0 0.089472462
C  C92  1  0.59210000  0.09390000  0.53880000  1.0 0.089472462
C  C93  1  0.09220000  0.40620000  0.47110000  1.0 -0.2310601942
C  C94  1  0.59220000  0.09380000  0.47110000  1.0 -0.2310601942
C  C95  1  0.04140000  0.42630000  0.43740000  1.0 0.2698032457
C  C96  1  0.54140000  0.07370000  0.43740000  1.0 0.2698032457
C  C97  1  0.98770000  0.44460000  0.47370000  1.0 -0.2310601942
C  C98  1  0.48770000  0.05540000  0.47370000  1.0 -0.2310601942
C  C99  1  0.99110000  0.44270000  0.54090000  1.0 0.07085529
C  C100  1  0.49110000  0.05730000  0.54090000  1.0 0.07085529
C  C101  1  0.90030000  0.34280000  0.86960000  1.0 0.07085529
C  C102  1  0.40030000  0.15720000  0.86960000  1.0 0.07085529
C  C103  1  0.89600000  0.34360000  0.93590000  1.0 -0.2481676981
C  C104  1  0.39600000  0.15640000  0.93590000  1.0 -0.2481676981
C  C105  1  0.95180000  0.33110000  0.97550000  1.0 0.2698032457
C  C106  1  0.45180000  0.16890000  0.97550000  1.0 0.2698032457
C  C107  1  0.00880000  0.31940000  0.94180000  1.0 -0.2481676981
C  C108  1  0.50880000  0.18060000  0.94180000  1.0 -0.2481676981
C  C109  1  0.00780000  0.31970000  0.87310000  1.0 0.0615063181
C  C110  1  0.50780000  0.18030000  0.87310000  1.0 0.0615063181
C  C111  1  0.99360000  0.32170000  0.09040000  1.0 0.4608001403
C  C112  1  0.49360000  0.17830000  0.09040000  1.0 0.4608001403
C  C113  1  0.97280000  0.32340000  0.16030000  1.0 -0.0305243474
C  C114  1  0.47280000  0.17660000  0.16030000  1.0 -0.0305243474
C  C115  1  0.02350000  0.31690000  0.20880000  1.0 -0.0810389908
C  C116  1  0.52350000  0.18310000  0.20880000  1.0 -0.0810389908
C  C117  1  0.00870000  0.31920000  0.27600000  1.0 -0.1165143557
C  C118  1  0.50870000  0.18080000  0.27600000  1.0 -0.1165143557
C  C119  1  0.94460000  0.32780000  0.29640000  1.0 -0.0081059028
C  C120  1  0.44460000  0.17220000  0.29640000  1.0 -0.0081059028
C  C121  1  0.89420000  0.33550000  0.25130000  1.0 -0.1107827512
C  C122  1  0.39420000  0.16450000  0.25130000  1.0 -0.1107827512
C  C123  1  0.90880000  0.33200000  0.18310000  1.0 -0.1418140873
C  C124  1  0.40880000  0.16800000  0.18310000  1.0 -0.1418140873
C  C125  1  0.92260000  0.33420000  0.36830000  1.0 0.466597899
C  C126  1  0.42260000  0.16580000  0.36830000  1.0 0.466597899
C  C127  1  0.90140000  0.33570000  0.58410000  1.0 0.089472462
C  C128  1  0.40140000  0.16430000  0.58410000  1.0 0.089472462
C  C129  1  0.90340000  0.33790000  0.51450000  1.0 -0.2405071527
C  C130  1  0.40340000  0.16210000  0.51450000  1.0 -0.2405071527
C  C131  1  0.95610000  0.31750000  0.48250000  1.0 0.2823330901
C  C132  1  0.45610000  0.18250000  0.48250000  1.0 0.2823330901
C  C133  1  0.00500000  0.29510000  0.52160000  1.0 -0.2481676981
C  C134  1  0.50500000  0.20490000  0.52160000  1.0 -0.2481676981
C  C135  1  0.99900000  0.29550000  0.58960000  1.0 0.1003059374
C  C136  1  0.49900000  0.20450000  0.58960000  1.0 0.1003059374
C  C137  1  0.60390000  0.58940000  0.80570000  1.0 -0.0502268695
C  C138  1  0.10390000  0.91060000  0.80570000  1.0 -0.0502268695
C  C139  1  0.60400000  0.58990000  0.86980000  1.0 -0.1013497723
C  C140  1  0.10400000  0.91010000  0.86980000  1.0 -0.1013497723
C  C141  1  0.55120000  0.58220000  0.90840000  1.0 0.1217194722
C  C142  1  0.05120000  0.91780000  0.90840000  1.0 0.1217194722
C  C143  1  0.49410000  0.57400000  0.87570000  1.0 -0.0810389908
C  C144  1  0.99410000  0.92600000  0.87570000  1.0 -0.0810389908
C  C145  1  0.49380000  0.57090000  0.80710000  1.0 0.0181461352
C  C146  1  0.99380000  0.92910000  0.80710000  1.0 0.0181461352
C  C147  1  0.51230000  0.56830000  0.02250000  1.0 0.235486257
C  C148  1  0.01230000  0.93170000  0.02250000  1.0 0.235486257
C  C149  1  0.52960000  0.57240000  0.09250000  1.0 -0.0081059028
C  C150  1  0.02960000  0.92760000  0.09250000  1.0 -0.0081059028
C  C151  1  0.48440000  0.56900000  0.14170000  1.0 -0.06013463
C  C152  1  0.98440000  0.93100000  0.14170000  1.0 -0.06013463
C  C153  1  0.49790000  0.57060000  0.20710000  1.0 -0.0502268695
C  C154  1  0.99790000  0.92940000  0.20710000  1.0 -0.0502268695
C  C155  1  0.55770000  0.57700000  0.22930000  1.0 -0.0204058793
C  C156  1  0.05770000  0.92300000  0.22930000  1.0 -0.0204058793
C  C157  1  0.61500000  0.58360000  0.18380000  1.0 -0.0401054895
C  C158  1  0.11500000  0.91640000  0.18380000  1.0 -0.0401054895
C  C159  1  0.59860000  0.58250000  0.11630000  1.0 -0.0401054895
C  C160  1  0.09860000  0.91750000  0.11630000  1.0 -0.0401054895
C  C161  1  0.58180000  0.58150000  0.30120000  1.0 0.3689440958
C  C162  1  0.08180000  0.91850000  0.30120000  1.0 0.3689440958
C  C163  1  0.49150000  0.55490000  0.51980000  1.0 0.1003059374
C  C164  1  0.99150000  0.94510000  0.51980000  1.0 0.1003059374
C  C165  1  0.48780000  0.55360000  0.45210000  1.0 -0.2574934073
C  C166  1  0.98780000  0.94640000  0.45210000  1.0 -0.2574934073
C  C167  1  0.54400000  0.56730000  0.41460000  1.0 0.3086377375
C  C168  1  0.04400000  0.93270000  0.41460000  1.0 0.3086377375
C  C169  1  0.60140000  0.58140000  0.45020000  1.0 -0.2405071527
C  C170  1  0.10140000  0.91860000  0.45020000  1.0 -0.2405071527
C  C171  1  0.60070000  0.58110000  0.51780000  1.0 0.0806636434
C  C172  1  0.10070000  0.91890000  0.51780000  1.0 0.0806636434
C  C173  1  0.49230000  0.69970000  0.75920000  1.0 -0.0502268695
C  C174  1  0.99230000  0.80030000  0.75920000  1.0 -0.0502268695
C  C175  1  0.49130000  0.70130000  0.82750000  1.0 -0.2839923508
C  C176  1  0.99130000  0.79870000  0.82750000  1.0 -0.2839923508
C  C177  1  0.43680000  0.68500000  0.86030000  1.0 0.1860165812
C  C178  1  0.93680000  0.81500000  0.86030000  1.0 0.1860165812
C  C179  1  0.37610000  0.67640000  0.82150000  1.0 -0.0081059028
C  C180  1  0.87610000  0.82360000  0.82150000  1.0 -0.0081059028
C  C181  1  0.39270000  0.66130000  0.75270000  1.0 0.0181461352
C  C182  1  0.89270000  0.83870000  0.75270000  1.0 0.0181461352
C  C183  1  0.47810000  0.69370000  0.97490000  1.0 0.2483934156
C  C184  1  0.97810000  0.80630000  0.97490000  1.0 0.2483934156
C  C185  1  0.45600000  0.68900000  0.04650000  1.0 -0.0028154592
C  C186  1  0.95600000  0.81100000  0.04650000  1.0 -0.0028154592
C  C187  1  0.50300000  0.69610000  0.09320000  1.0 -0.0810389908
C  C188  1  0.00300000  0.80390000  0.09320000  1.0 -0.0810389908
C  C189  1  0.48760000  0.68900000  0.16090000  1.0 -0.0700856534
C  C190  1  0.98760000  0.81100000  0.16090000  1.0 -0.0700856534
C  C191  1  0.43070000  0.67520000  0.18120000  1.0 -0.0081059028
C  C192  1  0.93070000  0.82480000  0.18120000  1.0 -0.0081059028
C  C193  1  0.37690000  0.66860000  0.13190000  1.0 -0.0401054895
C  C194  1  0.87690000  0.83140000  0.13190000  1.0 -0.0401054895
C  C195  1  0.39090000  0.67340000  0.06580000  1.0 -0.0502268695
C  C196  1  0.89090000  0.82660000  0.06580000  1.0 -0.0502268695
C  C197  1  0.41010000  0.66650000  0.25200000  1.0 0.3689440958
C  C198  1  0.91010000  0.83350000  0.25200000  1.0 0.3617985539
C  C199  1  0.39570000  0.66040000  0.47020000  1.0 0.1003059374
C  C200  1  0.89570000  0.83960000  0.47020000  1.0 0.1003059374
C  C201  1  0.39390000  0.66080000  0.39980000  1.0 -0.2405071527
C  C202  1  0.89390000  0.83920000  0.39980000  1.0 -0.2405071527
C  C203  1  0.45010000  0.67230000  0.36760000  1.0 0.2698032457
C  C204  1  0.95010000  0.82770000  0.36760000  1.0 0.2698032457
C  C205  1  0.50980000  0.68230000  0.40510000  1.0 -0.2310601942
C  C206  1  0.00980000  0.81770000  0.40510000  1.0 -0.2310601942
C  C207  1  0.50730000  0.68110000  0.47290000  1.0 0.0806636434
C  C208  1  0.00730000  0.81890000  0.47290000  1.0 0.0806636434
C  C209  1  0.59290000  0.60240000  0.80090000  1.0 0.0040095143
C  C210  1  0.09290000  0.89760000  0.80090000  1.0 0.0040095143
C  C211  1  0.59840000  0.60520000  0.86910000  1.0 -0.0937674053
C  C212  1  0.09840000  0.89480000  0.86910000  1.0 -0.0937674053
C  C213  1  0.50300000  0.55090000  0.87350000  1.0 -0.06013463
C  C214  1  0.00300000  0.94910000  0.87350000  1.0 -0.06013463
C  C215  1  0.50520000  0.55220000  0.80570000  1.0 0.0142992094
C  C216  1  0.00520000  0.94780000  0.80570000  1.0 0.0142992094
C  C217  1  0.49580000  0.54240000  0.14140000  1.0 -0.0401054895
C  C218  1  0.99580000  0.95760000  0.14140000  1.0 -0.0401054895
C  C219  1  0.50940000  0.54650000  0.20500000  1.0 -0.0502268695
C  C220  1  0.00940000  0.95350000  0.20500000  1.0 -0.0502268695
C  C221  1  0.58930000  0.60390000  0.18430000  1.0 -0.0700856534
C  C222  1  0.08930000  0.89610000  0.18430000  1.0 -0.0700856534
C  C223  1  0.57420000  0.60090000  0.11650000  1.0 -0.0700856534
C  C224  1  0.07420000  0.89910000  0.11650000  1.0 -0.0700856534
C  C225  1  0.39070000  0.65930000  0.82050000  1.0 -0.0502268695
C  C226  1  0.89070000  0.84070000  0.82050000  1.0 -0.0502268695
C  C227  1  0.38650000  0.67690000  0.75330000  1.0 0.0377152899
C  C228  1  0.88650000  0.82310000  0.75330000  1.0 0.0377152899
C  C229  1  0.49390000  0.71020000  0.09460000  1.0 -0.0810389908
C  C230  1  0.99390000  0.78980000  0.09460000  1.0 -0.0810389908
C  C231  1  0.48280000  0.70480000  0.16060000  1.0 -0.0700856534
C  C232  1  0.98280000  0.79520000  0.16060000  1.0 -0.0700856534
C  C233  1  0.39510000  0.64970000  0.13170000  1.0 -0.06013463
C  C234  1  0.89510000  0.85030000  0.13170000  1.0 -0.06013463
C  C235  1  0.40990000  0.65570000  0.06540000  1.0 -0.06013463
C  C236  1  0.90990000  0.84430000  0.06540000  1.0 -0.06013463
C  C237  1  0.33840000  0.81000000  0.27680000  1.0 -0.0305243474
C  C238  1  0.83840000  0.69000000  0.27680000  1.0 -0.0305243474
C  C239  1  0.32830000  0.76640000  0.25760000  1.0 -0.1165143557
C  C240  1  0.82830000  0.73360000  0.25760000  1.0 -0.1165143557
C  C241  1  0.26390000  0.74830000  0.25460000  1.0 -0.0937674053
C  C242  1  0.76390000  0.75170000  0.25460000  1.0 -0.0937674053
C  C243  1  0.20820000  0.77410000  0.26990000  1.0 -0.0081059028
C  C244  1  0.70820000  0.72590000  0.26990000  1.0 -0.0081059028
C  C245  1  0.21790000  0.81810000  0.28760000  1.0 -0.1107827512
C  C246  1  0.71790000  0.68190000  0.28760000  1.0 -0.1107827512
C  C247  1  0.28260000  0.83590000  0.29220000  1.0 -0.1013497723
C  C248  1  0.78260000  0.66410000  0.29220000  1.0 -0.1013497723
C  C249  1  0.40890000  0.82680000  0.28490000  1.0 0.5642793767
C  C250  1  0.90890000  0.67320000  0.28490000  1.0 0.5642793767
C  C251  1  0.13720000  0.75470000  0.26920000  1.0 0.5511355989
C  C252  1  0.63720000  0.74530000  0.26920000  1.0 0.5511355989
C  C253  1  0.66930000  0.94040000  0.30250000  1.0 -0.0401054895
C  C254  1  0.16930000  0.55960000  0.30250000  1.0 -0.0401054895
C  C255  1  0.72980000  0.91700000  0.29490000  1.0 -0.1013497723
C  C256  1  0.22980000  0.58300000  0.29490000  1.0 -0.1013497723
C  C257  1  0.79090000  0.93990000  0.30040000  1.0 -0.1013497723
C  C258  1  0.29090000  0.56010000  0.30040000  1.0 -0.1013497723
C  C259  1  0.79340000  0.98370000  0.31300000  1.0 -0.0081059028
C  C260  1  0.29340000  0.51630000  0.31300000  1.0 -0.0081059028
C  C261  1  0.73400000  0.00750000  0.31880000  1.0 -0.0937674053
C  C262  1  0.23400000  0.49250000  0.31880000  1.0 -0.0937674053
C  C263  1  0.67200000  0.98570000  0.31560000  1.0 -0.1107827512
C  C264  1  0.17200000  0.51430000  0.31560000  1.0 -0.1107827512
C  C265  1  0.60210000  0.91800000  0.29940000  1.0 0.5663572542
C  C266  1  0.10210000  0.58200000  0.29940000  1.0 0.5663572542
C  C267  1  0.86090000  0.00680000  0.32170000  1.0 0.5440043799
C  C268  1  0.36090000  0.49320000  0.32170000  1.0 0.5440043799
C  C269  1  0.16800000  0.05850000  0.34350000  1.0 -0.0401054895
C  C270  1  0.66800000  0.44150000  0.34350000  1.0 -0.0401054895
C  C271  1  0.22810000  0.08200000  0.35670000  1.0 -0.1107827512
C  C272  1  0.72810000  0.41800000  0.35670000  1.0 -0.1107827512
C  C273  1  0.28970000  0.06070000  0.35100000  1.0 -0.1107827512
C  C274  1  0.78970000  0.43930000  0.35100000  1.0 -0.1107827512
C  C275  1  0.29300000  0.01660000  0.33190000  1.0 -0.0081059028
C  C276  1  0.79300000  0.48340000  0.33190000  1.0 -0.0081059028
C  C277  1  0.23450000  0.99370000  0.31820000  1.0 -0.0937674053
C  C278  1  0.73450000  0.50630000  0.31820000  1.0 -0.0937674053
C  C279  1  0.17260000  0.01430000  0.32290000  1.0 -0.1344624467
C  C280  1  0.67260000  0.48570000  0.32290000  1.0 -0.1344624467
C  C281  1  0.09980000  0.07880000  0.35150000  1.0 0.5511355989
C  C282  1  0.59980000  0.42120000  0.35150000  1.0 0.5511355989
C  C283  1  0.36170000  0.99350000  0.33060000  1.0 0.5511355989
C  C284  1  0.86170000  0.50650000  0.33060000  1.0 0.5511355989
C  C285  1  0.21310000  0.26860000  0.37740000  1.0 -0.0204058793
C  C286  1  0.71310000  0.23140000  0.37740000  1.0 -0.0204058793
C  C287  1  0.27150000  0.24230000  0.38300000  1.0 -0.1107827512
C  C288  1  0.77150000  0.25770000  0.38300000  1.0 -0.1107827512
C  C289  1  0.33490000  0.26180000  0.38010000  1.0 -0.1107827512
C  C290  1  0.83490000  0.23820000  0.38010000  1.0 -0.1107827512
C  C291  1  0.34070000  0.30660000  0.36800000  1.0 -0.0204058793
C  C292  1  0.84070000  0.19340000  0.36800000  1.0 -0.0204058793
C  C293  1  0.28330000  0.33270000  0.35950000  1.0 -0.1107827512
C  C294  1  0.78330000  0.16730000  0.35950000  1.0 -0.1107827512
C  C295  1  0.22000000  0.31370000  0.36570000  1.0 -0.1013497723
C  C296  1  0.72000000  0.18630000  0.36570000  1.0 -0.1013497723
C  C297  1  0.14450000  0.24820000  0.38560000  1.0 0.5511355989
C  C298  1  0.64450000  0.25180000  0.38560000  1.0 0.5511355989
C  C299  1  0.41040000  0.32670000  0.36540000  1.0 0.5663572542
C  C300  1  0.91040000  0.17330000  0.36540000  1.0 0.5663572542
C  C301  1  0.50460000  0.94540000  0.17420000  1.0 0.1003059374
C  C302  1  0.00460000  0.55460000  0.17420000  1.0 0.1003059374
C  C303  1  0.50480000  0.94660000  0.10590000  1.0 -0.2310601942
C  C304  1  0.00480000  0.55340000  0.10590000  1.0 -0.2310601942
C  C305  1  0.44710000  0.93480000  0.07220000  1.0 0.2698032457
C  C306  1  0.94710000  0.56520000  0.07220000  1.0 0.2698032457
C  C307  1  0.39120000  0.92140000  0.11000000  1.0 -0.2481676981
C  C308  1  0.89120000  0.57860000  0.11000000  1.0 -0.2481676981
C  C309  1  0.39580000  0.92080000  0.17710000  1.0 0.07085529
C  C310  1  0.89580000  0.57920000  0.17710000  1.0 0.07085529
C  C311  1  0.48810000  0.94010000  0.95770000  1.0 0.4520158462
C  C312  1  0.98810000  0.55990000  0.95770000  1.0 0.4520158462
C  C313  1  0.46890000  0.93660000  0.88640000  1.0 -0.0204058793
C  C314  1  0.96890000  0.56340000  0.88640000  1.0 -0.0305243474
C  C315  1  0.40530000  0.92560000  0.86500000  1.0 -0.1418140873
C  C316  1  0.90530000  0.57440000  0.86500000  1.0 -0.1418140873
C  C317  1  0.38950000  0.92120000  0.79750000  1.0 -0.1013497723
C  C318  1  0.88950000  0.57880000  0.79750000  1.0 -0.1013497723
C  C319  1  0.44320000  0.92660000  0.75030000  1.0 -0.0204058793
C  C320  1  0.94320000  0.57340000  0.75030000  1.0 -0.0204058793
C  C321  1  0.50510000  0.93680000  0.77280000  1.0 -0.0937674053
C  C322  1  0.00510000  0.56320000  0.77280000  1.0 -0.0937674053
C  C323  1  0.51880000  0.94140000  0.84020000  1.0 -0.1013497723
C  C324  1  0.01880000  0.55860000  0.84020000  1.0 -0.1013497723
C  C325  1  0.42010000  0.91800000  0.68010000  1.0 0.466597899
C  C326  1  0.92010000  0.58200000  0.68010000  1.0 0.466597899
C  C327  1  0.40790000  0.90610000  0.46120000  1.0 0.089472462
C  C328  1  0.90790000  0.59390000  0.46120000  1.0 0.089472462
C  C329  1  0.40780000  0.90620000  0.52890000  1.0 -0.2310601942
C  C330  1  0.90780000  0.59380000  0.52890000  1.0 -0.2310601942
C  C331  1  0.45860000  0.92630000  0.56260000  1.0 0.2698032457
C  C332  1  0.95860000  0.57370000  0.56260000  1.0 0.2698032457
C  C333  1  0.51230000  0.94460000  0.52630000  1.0 -0.2310601942
C  C334  1  0.01230000  0.55540000  0.52630000  1.0 -0.2310601942
C  C335  1  0.50890000  0.94270000  0.45910000  1.0 0.07085529
C  C336  1  0.00890000  0.55730000  0.45910000  1.0 0.07085529
C  C337  1  0.59970000  0.84280000  0.13040000  1.0 0.07085529
C  C338  1  0.09970000  0.65720000  0.13040000  1.0 0.07085529
C  C339  1  0.60400000  0.84360000  0.06410000  1.0 -0.2481676981
C  C340  1  0.10400000  0.65640000  0.06410000  1.0 -0.2481676981
C  C341  1  0.54820000  0.83110000  0.02450000  1.0 0.2698032457
C  C342  1  0.04820000  0.66890000  0.02450000  1.0 0.2698032457
C  C343  1  0.49120000  0.81940000  0.05820000  1.0 -0.2481676981
C  C344  1  0.99120000  0.68060000  0.05820000  1.0 -0.2481676981
C  C345  1  0.49220000  0.81970000  0.12690000  1.0 0.0615063181
C  C346  1  0.99220000  0.68030000  0.12690000  1.0 0.0615063181
C  C347  1  0.50640000  0.82170000  0.90960000  1.0 0.4608001403
C  C348  1  0.00640000  0.67830000  0.90960000  1.0 0.4608001403
C  C349  1  0.52720000  0.82340000  0.83970000  1.0 -0.0305243474
C  C350  1  0.02720000  0.67660000  0.83970000  1.0 -0.0305243474
C  C351  1  0.47650000  0.81690000  0.79120000  1.0 -0.0810389908
C  C352  1  0.97650000  0.68310000  0.79120000  1.0 -0.0810389908
C  C353  1  0.49130000  0.81920000  0.72400000  1.0 -0.1165143557
C  C354  1  0.99130000  0.68080000  0.72400000  1.0 -0.1165143557
C  C355  1  0.55540000  0.82780000  0.70360000  1.0 -0.0081059028
C  C356  1  0.05540000  0.67220000  0.70360000  1.0 -0.0081059028
C  C357  1  0.60580000  0.83550000  0.74870000  1.0 -0.1107827512
C  C358  1  0.10580000  0.66450000  0.74870000  1.0 -0.1107827512
C  C359  1  0.59120000  0.83200000  0.81690000  1.0 -0.1418140873
C  C360  1  0.09120000  0.66800000  0.81690000  1.0 -0.1418140873
C  C361  1  0.57740000  0.83420000  0.63170000  1.0 0.466597899
C  C362  1  0.07740000  0.66580000  0.63170000  1.0 0.466597899
C  C363  1  0.59860000  0.83570000  0.41590000  1.0 0.089472462
C  C364  1  0.09860000  0.66430000  0.41590000  1.0 0.089472462
C  C365  1  0.59660000  0.83790000  0.48550000  1.0 -0.2405071527
C  C366  1  0.09660000  0.66210000  0.48550000  1.0 -0.2405071527
C  C367  1  0.54390000  0.81750000  0.51750000  1.0 0.2823330901
C  C368  1  0.04390000  0.68250000  0.51750000  1.0 0.2823330901
C  C369  1  0.49500000  0.79510000  0.47840000  1.0 -0.2481676981
C  C370  1  0.99500000  0.70490000  0.47840000  1.0 -0.2481676981
C  C371  1  0.50100000  0.79550000  0.41040000  1.0 0.1003059374
C  C372  1  0.00100000  0.70450000  0.41040000  1.0 0.1003059374
C  C373  1  0.89610000  0.08940000  0.19430000  1.0 -0.0502268695
C  C374  1  0.39610000  0.41060000  0.19430000  1.0 -0.0502268695
C  C375  1  0.89600000  0.08990000  0.13020000  1.0 -0.1013497723
C  C376  1  0.39600000  0.41010000  0.13020000  1.0 -0.1013497723
C  C377  1  0.94880000  0.08220000  0.09160000  1.0 0.1217194722
C  C378  1  0.44880000  0.41780000  0.09160000  1.0 0.1217194722
C  C379  1  0.00590000  0.07400000  0.12430000  1.0 -0.0810389908
C  C380  1  0.50590000  0.42600000  0.12430000  1.0 -0.0810389908
C  C381  1  0.00620000  0.07090000  0.19290000  1.0 0.0181461352
C  C382  1  0.50620000  0.42910000  0.19290000  1.0 0.0181461352
C  C383  1  0.98770000  0.06830000  0.97750000  1.0 0.235486257
C  C384  1  0.48770000  0.43170000  0.97750000  1.0 0.235486257
C  C385  1  0.97040000  0.07240000  0.90750000  1.0 -0.0081059028
C  C386  1  0.47040000  0.42760000  0.90750000  1.0 -0.0081059028
C  C387  1  0.01560000  0.06900000  0.85830000  1.0 -0.06013463
C  C388  1  0.51560000  0.43100000  0.85830000  1.0 -0.06013463
C  C389  1  0.00210000  0.07060000  0.79290000  1.0 -0.0502268695
C  C390  1  0.50210000  0.42940000  0.79290000  1.0 -0.0502268695
C  C391  1  0.94230000  0.07700000  0.77070000  1.0 -0.0204058793
C  C392  1  0.44230000  0.42300000  0.77070000  1.0 -0.0204058793
C  C393  1  0.88500000  0.08360000  0.81620000  1.0 -0.0401054895
C  C394  1  0.38500000  0.41640000  0.81620000  1.0 -0.0401054895
C  C395  1  0.90140000  0.08250000  0.88370000  1.0 -0.0401054895
C  C396  1  0.40140000  0.41750000  0.88370000  1.0 -0.0401054895
C  C397  1  0.91820000  0.08150000  0.69880000  1.0 0.3689440958
C  C398  1  0.41820000  0.41850000  0.69880000  1.0 0.3689440958
C  C399  1  0.00850000  0.05490000  0.48020000  1.0 0.1003059374
C  C400  1  0.50850000  0.44510000  0.48020000  1.0 0.1003059374
C  C401  1  0.01220000  0.05360000  0.54790000  1.0 -0.2574934073
C  C402  1  0.51220000  0.44640000  0.54790000  1.0 -0.2574934073
C  C403  1  0.95600000  0.06730000  0.58540000  1.0 0.3086377375
C  C404  1  0.45600000  0.43270000  0.58540000  1.0 0.3086377375
C  C405  1  0.89860000  0.08140000  0.54980000  1.0 -0.2405071527
C  C406  1  0.39860000  0.41860000  0.54980000  1.0 -0.2405071527
C  C407  1  0.89930000  0.08110000  0.48220000  1.0 0.0806636434
C  C408  1  0.39930000  0.41890000  0.48220000  1.0 0.0806636434
C  C409  1  0.00770000  0.19970000  0.24080000  1.0 -0.0502268695
C  C410  1  0.50770000  0.30030000  0.24080000  1.0 -0.0502268695
C  C411  1  0.00870000  0.20130000  0.17250000  1.0 -0.2839923508
C  C412  1  0.50870000  0.29870000  0.17250000  1.0 -0.2839923508
C  C413  1  0.06320000  0.18500000  0.13970000  1.0 0.1860165812
C  C414  1  0.56320000  0.31500000  0.13970000  1.0 0.1860165812
C  C415  1  0.12390000  0.17640000  0.17850000  1.0 -0.0081059028
C  C416  1  0.62390000  0.32360000  0.17850000  1.0 -0.0081059028
C  C417  1  0.10730000  0.16130000  0.24730000  1.0 0.0142992094
C  C418  1  0.60730000  0.33870000  0.24730000  1.0 0.0181461352
C  C419  1  0.02190000  0.19370000  0.02510000  1.0 0.2483934156
C  C420  1  0.52190000  0.30630000  0.02510000  1.0 0.2483934156
C  C421  1  0.04400000  0.18900000  0.95350000  1.0 -0.0028154592
C  C422  1  0.54400000  0.31100000  0.95350000  1.0 -0.0028154592
C  C423  1  0.99700000  0.19610000  0.90680000  1.0 -0.0810389908
C  C424  1  0.49700000  0.30390000  0.90680000  1.0 -0.0810389908
C  C425  1  0.01240000  0.18900000  0.83910000  1.0 -0.0700856534
C  C426  1  0.51240000  0.31100000  0.83910000  1.0 -0.0700856534
C  C427  1  0.06930000  0.17520000  0.81880000  1.0 -0.0081059028
C  C428  1  0.56930000  0.32480000  0.81880000  1.0 -0.0081059028
C  C429  1  0.12310000  0.16860000  0.86810000  1.0 -0.0401054895
C  C430  1  0.62310000  0.33140000  0.86810000  1.0 -0.0401054895
C  C431  1  0.10910000  0.17340000  0.93420000  1.0 -0.0502268695
C  C432  1  0.60910000  0.32660000  0.93420000  1.0 -0.0502268695
C  C433  1  0.08990000  0.16650000  0.74800000  1.0 0.3617985539
C  C434  1  0.58990000  0.33350000  0.74800000  1.0 0.3617985539
C  C435  1  0.10430000  0.16040000  0.52980000  1.0 0.1003059374
C  C436  1  0.60430000  0.33960000  0.52980000  1.0 0.1003059374
C  C437  1  0.10610000  0.16080000  0.60020000  1.0 -0.2405071527
C  C438  1  0.60610000  0.33920000  0.60020000  1.0 -0.2405071527
C  C439  1  0.04990000  0.17230000  0.63240000  1.0 0.2698032457
C  C440  1  0.54990000  0.32770000  0.63240000  1.0 0.2698032457
C  C441  1  0.99020000  0.18230000  0.59490000  1.0 -0.2310601942
C  C442  1  0.49020000  0.31770000  0.59490000  1.0 -0.2310601942
C  C443  1  0.99270000  0.18110000  0.52710000  1.0 0.0806636434
C  C444  1  0.49270000  0.31890000  0.52710000  1.0 0.0806636434
C  C445  1  0.90710000  0.10240000  0.19910000  1.0 0.0040095143
C  C446  1  0.40710000  0.39760000  0.19910000  1.0 0.0040095143
C  C447  1  0.90160000  0.10520000  0.13090000  1.0 -0.0937674053
C  C448  1  0.40160000  0.39480000  0.13090000  1.0 -0.0937674053
C  C449  1  0.99700000  0.05090000  0.12650000  1.0 -0.06013463
C  C450  1  0.49700000  0.44910000  0.12650000  1.0 -0.06013463
C  C451  1  0.99480000  0.05220000  0.19430000  1.0 0.0142992094
C  C452  1  0.49480000  0.44780000  0.19430000  1.0 0.0142992094
C  C453  1  0.00420000  0.04240000  0.85860000  1.0 -0.0401054895
C  C454  1  0.50420000  0.45760000  0.85860000  1.0 -0.0401054895
C  C455  1  0.99060000  0.04650000  0.79500000  1.0 -0.0502268695
C  C456  1  0.49060000  0.45350000  0.79500000  1.0 -0.0502268695
C  C457  1  0.91070000  0.10390000  0.81570000  1.0 -0.0700856534
C  C458  1  0.41070000  0.39610000  0.81570000  1.0 -0.0700856534
C  C459  1  0.92580000  0.10090000  0.88350000  1.0 -0.0700856534
C  C460  1  0.42580000  0.39910000  0.88350000  1.0 -0.0700856534
C  C461  1  0.10930000  0.15930000  0.17950000  1.0 -0.0502268695
C  C462  1  0.60930000  0.34070000  0.17950000  1.0 -0.0502268695
C  C463  1  0.11350000  0.17690000  0.24670000  1.0 0.0377152899
C  C464  1  0.61350000  0.32310000  0.24670000  1.0 0.0377152899
C  C465  1  0.00610000  0.21020000  0.90540000  1.0 -0.0810389908
C  C466  1  0.50610000  0.28980000  0.90540000  1.0 -0.0810389908
C  C467  1  0.01720000  0.20480000  0.83940000  1.0 -0.0700856534
C  C468  1  0.51720000  0.29520000  0.83940000  1.0 -0.0700856534
C  C469  1  0.10490000  0.14970000  0.86830000  1.0 -0.06013463
C  C470  1  0.60490000  0.35030000  0.86830000  1.0 -0.06013463
C  C471  1  0.09010000  0.15570000  0.93460000  1.0 -0.06013463
C  C472  1  0.59010000  0.34430000  0.93460000  1.0 -0.06013463
N  N1  1  0.04750000  0.43340000  0.78920000  1.0 -0.2405071527
N  N2  1  0.54750000  0.06660000  0.78920000  1.0 -0.2405071527
N  N3  1  0.05750000  0.43310000  0.99760000  1.0 -0.3478543692
N  N4  1  0.55750000  0.06690000  0.99760000  1.0 -0.3478543692
N  N5  1  0.03220000  0.43070000  0.36670000  1.0 -0.3944167502
N  N6  1  0.53220000  0.06930000  0.36670000  1.0 -0.3944167502
N  N7  1  0.04260000  0.42300000  0.57600000  1.0 -0.2481676981
N  N8  1  0.54260000  0.07700000  0.57600000  1.0 -0.2481676981
N  N9  1  0.95520000  0.33000000  0.83600000  1.0 -0.2310601942
N  N10  1  0.45520000  0.17000000  0.83600000  1.0 -0.2310601942
N  N11  1  0.94360000  0.32950000  0.04420000  1.0 -0.3615455933
N  N12  1  0.44360000  0.17050000  0.04420000  1.0 -0.3615455933
N  N13  1  0.96750000  0.31680000  0.41390000  1.0 -0.3788185127
N  N14  1  0.46750000  0.18320000  0.41390000  1.0 -0.3788185127
N  N15  1  0.95060000  0.31730000  0.62140000  1.0 -0.2481676981
N  N16  1  0.45060000  0.18270000  0.62140000  1.0 -0.2481676981
N  N17  1  0.54690000  0.57820000  0.76850000  1.0 -0.170434919
N  N18  1  0.04690000  0.92180000  0.76850000  1.0 -0.170434919
N  N19  1  0.55480000  0.58290000  0.97570000  1.0 -0.4418205161
N  N20  1  0.05480000  0.91710000  0.97570000  1.0 -0.4418205161
N  N21  1  0.53400000  0.56630000  0.34700000  1.0 -0.4131299116
N  N22  1  0.03400000  0.93370000  0.34700000  1.0 -0.4131299116
N  N23  1  0.54590000  0.56830000  0.55320000  1.0 -0.2405071527
N  N24  1  0.04590000  0.93170000  0.55320000  1.0 -0.2405071527
N  N25  1  0.44510000  0.68210000  0.72140000  1.0 -0.1832586162
N  N26  1  0.94510000  0.81790000  0.72140000  1.0 -0.1832586162
N  N27  1  0.43100000  0.68380000  0.92900000  1.0 -0.4418205161
N  N28  1  0.93100000  0.81620000  0.92900000  1.0 -0.4418205161
N  N29  1  0.45780000  0.67660000  0.29860000  1.0 -0.4332818918
N  N30  1  0.95780000  0.82340000  0.29860000  1.0 -0.4332818918
N  N31  1  0.45100000  0.67070000  0.50620000  1.0 -0.2405071527
N  N32  1  0.95100000  0.82930000  0.50620000  1.0 -0.2405071527
N  N33  1  0.45250000  0.93340000  0.21080000  1.0 -0.2405071527
N  N34  1  0.95250000  0.56660000  0.21080000  1.0 -0.2405071527
N  N35  1  0.44250000  0.93310000  0.00240000  1.0 -0.3478543692
N  N36  1  0.94250000  0.56690000  0.00240000  1.0 -0.3478543692
N  N37  1  0.46780000  0.93070000  0.63330000  1.0 -0.3944167502
N  N38  1  0.96780000  0.56930000  0.63330000  1.0 -0.3944167502
N  N39  1  0.45740000  0.92300000  0.42400000  1.0 -0.2481676981
N  N40  1  0.95740000  0.57700000  0.42400000  1.0 -0.2481676981
N  N41  1  0.54480000  0.83000000  0.16400000  1.0 -0.2310601942
N  N42  1  0.04480000  0.67000000  0.16400000  1.0 -0.2310601942
N  N43  1  0.55640000  0.82950000  0.95580000  1.0 -0.3615455933
N  N44  1  0.05640000  0.67050000  0.95580000  1.0 -0.3615455933
N  N45  1  0.53250000  0.81680000  0.58610000  1.0 -0.3788185127
N  N46  1  0.03250000  0.68320000  0.58610000  1.0 -0.3788185127
N  N47  1  0.54940000  0.81730000  0.37860000  1.0 -0.2481676981
N  N48  1  0.04940000  0.68270000  0.37860000  1.0 -0.2481676981
N  N49  1  0.95310000  0.07820000  0.23150000  1.0 -0.170434919
N  N50  1  0.45310000  0.42180000  0.23150000  1.0 -0.170434919
N  N51  1  0.94520000  0.08290000  0.02430000  1.0 -0.4418205161
N  N52  1  0.44520000  0.41710000  0.02430000  1.0 -0.4418205161
N  N53  1  0.96600000  0.06630000  0.65300000  1.0 -0.4131299116
N  N54  1  0.46600000  0.43370000  0.65300000  1.0 -0.4131299116
N  N55  1  0.95410000  0.06830000  0.44680000  1.0 -0.2405071527
N  N56  1  0.45410000  0.43170000  0.44680000  1.0 -0.2405071527
N  N57  1  0.05490000  0.18210000  0.27860000  1.0 -0.1832586162
N  N58  1  0.55490000  0.31790000  0.27860000  1.0 -0.1832586162
N  N59  1  0.06900000  0.18380000  0.07100000  1.0 -0.4418205161
N  N60  1  0.56900000  0.31620000  0.07100000  1.0 -0.4418205161
N  N61  1  0.04220000  0.17660000  0.70140000  1.0 -0.4332818918
N  N62  1  0.54220000  0.32340000  0.70140000  1.0 -0.4332818918
N  N63  1  0.04900000  0.17070000  0.49380000  1.0 -0.2405071527
N  N64  1  0.54900000  0.32930000  0.49380000  1.0 -0.2405071527
O  O1  1  0.04450000  0.30170000  0.73410000  1.0 -0.5393503997
O  O2  1  0.54450000  0.19830000  0.73410000  1.0 -0.5393503997
O  O3  1  0.08320000  0.36370000  0.68900000  1.0 -0.5486300446
O  O4  1  0.58320000  0.13630000  0.68900000  1.0 -0.5486300446
O  O5  1  0.36480000  0.21370000  0.74060000  1.0 -0.5336579092
O  O6  1  0.86480000  0.28630000  0.74060000  1.0 -0.5336579092
O  O7  1  0.41180000  0.27860000  0.71970000  1.0 -0.5486300446
O  O8  1  0.91180000  0.22140000  0.71970000  1.0 -0.5486300446
O  O9  1  0.89850000  0.37910000  0.72420000  1.0 -0.5589163572
O  O10  1  0.39850000  0.12090000  0.72420000  1.0 -0.5589163572
O  O11  1  0.94850000  0.43920000  0.68120000  1.0 -0.5486300446
O  O12  1  0.44850000  0.06080000  0.68120000  1.0 -0.5486300446
O  O13  1  0.64260000  0.54880000  0.66666667  1.0 -0.5393503997
O  O14  1  0.14260000  0.95120000  0.66666667  1.0 -0.5393503997
O  O15  1  0.58570000  0.48700000  0.68120000  1.0 -0.5336579092
O  O16  1  0.08570000  0.01300000  0.68120000  1.0 -0.5336579092
O  O17  1  0.45050000  0.55690000  0.66690000  1.0 -0.5393503997
O  O18  1  0.95050000  0.94310000  0.66690000  1.0 -0.5393503997
O  O19  1  0.40210000  0.61660000  0.62030000  1.0 -0.5589163572
O  O20  1  0.90210000  0.88340000  0.62030000  1.0 -0.5589163572
O  O21  1  0.14120000  0.45250000  0.68120000  1.0 -0.5393503997
O  O22  1  0.64120000  0.04750000  0.68120000  1.0 -0.5393503997
O  O23  1  0.08590000  0.51470000  0.65830000  1.0 -0.5589163572
O  O24  1  0.58590000  0.98530000  0.65830000  1.0 -0.5589163572
O  O25  1  0.35570000  0.70680000  0.60870000  1.0 -0.5393503997
O  O26  1  0.85570000  0.79320000  0.60870000  1.0 -0.5393503997
O  O27  1  0.40650000  0.77200000  0.61230000  1.0 -0.5589163572
O  O28  1  0.90650000  0.72800000  0.61230000  1.0 -0.5589163572
O  O29  1  0.08390000  0.86430000  0.65800000  1.0 -0.5393503997
O  O30  1  0.58390000  0.63570000  0.65800000  1.0 -0.5393503997
O  O31  1  0.04060000  0.80270000  0.61420000  1.0 -0.5393503997
O  O32  1  0.54060000  0.69730000  0.61420000  1.0 -0.5393503997
O  O33  1  0.05120000  0.31320000  0.07560000  1.0 -0.4418205161
O  O34  1  0.55120000  0.18680000  0.07560000  1.0 -0.4418205161
O  O35  1  0.87040000  0.35220000  0.38130000  1.0 -0.4418205161
O  O36  1  0.37040000  0.14780000  0.38130000  1.0 -0.4418205161
O  O37  1  0.95260000  0.44810000  0.02600000  1.0 -0.4653858177
O  O38  1  0.45260000  0.05190000  0.02600000  1.0 -0.4653858177
O  O39  1  0.13320000  0.40160000  0.33530000  1.0 -0.4479330637
O  O40  1  0.63320000  0.09840000  0.33530000  1.0 -0.4479330637
O  O41  1  0.45680000  0.55190000  0.00720000  1.0 -0.4131299116
O  O42  1  0.95680000  0.94810000  0.00720000  1.0 -0.4131299116
O  O43  1  0.63600000  0.59690000  0.31650000  1.0 -0.4131299116
O  O44  1  0.13600000  0.90310000  0.31650000  1.0 -0.4131299116
O  O45  1  0.53430000  0.70580000  0.96120000  1.0 -0.4131299116
O  O46  1  0.03430000  0.79420000  0.96120000  1.0 -0.4131299116
O  O47  1  0.35580000  0.65130000  0.26480000  1.0 -0.4195241042
O  O48  1  0.85580000  0.84870000  0.26480000  1.0 -0.4195241042
O  O49  1  0.45550000  0.80170000  0.26590000  1.0 -0.5393503997
O  O50  1  0.95550000  0.69830000  0.26590000  1.0 -0.5393503997
O  O51  1  0.41680000  0.86370000  0.31100000  1.0 -0.5486300446
O  O52  1  0.91680000  0.63630000  0.31100000  1.0 -0.5486300446
O  O53  1  0.13520000  0.71370000  0.25940000  1.0 -0.5336579092
O  O54  1  0.63520000  0.78630000  0.25940000  1.0 -0.5336579092
O  O55  1  0.08820000  0.77860000  0.28030000  1.0 -0.5486300446
O  O56  1  0.58820000  0.72140000  0.28030000  1.0 -0.5486300446
O  O57  1  0.60150000  0.87910000  0.27580000  1.0 -0.5589163572
O  O58  1  0.10150000  0.62090000  0.27580000  1.0 -0.5589163572
O  O59  1  0.55150000  0.93920000  0.31880000  1.0 -0.5486300446
O  O60  1  0.05150000  0.56080000  0.31880000  1.0 -0.5486300446
O  O61  1  0.85740000  0.04880000  0.33333333  1.0 -0.5393503997
O  O62  1  0.35740000  0.45120000  0.33333333  1.0 -0.5393503997
O  O63  1  0.91430000  0.98700000  0.31880000  1.0 -0.5336579092
O  O64  1  0.41430000  0.51300000  0.31880000  1.0 -0.5336579092
O  O65  1  0.04950000  0.05690000  0.33310000  1.0 -0.5393503997
O  O66  1  0.54950000  0.44310000  0.33310000  1.0 -0.5393503997
O  O67  1  0.09790000  0.11660000  0.37970000  1.0 -0.5589163572
O  O68  1  0.59790000  0.38340000  0.37970000  1.0 -0.5589163572
O  O69  1  0.35880000  0.95250000  0.31880000  1.0 -0.5393503997
O  O70  1  0.85880000  0.54750000  0.31880000  1.0 -0.5393503997
O  O71  1  0.41410000  0.01470000  0.34170000  1.0 -0.5589163572
O  O72  1  0.91410000  0.48530000  0.34170000  1.0 -0.5589163572
O  O73  1  0.14430000  0.20680000  0.39130000  1.0 -0.5393503997
O  O74  1  0.64430000  0.29320000  0.39130000  1.0 -0.5393503997
O  O75  1  0.09350000  0.27200000  0.38770000  1.0 -0.5589163572
O  O76  1  0.59350000  0.22800000  0.38770000  1.0 -0.5589163572
O  O77  1  0.41610000  0.36430000  0.34200000  1.0 -0.5393503997
O  O78  1  0.91610000  0.13570000  0.34200000  1.0 -0.5393503997
O  O79  1  0.45940000  0.30270000  0.38580000  1.0 -0.5393503997
O  O80  1  0.95940000  0.19730000  0.38580000  1.0 -0.5393503997
O  O81  1  0.44880000  0.81320000  0.92440000  1.0 -0.4418205161
O  O82  1  0.94880000  0.68680000  0.92440000  1.0 -0.4418205161
O  O83  1  0.62960000  0.85220000  0.61870000  1.0 -0.4418205161
O  O84  1  0.12960000  0.64780000  0.61870000  1.0 -0.4418205161
O  O85  1  0.54740000  0.94810000  0.97400000  1.0 -0.4653858177
O  O86  1  0.04740000  0.55190000  0.97400000  1.0 -0.4653858177
O  O87  1  0.36680000  0.90160000  0.66470000  1.0 -0.4479330637
O  O88  1  0.86680000  0.59840000  0.66470000  1.0 -0.4479330637
O  O89  1  0.04320000  0.05190000  0.99280000  1.0 -0.4131299116
O  O90  1  0.54320000  0.44810000  0.99280000  1.0 -0.4131299116
O  O91  1  0.86400000  0.09690000  0.68350000  1.0 -0.4131299116
O  O92  1  0.36400000  0.40310000  0.68350000  1.0 -0.4131299116
O  O93  1  0.96570000  0.20580000  0.03880000  1.0 -0.4131299116
O  O94  1  0.46570000  0.29420000  0.03880000  1.0 -0.4131299116
O  O95  1  0.14420000  0.15130000  0.73520000  1.0 -0.4195241042
O  O96  1  0.64420000  0.34870000  0.73520000  1.0 -0.4195241042
