# DDEC6 charges by PACMAN v1.1 (https://github.com/mtap-research/PACMAN-charge/)
data_PIBNUK01_ASR_pacman
_symmetry_space_group_name_H-M   'P 1'
_cell_length_a   25.63490000
_cell_length_b   25.63490000
_cell_length_c   25.63490000
_cell_angle_alpha   90.00000000
_cell_angle_beta   90.00000000
_cell_angle_gamma   90.00000000
_symmetry_Int_Tables_number   1
_chemical_formula_structural   ZnH8C16(NO2)2
_chemical_formula_sum   'Zn12 H96 C192 N24 O48'
_cell_volume   16845.92577768
_cell_formula_units_Z   12
loop_
 _symmetry_equiv_pos_site_id
 _symmetry_equiv_pos_as_xyz
  1  'x, y, z'
loop_
 _atom_site_type_symbol
 _atom_site_label
 _atom_site_symmetry_multiplicity
 _atom_site_fract_x
 _atom_site_fract_y
 _atom_site_fract_z
 _atom_site_occupancy
 _atom_site_charge
Zn  Zn1  1  0.87500000  0.37500000  0.12500000  1.0 1.0376135924
Zn  Zn2  1  0.62500000  0.62500000  0.62500000  1.0 1.0376135924
Zn  Zn3  1  0.12500000  0.87500000  0.37500000  1.0 1.0376135924
Zn  Zn4  1  0.37500000  0.12500000  0.87500000  1.0 1.0376135924
Zn  Zn5  1  0.95523000  0.45523000  0.04477000  1.0 0.9442594342
Zn  Zn6  1  0.54477000  0.54477000  0.54477000  1.0 0.9442594342
Zn  Zn7  1  0.04477000  0.95523000  0.45523000  1.0 0.9442594342
Zn  Zn8  1  0.45523000  0.04477000  0.95523000  1.0 0.9442594342
Zn  Zn9  1  0.70523000  0.70523000  0.70523000  1.0 0.9442594342
Zn  Zn10  1  0.79477000  0.29477000  0.20523000  1.0 0.9442594342
Zn  Zn11  1  0.20523000  0.79477000  0.29477000  1.0 0.9442594342
Zn  Zn12  1  0.29477000  0.20523000  0.79477000  1.0 0.9442594342
H  H1  1  0.81170000  0.31720000  0.00070000  1.0 0.1286773004
H  H2  1  0.68830000  0.68280000  0.50070000  1.0 0.1286773004
H  H3  1  0.18830000  0.81720000  0.49930000  1.0 0.1286773004
H  H4  1  0.31170000  0.18280000  0.99930000  1.0 0.1286773004
H  H5  1  0.00070000  0.81170000  0.31720000  1.0 0.1286773004
H  H6  1  0.50070000  0.68830000  0.68280000  1.0 0.1286773004
H  H7  1  0.49930000  0.18830000  0.81720000  1.0 0.1286773004
H  H8  1  0.99930000  0.31170000  0.18280000  1.0 0.1286773004
H  H9  1  0.31720000  0.00070000  0.81170000  1.0 0.1286773004
H  H10  1  0.68280000  0.50070000  0.68830000  1.0 0.1286773004
H  H11  1  0.81720000  0.49930000  0.18830000  1.0 0.1286773004
H  H12  1  0.18280000  0.99930000  0.31170000  1.0 0.1286773004
H  H13  1  0.56720000  0.56170000  0.74930000  1.0 0.1286773004
H  H14  1  0.93280000  0.43830000  0.24930000  1.0 0.1286773004
H  H15  1  0.06720000  0.93830000  0.25070000  1.0 0.1286773004
H  H16  1  0.43280000  0.06170000  0.75070000  1.0 0.1286773004
H  H17  1  0.06170000  0.75070000  0.43280000  1.0 0.1286773004
H  H18  1  0.93830000  0.25070000  0.06720000  1.0 0.1286773004
H  H19  1  0.43830000  0.24930000  0.93280000  1.0 0.1286773004
H  H20  1  0.56170000  0.74930000  0.56720000  1.0 0.1286773004
H  H21  1  0.25070000  0.06720000  0.93830000  1.0 0.1286773004
H  H22  1  0.75070000  0.43280000  0.06170000  1.0 0.1286773004
H  H23  1  0.74930000  0.56720000  0.56170000  1.0 0.1286773004
H  H24  1  0.24930000  0.93280000  0.43830000  1.0 0.1286773004
H  H25  1  0.74470000  0.29390000  0.94490000  1.0 0.1197091404
H  H26  1  0.75530000  0.70610000  0.44490000  1.0 0.1197091404
H  H27  1  0.25530000  0.79390000  0.55510000  1.0 0.1197091404
H  H28  1  0.24470000  0.20610000  0.05510000  1.0 0.1197091404
H  H29  1  0.94490000  0.74470000  0.29390000  1.0 0.1197091404
H  H30  1  0.44490000  0.75530000  0.70610000  1.0 0.1197091404
H  H31  1  0.55510000  0.25530000  0.79390000  1.0 0.1197091404
H  H32  1  0.05510000  0.24470000  0.20610000  1.0 0.1197091404
H  H33  1  0.29390000  0.94490000  0.74470000  1.0 0.1197091404
H  H34  1  0.70610000  0.44490000  0.75530000  1.0 0.1197091404
H  H35  1  0.79390000  0.55510000  0.25530000  1.0 0.1197091404
H  H36  1  0.20610000  0.05510000  0.24470000  1.0 0.1197091404
H  H37  1  0.54390000  0.49470000  0.80510000  1.0 0.1197091404
H  H38  1  0.95610000  0.50530000  0.30510000  1.0 0.1197091404
H  H39  1  0.04390000  0.00530000  0.19490000  1.0 0.1197091404
H  H40  1  0.45610000  0.99470000  0.69490000  1.0 0.1197091404
H  H41  1  0.99470000  0.69490000  0.45610000  1.0 0.1197091404
H  H42  1  0.00530000  0.19490000  0.04390000  1.0 0.1197091404
H  H43  1  0.50530000  0.30510000  0.95610000  1.0 0.1197091404
H  H44  1  0.49470000  0.80510000  0.54390000  1.0 0.1197091404
H  H45  1  0.19490000  0.04390000  0.00530000  1.0 0.1197091404
H  H46  1  0.69490000  0.45610000  0.99470000  1.0 0.1197091404
H  H47  1  0.80510000  0.54390000  0.49470000  1.0 0.1197091404
H  H48  1  0.30510000  0.95610000  0.50530000  1.0 0.1197091404
H  H49  1  0.76680000  0.42850000  0.86620000  1.0 0.1197091404
H  H50  1  0.73320000  0.57150000  0.36620000  1.0 0.1197091404
H  H51  1  0.23320000  0.92850000  0.63380000  1.0 0.1197091404
H  H52  1  0.26680000  0.07150000  0.13380000  1.0 0.1197091404
H  H53  1  0.86620000  0.76680000  0.42850000  1.0 0.1197091404
H  H54  1  0.36620000  0.73320000  0.57150000  1.0 0.1197091404
H  H55  1  0.63380000  0.23320000  0.92850000  1.0 0.1197091404
H  H56  1  0.13380000  0.26680000  0.07150000  1.0 0.1197091404
H  H57  1  0.42850000  0.86620000  0.76680000  1.0 0.1197091404
H  H58  1  0.57150000  0.36620000  0.73320000  1.0 0.1197091404
H  H59  1  0.92850000  0.63380000  0.23320000  1.0 0.1197091404
H  H60  1  0.07150000  0.13380000  0.26680000  1.0 0.1197091404
H  H61  1  0.67850000  0.51680000  0.88380000  1.0 0.1197091404
H  H62  1  0.82150000  0.48320000  0.38380000  1.0 0.1197091404
H  H63  1  0.17850000  0.98320000  0.11620000  1.0 0.1197091404
H  H64  1  0.32150000  0.01680000  0.61620000  1.0 0.1197091404
H  H65  1  0.01680000  0.61620000  0.32150000  1.0 0.1197091404
H  H66  1  0.98320000  0.11620000  0.17850000  1.0 0.1197091404
H  H67  1  0.48320000  0.38380000  0.82150000  1.0 0.1197091404
H  H68  1  0.51680000  0.88380000  0.67850000  1.0 0.1197091404
H  H69  1  0.11620000  0.17850000  0.98320000  1.0 0.1197091404
H  H70  1  0.61620000  0.32150000  0.01680000  1.0 0.1197091404
H  H71  1  0.88380000  0.67850000  0.51680000  1.0 0.1197091404
H  H72  1  0.38380000  0.82150000  0.48320000  1.0 0.1197091404
H  H73  1  0.83310000  0.45070000  0.92360000  1.0 0.1197091404
H  H74  1  0.66690000  0.54930000  0.42360000  1.0 0.1197091404
H  H75  1  0.16690000  0.95070000  0.57640000  1.0 0.1197091404
H  H76  1  0.33310000  0.04930000  0.07640000  1.0 0.1197091404
H  H77  1  0.92360000  0.83310000  0.45070000  1.0 0.1197091404
H  H78  1  0.42360000  0.66690000  0.54930000  1.0 0.1197091404
H  H79  1  0.57640000  0.16690000  0.95070000  1.0 0.1197091404
H  H80  1  0.07640000  0.33310000  0.04930000  1.0 0.1197091404
H  H81  1  0.45070000  0.92360000  0.83310000  1.0 0.1197091404
H  H82  1  0.54930000  0.42360000  0.66690000  1.0 0.1197091404
H  H83  1  0.95070000  0.57640000  0.16690000  1.0 0.1197091404
H  H84  1  0.04930000  0.07640000  0.33310000  1.0 0.1197091404
H  H85  1  0.70070000  0.58310000  0.82640000  1.0 0.1197091404
H  H86  1  0.79930000  0.41690000  0.32640000  1.0 0.1197091404
H  H87  1  0.20070000  0.91690000  0.17360000  1.0 0.1197091404
H  H88  1  0.29930000  0.08310000  0.67360000  1.0 0.1197091404
H  H89  1  0.08310000  0.67360000  0.29930000  1.0 0.1197091404
H  H90  1  0.91690000  0.17360000  0.20070000  1.0 0.1197091404
H  H91  1  0.41690000  0.32640000  0.79930000  1.0 0.1197091404
H  H92  1  0.58310000  0.82640000  0.70070000  1.0 0.1197091404
H  H93  1  0.17360000  0.20070000  0.91690000  1.0 0.1197091404
H  H94  1  0.67360000  0.29930000  0.08310000  1.0 0.1197091404
H  H95  1  0.82640000  0.70070000  0.58310000  1.0 0.1197091404
H  H96  1  0.32640000  0.79930000  0.41690000  1.0 0.1197091404
C  C1  1  0.70339000  0.34808000  0.86648000  1.0 0.3669190027
C  C2  1  0.79661000  0.65192000  0.36648000  1.0 0.3669190027
C  C3  1  0.29661000  0.84808000  0.63352000  1.0 0.3669190027
C  C4  1  0.20339000  0.15192000  0.13352000  1.0 0.3669190027
C  C5  1  0.86648000  0.70339000  0.34808000  1.0 0.3669190027
C  C6  1  0.36648000  0.79661000  0.65192000  1.0 0.3669190027
C  C7  1  0.63352000  0.29661000  0.84808000  1.0 0.3669190027
C  C8  1  0.13352000  0.20339000  0.15192000  1.0 0.3669190027
C  C9  1  0.34808000  0.86648000  0.70339000  1.0 0.3669190027
C  C10  1  0.65192000  0.36648000  0.79661000  1.0 0.3669190027
C  C11  1  0.84808000  0.63352000  0.29661000  1.0 0.3669190027
C  C12  1  0.15192000  0.13352000  0.20339000  1.0 0.3669190027
C  C13  1  0.59808000  0.45339000  0.88352000  1.0 0.3669190027
C  C14  1  0.90192000  0.54661000  0.38352000  1.0 0.3669190027
C  C15  1  0.09808000  0.04661000  0.11648000  1.0 0.3669190027
C  C16  1  0.40192000  0.95339000  0.61648000  1.0 0.3669190027
C  C17  1  0.95339000  0.61648000  0.40192000  1.0 0.3669190027
C  C18  1  0.04661000  0.11648000  0.09808000  1.0 0.3669190027
C  C19  1  0.54661000  0.38352000  0.90192000  1.0 0.3669190027
C  C20  1  0.45339000  0.88352000  0.59808000  1.0 0.3669190027
C  C21  1  0.11648000  0.09808000  0.04661000  1.0 0.3669190027
C  C22  1  0.61648000  0.40192000  0.95339000  1.0 0.3669190027
C  C23  1  0.88352000  0.59808000  0.45339000  1.0 0.3669190027
C  C24  1  0.38352000  0.90192000  0.54661000  1.0 0.3669190027
C  C25  1  0.87182000  0.39940000  0.00623000  1.0 0.6007902243
C  C26  1  0.62818000  0.60060000  0.50623000  1.0 0.6007902243
C  C27  1  0.12818000  0.89940000  0.49377000  1.0 0.6007902243
C  C28  1  0.37182000  0.10060000  0.99377000  1.0 0.6007902243
C  C29  1  0.00623000  0.87182000  0.39940000  1.0 0.6007902243
C  C30  1  0.50623000  0.62818000  0.60060000  1.0 0.6007902243
C  C31  1  0.49377000  0.12818000  0.89940000  1.0 0.6007902243
C  C32  1  0.99377000  0.37182000  0.10060000  1.0 0.6007902243
C  C33  1  0.39940000  0.00623000  0.87182000  1.0 0.6007902243
C  C34  1  0.60060000  0.50623000  0.62818000  1.0 0.6007902243
C  C35  1  0.89940000  0.49377000  0.12818000  1.0 0.6007902243
C  C36  1  0.10060000  0.99377000  0.37182000  1.0 0.6007902243
C  C37  1  0.64940000  0.62182000  0.74377000  1.0 0.6007902243
C  C38  1  0.85060000  0.37818000  0.24377000  1.0 0.6007902243
C  C39  1  0.14940000  0.87818000  0.25623000  1.0 0.6007902243
C  C40  1  0.35060000  0.12182000  0.75623000  1.0 0.6007902243
C  C41  1  0.12182000  0.75623000  0.35060000  1.0 0.6007902243
C  C42  1  0.87818000  0.25623000  0.14940000  1.0 0.6007902243
C  C43  1  0.37818000  0.24377000  0.85060000  1.0 0.6007902243
C  C44  1  0.62182000  0.74377000  0.64940000  1.0 0.6007902243
C  C45  1  0.25623000  0.14940000  0.87818000  1.0 0.6007902243
C  C46  1  0.75623000  0.35060000  0.12182000  1.0 0.6007902243
C  C47  1  0.74377000  0.64940000  0.62182000  1.0 0.6007902243
C  C48  1  0.24377000  0.85060000  0.37818000  1.0 0.6007902243
C  C49  1  0.82889000  0.38532000  0.96776000  1.0 -0.0227215392
C  C50  1  0.67111000  0.61468000  0.46776000  1.0 -0.0227215392
C  C51  1  0.17111000  0.88532000  0.53224000  1.0 -0.0227215392
C  C52  1  0.32889000  0.11468000  0.03224000  1.0 -0.0227215392
C  C53  1  0.96776000  0.82889000  0.38532000  1.0 -0.0227215392
C  C54  1  0.46776000  0.67111000  0.61468000  1.0 -0.0227215392
C  C55  1  0.53224000  0.17111000  0.88532000  1.0 -0.0227215392
C  C56  1  0.03224000  0.32889000  0.11468000  1.0 -0.0227215392
C  C57  1  0.38532000  0.96776000  0.82889000  1.0 -0.0227215392
C  C58  1  0.61468000  0.46776000  0.67111000  1.0 -0.0227215392
C  C59  1  0.88532000  0.53224000  0.17111000  1.0 -0.0227215392
C  C60  1  0.11468000  0.03224000  0.32889000  1.0 -0.0227215392
C  C61  1  0.63532000  0.57889000  0.78224000  1.0 -0.0227215392
C  C62  1  0.86468000  0.42111000  0.28224000  1.0 -0.0227215392
C  C63  1  0.13532000  0.92111000  0.21776000  1.0 -0.0227215392
C  C64  1  0.36468000  0.07889000  0.71776000  1.0 -0.0227215392
C  C65  1  0.07889000  0.71776000  0.36468000  1.0 -0.0227215392
C  C66  1  0.92111000  0.21776000  0.13532000  1.0 -0.0227215392
C  C67  1  0.42111000  0.28224000  0.86468000  1.0 -0.0227215392
C  C68  1  0.57889000  0.78224000  0.63532000  1.0 -0.0227215392
C  C69  1  0.21776000  0.13532000  0.92111000  1.0 -0.0227215392
C  C70  1  0.71776000  0.36468000  0.07889000  1.0 -0.0227215392
C  C71  1  0.78224000  0.63532000  0.57889000  1.0 -0.0227215392
C  C72  1  0.28224000  0.86468000  0.42111000  1.0 -0.0227215392
C  C73  1  0.80241000  0.33962000  0.97369000  1.0 -0.0958268928
C  C74  1  0.69759000  0.66038000  0.47369000  1.0 -0.0958268928
C  C75  1  0.19759000  0.83962000  0.52631000  1.0 -0.0958268928
C  C76  1  0.30241000  0.16038000  0.02631000  1.0 -0.0958268928
C  C77  1  0.97369000  0.80241000  0.33962000  1.0 -0.0958268928
C  C78  1  0.47369000  0.69759000  0.66038000  1.0 -0.0958268928
C  C79  1  0.52631000  0.19759000  0.83962000  1.0 -0.0958268928
C  C80  1  0.02631000  0.30241000  0.16038000  1.0 -0.0958268928
C  C81  1  0.33962000  0.97369000  0.80241000  1.0 -0.0958268928
C  C82  1  0.66038000  0.47369000  0.69759000  1.0 -0.0958268928
C  C83  1  0.83962000  0.52631000  0.19759000  1.0 -0.0958268928
C  C84  1  0.16038000  0.02631000  0.30241000  1.0 -0.0958268928
C  C85  1  0.58962000  0.55241000  0.77631000  1.0 -0.0958268928
C  C86  1  0.91038000  0.44759000  0.27631000  1.0 -0.0958268928
C  C87  1  0.08962000  0.94759000  0.22369000  1.0 -0.0958268928
C  C88  1  0.41038000  0.05241000  0.72369000  1.0 -0.0958268928
C  C89  1  0.05241000  0.72369000  0.41038000  1.0 -0.0958268928
C  C90  1  0.94759000  0.22369000  0.08962000  1.0 -0.0958268928
C  C91  1  0.44759000  0.27631000  0.91038000  1.0 -0.0958268928
C  C92  1  0.55241000  0.77631000  0.58962000  1.0 -0.0958268928
C  C93  1  0.22369000  0.08962000  0.94759000  1.0 -0.0958268928
C  C94  1  0.72369000  0.41038000  0.05241000  1.0 -0.0958268928
C  C95  1  0.77631000  0.58962000  0.55241000  1.0 -0.0958268928
C  C96  1  0.27631000  0.91038000  0.44759000  1.0 -0.0958268928
C  C97  1  0.76198000  0.32554000  0.94071000  1.0 -0.1061644096
C  C98  1  0.73802000  0.67446000  0.44071000  1.0 -0.1061644096
C  C99  1  0.23802000  0.82554000  0.55929000  1.0 -0.1061644096
C  C100  1  0.26198000  0.17446000  0.05929000  1.0 -0.1061644096
C  C101  1  0.94071000  0.76198000  0.32554000  1.0 -0.1061644096
C  C102  1  0.44071000  0.73802000  0.67446000  1.0 -0.1061644096
C  C103  1  0.55929000  0.23802000  0.82554000  1.0 -0.1061644096
C  C104  1  0.05929000  0.26198000  0.17446000  1.0 -0.1061644096
C  C105  1  0.32554000  0.94071000  0.76198000  1.0 -0.1061644096
C  C106  1  0.67446000  0.44071000  0.73802000  1.0 -0.1061644096
C  C107  1  0.82554000  0.55929000  0.23802000  1.0 -0.1061644096
C  C108  1  0.17446000  0.05929000  0.26198000  1.0 -0.1061644096
C  C109  1  0.57554000  0.51198000  0.80929000  1.0 -0.1061644096
C  C110  1  0.92446000  0.48802000  0.30929000  1.0 -0.1061644096
C  C111  1  0.07554000  0.98802000  0.19071000  1.0 -0.1061644096
C  C112  1  0.42446000  0.01198000  0.69071000  1.0 -0.1061644096
C  C113  1  0.01198000  0.69071000  0.42446000  1.0 -0.1061644096
C  C114  1  0.98802000  0.19071000  0.07554000  1.0 -0.1061644096
C  C115  1  0.48802000  0.30929000  0.92446000  1.0 -0.1061644096
C  C116  1  0.51198000  0.80929000  0.57554000  1.0 -0.1061644096
C  C117  1  0.19071000  0.07554000  0.98802000  1.0 -0.1061644096
C  C118  1  0.69071000  0.42446000  0.01198000  1.0 -0.1061644096
C  C119  1  0.80929000  0.57554000  0.51198000  1.0 -0.1061644096
C  C120  1  0.30929000  0.92446000  0.48802000  1.0 -0.1061644096
C  C121  1  0.74797000  0.35993000  0.90128000  1.0 0.0139826254
C  C122  1  0.75203000  0.64007000  0.40128000  1.0 0.0139826254
C  C123  1  0.25203000  0.85993000  0.59872000  1.0 0.0139826254
C  C124  1  0.24797000  0.14007000  0.09872000  1.0 0.0139826254
C  C125  1  0.90128000  0.74797000  0.35993000  1.0 0.0139826254
C  C126  1  0.40128000  0.75203000  0.64007000  1.0 0.0139826254
C  C127  1  0.59872000  0.25203000  0.85993000  1.0 0.0139826254
C  C128  1  0.09872000  0.24797000  0.14007000  1.0 0.0139826254
C  C129  1  0.35993000  0.90128000  0.74797000  1.0 0.0139826254
C  C130  1  0.64007000  0.40128000  0.75203000  1.0 0.0139826254
C  C131  1  0.85993000  0.59872000  0.25203000  1.0 0.0139826254
C  C132  1  0.14007000  0.09872000  0.24797000  1.0 0.0139826254
C  C133  1  0.60993000  0.49797000  0.84872000  1.0 0.0139826254
C  C134  1  0.89007000  0.50203000  0.34872000  1.0 0.0139826254
C  C135  1  0.10993000  0.00203000  0.15128000  1.0 0.0139826254
C  C136  1  0.39007000  0.99797000  0.65128000  1.0 0.0139826254
C  C137  1  0.99797000  0.65128000  0.39007000  1.0 0.0139826254
C  C138  1  0.00203000  0.15128000  0.10993000  1.0 0.0139826254
C  C139  1  0.50203000  0.34872000  0.89007000  1.0 0.0139826254
C  C140  1  0.49797000  0.84872000  0.60993000  1.0 0.0139826254
C  C141  1  0.15128000  0.10993000  0.00203000  1.0 0.0139826254
C  C142  1  0.65128000  0.39007000  0.99797000  1.0 0.0139826254
C  C143  1  0.84872000  0.60993000  0.49797000  1.0 0.0139826254
C  C144  1  0.34872000  0.89007000  0.50203000  1.0 0.0139826254
C  C145  1  0.77536000  0.40642000  0.89370000  1.0 -0.1201857708
C  C146  1  0.72464000  0.59358000  0.39370000  1.0 -0.1201857708
C  C147  1  0.22464000  0.90642000  0.60630000  1.0 -0.1201857708
C  C148  1  0.27536000  0.09358000  0.10630000  1.0 -0.1201857708
C  C149  1  0.89370000  0.77536000  0.40642000  1.0 -0.1201857708
C  C150  1  0.39370000  0.72464000  0.59358000  1.0 -0.1201857708
C  C151  1  0.60630000  0.22464000  0.90642000  1.0 -0.1201857708
C  C152  1  0.10630000  0.27536000  0.09358000  1.0 -0.1201857708
C  C153  1  0.40642000  0.89370000  0.77536000  1.0 -0.1201857708
C  C154  1  0.59358000  0.39370000  0.72464000  1.0 -0.1201857708
C  C155  1  0.90642000  0.60630000  0.22464000  1.0 -0.1201857708
C  C156  1  0.09358000  0.10630000  0.27536000  1.0 -0.1201857708
C  C157  1  0.65642000  0.52536000  0.85630000  1.0 -0.1201857708
C  C158  1  0.84358000  0.47464000  0.35630000  1.0 -0.1201857708
C  C159  1  0.15642000  0.97464000  0.14370000  1.0 -0.1201857708
C  C160  1  0.34358000  0.02536000  0.64370000  1.0 -0.1201857708
C  C161  1  0.02536000  0.64370000  0.34358000  1.0 -0.1201857708
C  C162  1  0.97464000  0.14370000  0.15642000  1.0 -0.1201857708
C  C163  1  0.47464000  0.35630000  0.84358000  1.0 -0.1201857708
C  C164  1  0.52536000  0.85630000  0.65642000  1.0 -0.1201857708
C  C165  1  0.14370000  0.15642000  0.97464000  1.0 -0.1201857708
C  C166  1  0.64370000  0.34358000  0.02536000  1.0 -0.1201857708
C  C167  1  0.85630000  0.65642000  0.52536000  1.0 -0.1201857708
C  C168  1  0.35630000  0.84358000  0.47464000  1.0 -0.1201857708
C  C169  1  0.81531000  0.41930000  0.92761000  1.0 -0.1061644096
C  C170  1  0.68469000  0.58070000  0.42761000  1.0 -0.1061644096
C  C171  1  0.18469000  0.91930000  0.57239000  1.0 -0.1061644096
C  C172  1  0.31531000  0.08070000  0.07239000  1.0 -0.1061644096
C  C173  1  0.92761000  0.81531000  0.41930000  1.0 -0.1061644096
C  C174  1  0.42761000  0.68469000  0.58070000  1.0 -0.1061644096
C  C175  1  0.57239000  0.18469000  0.91930000  1.0 -0.1061644096
C  C176  1  0.07239000  0.31531000  0.08070000  1.0 -0.1061644096
C  C177  1  0.41930000  0.92761000  0.81531000  1.0 -0.1061644096
C  C178  1  0.58070000  0.42761000  0.68469000  1.0 -0.1061644096
C  C179  1  0.91930000  0.57239000  0.18469000  1.0 -0.1061644096
C  C180  1  0.08070000  0.07239000  0.31531000  1.0 -0.1061644096
C  C181  1  0.66930000  0.56531000  0.82239000  1.0 -0.1061644096
C  C182  1  0.83070000  0.43469000  0.32239000  1.0 -0.1061644096
C  C183  1  0.16930000  0.93469000  0.17761000  1.0 -0.1061644096
C  C184  1  0.33070000  0.06531000  0.67761000  1.0 -0.1061644096
C  C185  1  0.06531000  0.67761000  0.33070000  1.0 -0.1061644096
C  C186  1  0.93469000  0.17761000  0.16930000  1.0 -0.1061644096
C  C187  1  0.43469000  0.32239000  0.83070000  1.0 -0.1061644096
C  C188  1  0.56531000  0.82239000  0.66930000  1.0 -0.1061644096
C  C189  1  0.17761000  0.16930000  0.93469000  1.0 -0.1061644096
C  C190  1  0.67761000  0.33070000  0.06531000  1.0 -0.1061644096
C  C191  1  0.82239000  0.66930000  0.56531000  1.0 -0.1061644096
C  C192  1  0.32239000  0.83070000  0.43469000  1.0 -0.1061644096
N  N1  1  0.67461000  0.30554000  0.87834000  1.0 -0.4097525062
N  N2  1  0.82539000  0.69446000  0.37834000  1.0 -0.4097525062
N  N3  1  0.32539000  0.80554000  0.62166000  1.0 -0.4097525062
N  N4  1  0.17461000  0.19446000  0.12166000  1.0 -0.4097525062
N  N5  1  0.87834000  0.67461000  0.30554000  1.0 -0.4097525062
N  N6  1  0.37834000  0.82539000  0.69446000  1.0 -0.4097525062
N  N7  1  0.62166000  0.32539000  0.80554000  1.0 -0.4097525062
N  N8  1  0.12166000  0.17461000  0.19446000  1.0 -0.4097525062
N  N9  1  0.30554000  0.87834000  0.67461000  1.0 -0.4097525062
N  N10  1  0.69446000  0.37834000  0.82539000  1.0 -0.4097525062
N  N11  1  0.80554000  0.62166000  0.32539000  1.0 -0.4097525062
N  N12  1  0.19446000  0.12166000  0.17461000  1.0 -0.4097525062
N  N13  1  0.55554000  0.42461000  0.87166000  1.0 -0.4097525062
N  N14  1  0.94446000  0.57539000  0.37166000  1.0 -0.4097525062
N  N15  1  0.05554000  0.07539000  0.12834000  1.0 -0.4097525062
N  N16  1  0.44446000  0.92461000  0.62834000  1.0 -0.4097525062
N  N17  1  0.92461000  0.62834000  0.44446000  1.0 -0.4097525062
N  N18  1  0.07539000  0.12834000  0.05554000  1.0 -0.4097525062
N  N19  1  0.57539000  0.37166000  0.94446000  1.0 -0.4097525062
N  N20  1  0.42461000  0.87166000  0.55554000  1.0 -0.4097525062
N  N21  1  0.12834000  0.05554000  0.07539000  1.0 -0.4097525062
N  N22  1  0.62834000  0.44446000  0.92461000  1.0 -0.4097525062
N  N23  1  0.87166000  0.55554000  0.42461000  1.0 -0.4097525062
N  N24  1  0.37166000  0.94446000  0.57539000  1.0 -0.4097525062
O  O1  1  0.87737000  0.37083000  0.04429000  1.0 -0.5486754133
O  O2  1  0.62263000  0.62917000  0.54429000  1.0 -0.5486754133
O  O3  1  0.12263000  0.87083000  0.45571000  1.0 -0.5486754133
O  O4  1  0.37737000  0.12917000  0.95571000  1.0 -0.5486754133
O  O5  1  0.04429000  0.87737000  0.37083000  1.0 -0.5486754133
O  O6  1  0.54429000  0.62263000  0.62917000  1.0 -0.5486754133
O  O7  1  0.45571000  0.12263000  0.87083000  1.0 -0.5486754133
O  O8  1  0.95571000  0.37737000  0.12917000  1.0 -0.5486754133
O  O9  1  0.37083000  0.04429000  0.87737000  1.0 -0.5486754133
O  O10  1  0.62917000  0.54429000  0.62263000  1.0 -0.5486754133
O  O11  1  0.87083000  0.45571000  0.12263000  1.0 -0.5486754133
O  O12  1  0.12917000  0.95571000  0.37737000  1.0 -0.5486754133
O  O13  1  0.62083000  0.62737000  0.70571000  1.0 -0.5486754133
O  O14  1  0.87917000  0.37263000  0.20571000  1.0 -0.5486754133
O  O15  1  0.12083000  0.87263000  0.29429000  1.0 -0.5486754133
O  O16  1  0.37917000  0.12737000  0.79429000  1.0 -0.5486754133
O  O17  1  0.12737000  0.79429000  0.37917000  1.0 -0.5486754133
O  O18  1  0.87263000  0.29429000  0.12083000  1.0 -0.5486754133
O  O19  1  0.37263000  0.20571000  0.87917000  1.0 -0.5486754133
O  O20  1  0.62737000  0.70571000  0.62083000  1.0 -0.5486754133
O  O21  1  0.29429000  0.12083000  0.87263000  1.0 -0.5486754133
O  O22  1  0.79429000  0.37917000  0.12737000  1.0 -0.5486754133
O  O23  1  0.70571000  0.62083000  0.62737000  1.0 -0.5486754133
O  O24  1  0.20571000  0.87917000  0.37263000  1.0 -0.5486754133
O  O25  1  0.89887000  0.43904000  0.99663000  1.0 -0.5486754133
O  O26  1  0.60113000  0.56096000  0.49663000  1.0 -0.5486754133
O  O27  1  0.10113000  0.93904000  0.50337000  1.0 -0.5447512649
O  O28  1  0.39887000  0.06096000  0.00337000  1.0 -0.5486754133
O  O29  1  0.99663000  0.89887000  0.43904000  1.0 -0.5447512649
O  O30  1  0.49663000  0.60113000  0.56096000  1.0 -0.5486754133
O  O31  1  0.50337000  0.10113000  0.93904000  1.0 -0.5486754133
O  O32  1  0.00337000  0.39887000  0.06096000  1.0 -0.5486754133
O  O33  1  0.43904000  0.99663000  0.89887000  1.0 -0.5486754133
O  O34  1  0.56096000  0.49663000  0.60113000  1.0 -0.5486754133
O  O35  1  0.93904000  0.50337000  0.10113000  1.0 -0.5486754133
O  O36  1  0.06096000  0.00337000  0.39887000  1.0 -0.5447512649
O  O37  1  0.68904000  0.64887000  0.75337000  1.0 -0.5486754133
O  O38  1  0.81096000  0.35113000  0.25337000  1.0 -0.5486754133
O  O39  1  0.18904000  0.85113000  0.24663000  1.0 -0.5447512649
O  O40  1  0.31096000  0.14887000  0.74663000  1.0 -0.5486754133
O  O41  1  0.14887000  0.74663000  0.31096000  1.0 -0.5447512649
O  O42  1  0.85113000  0.24663000  0.18904000  1.0 -0.5486754133
O  O43  1  0.35113000  0.25337000  0.81096000  1.0 -0.5486754133
O  O44  1  0.64887000  0.75337000  0.68904000  1.0 -0.5486754133
O  O45  1  0.24663000  0.18904000  0.85113000  1.0 -0.5486754133
O  O46  1  0.74663000  0.31096000  0.14887000  1.0 -0.5486754133
O  O47  1  0.75337000  0.68904000  0.64887000  1.0 -0.5486754133
O  O48  1  0.25337000  0.81096000  0.35113000  1.0 -0.5447512649
