# DDEC6 charges by PACMAN v1.1 (https://github.com/mtap-research/PACMAN-charge/)
data_PIBPIA_ASR_pacman
_symmetry_space_group_name_H-M   'P 1'
_cell_length_a   26.00100000
_cell_length_b   26.00100000
_cell_length_c   26.00100000
_cell_angle_alpha   90.00000000
_cell_angle_beta   90.00000000
_cell_angle_gamma   90.00000000
_symmetry_Int_Tables_number   1
_chemical_formula_structural   CdH8C16(NO2)2
_chemical_formula_sum   'Cd12 H96 C192 N24 O48'
_cell_volume   17578.02807800
_cell_formula_units_Z   12
loop_
 _symmetry_equiv_pos_site_id
 _symmetry_equiv_pos_as_xyz
  1  'x, y, z'
loop_
 _atom_site_type_symbol
 _atom_site_label
 _atom_site_symmetry_multiplicity
 _atom_site_fract_x
 _atom_site_fract_y
 _atom_site_fract_z
 _atom_site_occupancy
 _atom_site_charge
Cd  Cd1  1  0.12500000  0.12500000  0.12500000  1.0 1.0825372359
Cd  Cd2  1  0.37500000  0.87500000  0.62500000  1.0 1.0825372359
Cd  Cd3  1  0.87500000  0.62500000  0.37500000  1.0 1.0825372359
Cd  Cd4  1  0.62500000  0.37500000  0.87500000  1.0 1.0825372359
Cd  Cd5  1  0.20625000  0.20625000  0.20625000  1.0 0.9773668667
Cd  Cd6  1  0.29375000  0.79375000  0.70625000  1.0 0.9773668667
Cd  Cd7  1  0.79375000  0.70625000  0.29375000  1.0 0.9773668667
Cd  Cd8  1  0.70625000  0.29375000  0.79375000  1.0 0.9773668667
Cd  Cd9  1  0.45625000  0.95625000  0.54375000  1.0 0.9773668667
Cd  Cd10  1  0.04375000  0.04375000  0.04375000  1.0 0.9773668667
Cd  Cd11  1  0.95625000  0.54375000  0.45625000  1.0 0.9773668667
Cd  Cd12  1  0.54375000  0.45625000  0.95625000  1.0 0.9773668667
H  H1  1  0.06070000  0.25120000  0.06030000  1.0 0.1257023981
H  H2  1  0.43930000  0.74880000  0.56030000  1.0 0.1257023981
H  H3  1  0.93930000  0.75120000  0.43970000  1.0 0.1257023981
H  H4  1  0.56070000  0.24880000  0.93970000  1.0 0.1257023981
H  H5  1  0.06030000  0.06070000  0.25120000  1.0 0.1257023981
H  H6  1  0.56030000  0.43930000  0.74880000  1.0 0.1257023981
H  H7  1  0.43970000  0.93930000  0.75120000  1.0 0.1257023981
H  H8  1  0.93970000  0.56070000  0.24880000  1.0 0.1257023981
H  H9  1  0.25120000  0.06030000  0.06070000  1.0 0.1257023981
H  H10  1  0.74880000  0.56030000  0.43930000  1.0 0.1257023981
H  H11  1  0.75120000  0.43970000  0.93930000  1.0 0.1257023981
H  H12  1  0.24880000  0.93970000  0.56070000  1.0 0.1257023981
H  H13  1  0.50120000  0.81070000  0.68970000  1.0 0.1257023981
H  H14  1  0.99880000  0.18930000  0.18970000  1.0 0.1257023981
H  H15  1  0.00120000  0.68930000  0.31030000  1.0 0.1257023981
H  H16  1  0.49880000  0.31070000  0.81030000  1.0 0.1257023981
H  H17  1  0.31070000  0.81030000  0.49880000  1.0 0.1257023981
H  H18  1  0.68930000  0.31030000  0.00120000  1.0 0.1257023981
H  H19  1  0.18930000  0.18970000  0.99880000  1.0 0.1257023981
H  H20  1  0.81070000  0.68970000  0.50120000  1.0 0.1257023981
H  H21  1  0.31030000  0.00120000  0.68930000  1.0 0.1257023981
H  H22  1  0.81030000  0.49880000  0.31070000  1.0 0.1257023981
H  H23  1  0.68970000  0.50120000  0.81070000  1.0 0.1257023981
H  H24  1  0.18970000  0.99880000  0.18930000  1.0 0.1257023981
H  H25  1  0.01670000  0.38530000  0.17720000  1.0 0.1140002554
H  H26  1  0.48330000  0.61470000  0.67720000  1.0 0.1140002554
H  H27  1  0.98330000  0.88530000  0.32280000  1.0 0.1140002554
H  H28  1  0.51670000  0.11470000  0.82280000  1.0 0.1140002554
H  H29  1  0.17720000  0.01670000  0.38530000  1.0 0.1140002554
H  H30  1  0.67720000  0.48330000  0.61470000  1.0 0.1140002554
H  H31  1  0.32280000  0.98330000  0.88530000  1.0 0.1140002554
H  H32  1  0.82280000  0.51670000  0.11470000  1.0 0.1140002554
H  H33  1  0.38530000  0.17720000  0.01670000  1.0 0.1140002554
H  H34  1  0.61470000  0.67720000  0.48330000  1.0 0.1140002554
H  H35  1  0.88530000  0.32280000  0.98330000  1.0 0.1140002554
H  H36  1  0.11470000  0.82280000  0.51670000  1.0 0.1140002554
H  H37  1  0.63530000  0.76670000  0.57280000  1.0 0.1140002554
H  H38  1  0.86470000  0.23330000  0.07280000  1.0 0.1140002554
H  H39  1  0.13530000  0.73330000  0.42720000  1.0 0.1140002554
H  H40  1  0.36470000  0.26670000  0.92720000  1.0 0.1140002554
H  H41  1  0.26670000  0.92720000  0.36470000  1.0 0.1140002554
H  H42  1  0.73330000  0.42720000  0.13530000  1.0 0.1140002554
H  H43  1  0.23330000  0.07280000  0.86470000  1.0 0.1140002554
H  H44  1  0.76670000  0.57280000  0.63530000  1.0 0.1140002554
H  H45  1  0.42720000  0.13530000  0.73330000  1.0 0.1140002554
H  H46  1  0.92720000  0.36470000  0.26670000  1.0 0.1140002554
H  H47  1  0.57280000  0.63530000  0.76670000  1.0 0.1140002554
H  H48  1  0.07280000  0.86470000  0.23330000  1.0 0.1140002554
H  H49  1  0.99410000  0.30520000  0.04600000  1.0 0.1182138865
H  H50  1  0.50590000  0.69480000  0.54600000  1.0 0.1182138865
H  H51  1  0.00590000  0.80520000  0.45400000  1.0 0.1182138865
H  H52  1  0.49410000  0.19480000  0.95400000  1.0 0.1182138865
H  H53  1  0.04600000  0.99410000  0.30520000  1.0 0.1182138865
H  H54  1  0.54600000  0.50590000  0.69480000  1.0 0.1182138865
H  H55  1  0.45400000  0.00590000  0.80520000  1.0 0.1182138865
H  H56  1  0.95400000  0.49410000  0.19480000  1.0 0.1182138865
H  H57  1  0.30520000  0.04600000  0.99410000  1.0 0.1182138865
H  H58  1  0.69480000  0.54600000  0.50590000  1.0 0.1182138865
H  H59  1  0.80520000  0.45400000  0.00590000  1.0 0.1182138865
H  H60  1  0.19480000  0.95400000  0.49410000  1.0 0.1182138865
H  H61  1  0.55520000  0.74410000  0.70400000  1.0 0.1182138865
H  H62  1  0.94480000  0.25590000  0.20400000  1.0 0.1182138865
H  H63  1  0.05520000  0.75590000  0.29600000  1.0 0.1182138865
H  H64  1  0.44480000  0.24410000  0.79600000  1.0 0.1182138865
H  H65  1  0.24410000  0.79600000  0.44480000  1.0 0.1182138865
H  H66  1  0.75590000  0.29600000  0.05520000  1.0 0.1182138865
H  H67  1  0.25590000  0.20400000  0.94480000  1.0 0.1182138865
H  H68  1  0.74410000  0.70400000  0.55520000  1.0 0.1182138865
H  H69  1  0.29600000  0.05520000  0.75590000  1.0 0.1182138865
H  H70  1  0.79600000  0.44480000  0.24410000  1.0 0.1182138865
H  H71  1  0.70400000  0.55520000  0.74410000  1.0 0.1182138865
H  H72  1  0.20400000  0.94480000  0.25590000  1.0 0.1182138865
H  H73  1  0.08050000  0.32430000  0.19760000  1.0 0.1182138865
H  H74  1  0.41950000  0.67570000  0.69760000  1.0 0.1182138865
H  H75  1  0.91950000  0.82430000  0.30240000  1.0 0.1182138865
H  H76  1  0.58050000  0.17570000  0.80240000  1.0 0.1182138865
H  H77  1  0.19760000  0.08050000  0.32430000  1.0 0.1182138865
H  H78  1  0.69760000  0.41950000  0.67570000  1.0 0.1182138865
H  H79  1  0.30240000  0.91950000  0.82430000  1.0 0.1182138865
H  H80  1  0.80240000  0.58050000  0.17570000  1.0 0.1182138865
H  H81  1  0.32430000  0.19760000  0.08050000  1.0 0.1182138865
H  H82  1  0.67570000  0.69760000  0.41950000  1.0 0.1182138865
H  H83  1  0.82430000  0.30240000  0.91950000  1.0 0.1182138865
H  H84  1  0.17570000  0.80240000  0.58050000  1.0 0.1182138865
H  H85  1  0.57430000  0.83050000  0.55240000  1.0 0.1182138865
H  H86  1  0.92570000  0.16950000  0.05240000  1.0 0.1182138865
H  H87  1  0.07430000  0.66950000  0.44760000  1.0 0.1182138865
H  H88  1  0.42570000  0.33050000  0.94760000  1.0 0.1182138865
H  H89  1  0.33050000  0.94760000  0.42570000  1.0 0.1182138865
H  H90  1  0.66950000  0.44760000  0.07430000  1.0 0.1182138865
H  H91  1  0.16950000  0.05240000  0.92570000  1.0 0.1182138865
H  H92  1  0.83050000  0.55240000  0.57430000  1.0 0.1182138865
H  H93  1  0.44760000  0.07430000  0.66950000  1.0 0.1182138865
H  H94  1  0.94760000  0.42570000  0.33050000  1.0 0.1182138865
H  H95  1  0.55240000  0.57430000  0.83050000  1.0 0.1182138865
H  H96  1  0.05240000  0.92570000  0.16950000  1.0 0.1182138865
C  C1  1  0.95400000  0.38470000  0.09800000  1.0 0.3460214159
C  C2  1  0.54600000  0.61530000  0.59800000  1.0 0.3460214159
C  C3  1  0.04600000  0.88470000  0.40200000  1.0 0.3460214159
C  C4  1  0.45400000  0.11530000  0.90200000  1.0 0.3460214159
C  C5  1  0.09800000  0.95400000  0.38470000  1.0 0.3460214159
C  C6  1  0.59800000  0.54600000  0.61530000  1.0 0.3460214159
C  C7  1  0.40200000  0.04600000  0.88470000  1.0 0.3460214159
C  C8  1  0.90200000  0.45400000  0.11530000  1.0 0.3460214159
C  C9  1  0.38470000  0.09800000  0.95400000  1.0 0.3460214159
C  C10  1  0.61530000  0.59800000  0.54600000  1.0 0.3460214159
C  C11  1  0.88470000  0.40200000  0.04600000  1.0 0.3460214159
C  C12  1  0.11530000  0.90200000  0.45400000  1.0 0.3460214159
C  C13  1  0.63470000  0.70400000  0.65200000  1.0 0.3460214159
C  C14  1  0.86530000  0.29600000  0.15200000  1.0 0.3460214159
C  C15  1  0.13470000  0.79600000  0.34800000  1.0 0.3460214159
C  C16  1  0.36530000  0.20400000  0.84800000  1.0 0.3460214159
C  C17  1  0.20400000  0.84800000  0.36530000  1.0 0.3460214159
C  C18  1  0.79600000  0.34800000  0.13470000  1.0 0.3460214159
C  C19  1  0.29600000  0.15200000  0.86530000  1.0 0.3460214159
C  C20  1  0.70400000  0.65200000  0.63470000  1.0 0.3460214159
C  C21  1  0.34800000  0.13470000  0.79600000  1.0 0.3460214159
C  C22  1  0.84800000  0.36530000  0.20400000  1.0 0.3460214159
C  C23  1  0.65200000  0.63470000  0.70400000  1.0 0.3460214159
C  C24  1  0.15200000  0.86530000  0.29600000  1.0 0.3460214159
C  C25  1  0.05080000  0.27610000  0.08400000  1.0 -0.1100854005
C  C26  1  0.44920000  0.72390000  0.58400000  1.0 -0.1100854005
C  C27  1  0.94920000  0.77610000  0.41600000  1.0 -0.1100854005
C  C28  1  0.55080000  0.22390000  0.91600000  1.0 -0.1100854005
C  C29  1  0.08400000  0.05080000  0.27610000  1.0 -0.1100854005
C  C30  1  0.58400000  0.44920000  0.72390000  1.0 -0.1100854005
C  C31  1  0.41600000  0.94920000  0.77610000  1.0 -0.1100854005
C  C32  1  0.91600000  0.55080000  0.22390000  1.0 -0.1100854005
C  C33  1  0.27610000  0.08400000  0.05080000  1.0 -0.1100854005
C  C34  1  0.72390000  0.58400000  0.44920000  1.0 -0.1100854005
C  C35  1  0.77610000  0.41600000  0.94920000  1.0 -0.1100854005
C  C36  1  0.22390000  0.91600000  0.55080000  1.0 -0.1100854005
C  C37  1  0.52610000  0.80080000  0.66600000  1.0 -0.1100854005
C  C38  1  0.97390000  0.19920000  0.16600000  1.0 -0.1100854005
C  C39  1  0.02610000  0.69920000  0.33400000  1.0 -0.1100854005
C  C40  1  0.47390000  0.30080000  0.83400000  1.0 -0.1100854005
C  C41  1  0.30080000  0.83400000  0.47390000  1.0 -0.1100854005
C  C42  1  0.69920000  0.33400000  0.02610000  1.0 -0.1100854005
C  C43  1  0.19920000  0.16600000  0.97390000  1.0 -0.1100854005
C  C44  1  0.80080000  0.66600000  0.52610000  1.0 -0.1100854005
C  C45  1  0.33400000  0.02610000  0.69920000  1.0 -0.1100854005
C  C46  1  0.83400000  0.47390000  0.30080000  1.0 -0.1100854005
C  C47  1  0.66600000  0.52610000  0.80080000  1.0 -0.1100854005
C  C48  1  0.16600000  0.97390000  0.19920000  1.0 -0.1100854005
C  C49  1  0.02370000  0.35810000  0.15510000  1.0 -0.1028064469
C  C50  1  0.47630000  0.64190000  0.65510000  1.0 -0.1028064469
C  C51  1  0.97630000  0.85810000  0.34490000  1.0 -0.1028064469
C  C52  1  0.52370000  0.14190000  0.84490000  1.0 -0.1028064469
C  C53  1  0.15510000  0.02370000  0.35810000  1.0 -0.1028064469
C  C54  1  0.65510000  0.47630000  0.64190000  1.0 -0.1028064469
C  C55  1  0.34490000  0.97630000  0.85810000  1.0 -0.1028064469
C  C56  1  0.84490000  0.52370000  0.14190000  1.0 -0.1028064469
C  C57  1  0.35810000  0.15510000  0.02370000  1.0 -0.1028064469
C  C58  1  0.64190000  0.65510000  0.47630000  1.0 -0.1028064469
C  C59  1  0.85810000  0.34490000  0.97630000  1.0 -0.1028064469
C  C60  1  0.14190000  0.84490000  0.52370000  1.0 -0.1028064469
C  C61  1  0.60810000  0.77370000  0.59490000  1.0 -0.1028064469
C  C62  1  0.89190000  0.22630000  0.09490000  1.0 -0.1028064469
C  C63  1  0.10810000  0.72630000  0.40510000  1.0 -0.1028064469
C  C64  1  0.39190000  0.27370000  0.90510000  1.0 -0.1028064469
C  C65  1  0.27370000  0.90510000  0.39190000  1.0 -0.1028064469
C  C66  1  0.72630000  0.40510000  0.10810000  1.0 -0.1028064469
C  C67  1  0.22630000  0.09490000  0.89190000  1.0 -0.1028064469
C  C68  1  0.77370000  0.59490000  0.60810000  1.0 -0.1028064469
C  C69  1  0.40510000  0.10810000  0.72630000  1.0 -0.1028064469
C  C70  1  0.90510000  0.39190000  0.27370000  1.0 -0.1028064469
C  C71  1  0.59490000  0.60810000  0.77370000  1.0 -0.1028064469
C  C72  1  0.09490000  0.89190000  0.22630000  1.0 -0.1028064469
C  C73  1  0.01260000  0.30940000  0.07630000  1.0 -0.1100854005
C  C74  1  0.48740000  0.69060000  0.57630000  1.0 -0.1100854005
C  C75  1  0.98740000  0.80940000  0.42370000  1.0 -0.1100854005
C  C76  1  0.51260000  0.19060000  0.92370000  1.0 -0.1100854005
C  C77  1  0.07630000  0.01260000  0.30940000  1.0 -0.1100854005
C  C78  1  0.57630000  0.48740000  0.69060000  1.0 -0.1100854005
C  C79  1  0.42370000  0.98740000  0.80940000  1.0 -0.1100854005
C  C80  1  0.92370000  0.51260000  0.19060000  1.0 -0.1100854005
C  C81  1  0.30940000  0.07630000  0.01260000  1.0 -0.1100854005
C  C82  1  0.69060000  0.57630000  0.48740000  1.0 -0.1100854005
C  C83  1  0.80940000  0.42370000  0.98740000  1.0 -0.1100854005
C  C84  1  0.19060000  0.92370000  0.51260000  1.0 -0.1100854005
C  C85  1  0.55940000  0.76260000  0.67370000  1.0 -0.1100854005
C  C86  1  0.94060000  0.23740000  0.17370000  1.0 -0.1100854005
C  C87  1  0.05940000  0.73740000  0.32630000  1.0 -0.1100854005
C  C88  1  0.44060000  0.26260000  0.82630000  1.0 -0.1100854005
C  C89  1  0.26260000  0.82630000  0.44060000  1.0 -0.1100854005
C  C90  1  0.73740000  0.32630000  0.05940000  1.0 -0.1100854005
C  C91  1  0.23740000  0.17370000  0.94060000  1.0 -0.1100854005
C  C92  1  0.76260000  0.67370000  0.55940000  1.0 -0.1100854005
C  C93  1  0.32630000  0.05940000  0.73740000  1.0 -0.1100854005
C  C94  1  0.82630000  0.44060000  0.26260000  1.0 -0.1100854005
C  C95  1  0.67370000  0.55940000  0.76260000  1.0 -0.1100854005
C  C96  1  0.17370000  0.94060000  0.23740000  1.0 -0.1100854005
C  C97  1  0.99620000  0.35150000  0.10950000  1.0 -0.0014838056
C  C98  1  0.50380000  0.64850000  0.60950000  1.0 -0.0014838056
C  C99  1  0.00380000  0.85150000  0.39050000  1.0 -0.0014838056
C  C100  1  0.49620000  0.14850000  0.89050000  1.0 -0.0014838056
C  C101  1  0.10950000  0.99620000  0.35150000  1.0 -0.0014838056
C  C102  1  0.60950000  0.50380000  0.64850000  1.0 -0.0014838056
C  C103  1  0.39050000  0.00380000  0.85150000  1.0 -0.0014838056
C  C104  1  0.89050000  0.49620000  0.14850000  1.0 -0.0014838056
C  C105  1  0.35150000  0.10950000  0.99620000  1.0 -0.0014838056
C  C106  1  0.64850000  0.60950000  0.50380000  1.0 -0.0014838056
C  C107  1  0.85150000  0.39050000  0.00380000  1.0 -0.0014838056
C  C108  1  0.14850000  0.89050000  0.49620000  1.0 -0.0014838056
C  C109  1  0.60150000  0.74620000  0.64050000  1.0 -0.0014838056
C  C110  1  0.89850000  0.25380000  0.14050000  1.0 -0.0014838056
C  C111  1  0.10150000  0.75380000  0.35950000  1.0 -0.0014838056
C  C112  1  0.39850000  0.24620000  0.85950000  1.0 -0.0014838056
C  C113  1  0.24620000  0.85950000  0.39850000  1.0 -0.0014838056
C  C114  1  0.75380000  0.35950000  0.10150000  1.0 -0.0014838056
C  C115  1  0.25380000  0.14050000  0.89850000  1.0 -0.0014838056
C  C116  1  0.74620000  0.64050000  0.60150000  1.0 -0.0014838056
C  C117  1  0.35950000  0.10150000  0.75380000  1.0 -0.0014838056
C  C118  1  0.85950000  0.39850000  0.24620000  1.0 -0.0014838056
C  C119  1  0.64050000  0.60150000  0.74620000  1.0 -0.0014838056
C  C120  1  0.14050000  0.89850000  0.25380000  1.0 -0.0014838056
C  C121  1  0.07440000  0.28290000  0.13210000  1.0 -0.0165245985
C  C122  1  0.42560000  0.71710000  0.63210000  1.0 -0.0165245985
C  C123  1  0.92560000  0.78290000  0.36790000  1.0 -0.0165245985
C  C124  1  0.57440000  0.21710000  0.86790000  1.0 -0.0165245985
C  C125  1  0.13210000  0.07440000  0.28290000  1.0 -0.0165245985
C  C126  1  0.63210000  0.42560000  0.71710000  1.0 -0.0165245985
C  C127  1  0.36790000  0.92560000  0.78290000  1.0 -0.0165245985
C  C128  1  0.86790000  0.57440000  0.21710000  1.0 -0.0165245985
C  C129  1  0.28290000  0.13210000  0.07440000  1.0 -0.0165245985
C  C130  1  0.71710000  0.63210000  0.42560000  1.0 -0.0165245985
C  C131  1  0.78290000  0.36790000  0.92560000  1.0 -0.0165245985
C  C132  1  0.21710000  0.86790000  0.57440000  1.0 -0.0165245985
C  C133  1  0.53290000  0.82440000  0.61790000  1.0 -0.0165245985
C  C134  1  0.96710000  0.17560000  0.11790000  1.0 -0.0165245985
C  C135  1  0.03290000  0.67560000  0.38210000  1.0 -0.0165245985
C  C136  1  0.46710000  0.32440000  0.88210000  1.0 -0.0165245985
C  C137  1  0.32440000  0.88210000  0.46710000  1.0 -0.0165245985
C  C138  1  0.67560000  0.38210000  0.03290000  1.0 -0.0165245985
C  C139  1  0.17560000  0.11790000  0.96710000  1.0 -0.0165245985
C  C140  1  0.82440000  0.61790000  0.53290000  1.0 -0.0165245985
C  C141  1  0.38210000  0.03290000  0.67560000  1.0 -0.0165245985
C  C142  1  0.88210000  0.46710000  0.32440000  1.0 -0.0165245985
C  C143  1  0.61790000  0.53290000  0.82440000  1.0 -0.0165245985
C  C144  1  0.11790000  0.96710000  0.17560000  1.0 -0.0165245985
C  C145  1  0.12050000  0.25060000  0.15460000  1.0 0.5710714778
C  C146  1  0.37950000  0.74940000  0.65460000  1.0 0.5710714778
C  C147  1  0.87950000  0.75060000  0.34540000  1.0 0.5710714778
C  C148  1  0.62050000  0.24940000  0.84540000  1.0 0.5710714778
C  C149  1  0.15460000  0.12050000  0.25060000  1.0 0.5710714778
C  C150  1  0.65460000  0.37950000  0.74940000  1.0 0.5710714778
C  C151  1  0.34540000  0.87950000  0.75060000  1.0 0.5710714778
C  C152  1  0.84540000  0.62050000  0.24940000  1.0 0.5710714778
C  C153  1  0.25060000  0.15460000  0.12050000  1.0 0.5710714778
C  C154  1  0.74940000  0.65460000  0.37950000  1.0 0.5710714778
C  C155  1  0.75060000  0.34540000  0.87950000  1.0 0.5710714778
C  C156  1  0.24940000  0.84540000  0.62050000  1.0 0.5710714778
C  C157  1  0.50060000  0.87050000  0.59540000  1.0 0.5710714778
C  C158  1  0.99940000  0.12950000  0.09540000  1.0 0.5710714778
C  C159  1  0.00060000  0.62950000  0.40460000  1.0 0.5710714778
C  C160  1  0.49940000  0.37050000  0.90460000  1.0 0.5710714778
C  C161  1  0.37050000  0.90460000  0.49940000  1.0 0.5710714778
C  C162  1  0.62950000  0.40460000  0.00060000  1.0 0.5710714778
C  C163  1  0.12950000  0.09540000  0.99940000  1.0 0.5710714778
C  C164  1  0.87050000  0.59540000  0.50060000  1.0 0.5710714778
C  C165  1  0.40460000  0.00060000  0.62950000  1.0 0.5710714778
C  C166  1  0.90460000  0.49940000  0.37050000  1.0 0.5710714778
C  C167  1  0.59540000  0.50060000  0.87050000  1.0 0.5710714778
C  C168  1  0.09540000  0.99940000  0.12950000  1.0 0.5710714778
C  C169  1  0.06270000  0.32200000  0.16670000  1.0 -0.1319483116
C  C170  1  0.43730000  0.67800000  0.66666667  1.0 -0.1319483116
C  C171  1  0.93730000  0.82200000  0.33333333  1.0 -0.1319483116
C  C172  1  0.56270000  0.17800000  0.83330000  1.0 -0.1319483116
C  C173  1  0.16670000  0.06270000  0.32200000  1.0 -0.1319483116
C  C174  1  0.66666667  0.43730000  0.67800000  1.0 -0.1319483116
C  C175  1  0.33333333  0.93730000  0.82200000  1.0 -0.1319483116
C  C176  1  0.83330000  0.56270000  0.17800000  1.0 -0.1319483116
C  C177  1  0.32200000  0.16670000  0.06270000  1.0 -0.1319483116
C  C178  1  0.67800000  0.66666667  0.43730000  1.0 -0.1319483116
C  C179  1  0.82200000  0.33333333  0.93730000  1.0 -0.1319483116
C  C180  1  0.17800000  0.83330000  0.56270000  1.0 -0.1319483116
C  C181  1  0.57200000  0.81270000  0.58330000  1.0 -0.1319483116
C  C182  1  0.92800000  0.18730000  0.08330000  1.0 -0.1319483116
C  C183  1  0.07200000  0.68730000  0.41670000  1.0 -0.1319483116
C  C184  1  0.42800000  0.31270000  0.91670000  1.0 -0.1319483116
C  C185  1  0.31270000  0.91670000  0.42800000  1.0 -0.1319483116
C  C186  1  0.68730000  0.41670000  0.07200000  1.0 -0.1319483116
C  C187  1  0.18730000  0.08330000  0.92800000  1.0 -0.1319483116
C  C188  1  0.81270000  0.58330000  0.57200000  1.0 -0.1319483116
C  C189  1  0.41670000  0.07200000  0.68730000  1.0 -0.1319483116
C  C190  1  0.91670000  0.42800000  0.31270000  1.0 -0.1319483116
C  C191  1  0.58330000  0.57200000  0.81270000  1.0 -0.1319483116
C  C192  1  0.08330000  0.92800000  0.18730000  1.0 -0.1319483116
N  N1  1  0.94300000  0.42580000  0.12670000  1.0 -0.4053233543
N  N2  1  0.55700000  0.57420000  0.62670000  1.0 -0.4053233543
N  N3  1  0.05700000  0.92580000  0.37330000  1.0 -0.4053233543
N  N4  1  0.44300000  0.07420000  0.87330000  1.0 -0.4053233543
N  N5  1  0.12670000  0.94300000  0.42580000  1.0 -0.4053233543
N  N6  1  0.62670000  0.55700000  0.57420000  1.0 -0.4053233543
N  N7  1  0.37330000  0.05700000  0.92580000  1.0 -0.4053233543
N  N8  1  0.87330000  0.44300000  0.07420000  1.0 -0.4053233543
N  N9  1  0.42580000  0.12670000  0.94300000  1.0 -0.4053233543
N  N10  1  0.57420000  0.62670000  0.55700000  1.0 -0.4053233543
N  N11  1  0.92580000  0.37330000  0.05700000  1.0 -0.4053233543
N  N12  1  0.07420000  0.87330000  0.44300000  1.0 -0.4053233543
N  N13  1  0.67580000  0.69300000  0.62330000  1.0 -0.4053233543
N  N14  1  0.82420000  0.30700000  0.12330000  1.0 -0.4053233543
N  N15  1  0.17580000  0.80700000  0.37670000  1.0 -0.4053233543
N  N16  1  0.32420000  0.19300000  0.87670000  1.0 -0.4053233543
N  N17  1  0.19300000  0.87670000  0.32420000  1.0 -0.4053233543
N  N18  1  0.80700000  0.37670000  0.17580000  1.0 -0.4053233543
N  N19  1  0.30700000  0.12330000  0.82420000  1.0 -0.4053233543
N  N20  1  0.69300000  0.62330000  0.67580000  1.0 -0.4053233543
N  N21  1  0.37670000  0.17580000  0.80700000  1.0 -0.4053233543
N  N22  1  0.87670000  0.32420000  0.19300000  1.0 -0.4053233543
N  N23  1  0.62330000  0.67580000  0.69300000  1.0 -0.4053233543
N  N24  1  0.12330000  0.82420000  0.30700000  1.0 -0.4053233543
O  O1  1  0.14720000  0.26000000  0.18940000  1.0 -0.4656721693
O  O2  1  0.35280000  0.74000000  0.68940000  1.0 -0.4656721693
O  O3  1  0.85280000  0.76000000  0.31060000  1.0 -0.4656721693
O  O4  1  0.64720000  0.24000000  0.81060000  1.0 -0.4656721693
O  O5  1  0.18940000  0.14720000  0.26000000  1.0 -0.4656721693
O  O6  1  0.68940000  0.35280000  0.74000000  1.0 -0.4656721693
O  O7  1  0.31060000  0.85280000  0.76000000  1.0 -0.4656721693
O  O8  1  0.81060000  0.64720000  0.24000000  1.0 -0.4656721693
O  O9  1  0.26000000  0.18940000  0.14720000  1.0 -0.4656721693
O  O10  1  0.74000000  0.68940000  0.35280000  1.0 -0.4656721693
O  O11  1  0.76000000  0.31060000  0.85280000  1.0 -0.4656721693
O  O12  1  0.24000000  0.81060000  0.64720000  1.0 -0.4656721693
O  O13  1  0.51000000  0.89720000  0.56060000  1.0 -0.4656721693
O  O14  1  0.99000000  0.10280000  0.06060000  1.0 -0.4656721693
O  O15  1  0.01000000  0.60280000  0.43940000  1.0 -0.4656721693
O  O16  1  0.49000000  0.39720000  0.93940000  1.0 -0.4656721693
O  O17  1  0.39720000  0.93940000  0.49000000  1.0 -0.4656721693
O  O18  1  0.60280000  0.43940000  0.01000000  1.0 -0.4656721693
O  O19  1  0.10280000  0.06060000  0.99000000  1.0 -0.4656721693
O  O20  1  0.89720000  0.56060000  0.51000000  1.0 -0.4656721693
O  O21  1  0.43940000  0.01000000  0.60280000  1.0 -0.4656721693
O  O22  1  0.93940000  0.49000000  0.39720000  1.0 -0.4656721693
O  O23  1  0.56060000  0.51000000  0.89720000  1.0 -0.4656721693
O  O24  1  0.06060000  0.99000000  0.10280000  1.0 -0.4656721693
O  O25  1  0.12770000  0.21420000  0.12440000  1.0 -0.5555056611
O  O26  1  0.37230000  0.78580000  0.62440000  1.0 -0.5555056611
O  O27  1  0.87230000  0.71420000  0.37560000  1.0 -0.5555056611
O  O28  1  0.62770000  0.28580000  0.87560000  1.0 -0.5555056611
O  O29  1  0.12440000  0.12770000  0.21420000  1.0 -0.5555056611
O  O30  1  0.62440000  0.37230000  0.78580000  1.0 -0.5555056611
O  O31  1  0.37560000  0.87230000  0.71420000  1.0 -0.5555056611
O  O32  1  0.87560000  0.62770000  0.28580000  1.0 -0.5555056611
O  O33  1  0.21420000  0.12440000  0.12770000  1.0 -0.5555056611
O  O34  1  0.78580000  0.62440000  0.37230000  1.0 -0.5555056611
O  O35  1  0.71420000  0.37560000  0.87230000  1.0 -0.5555056611
O  O36  1  0.28580000  0.87560000  0.62770000  1.0 -0.5555056611
O  O37  1  0.46420000  0.87770000  0.62560000  1.0 -0.5555056611
O  O38  1  0.03580000  0.12230000  0.12560000  1.0 -0.5555056611
O  O39  1  0.96420000  0.62230000  0.37440000  1.0 -0.5555056611
O  O40  1  0.53580000  0.37770000  0.87440000  1.0 -0.5555056611
O  O41  1  0.37770000  0.87440000  0.53580000  1.0 -0.5555056611
O  O42  1  0.62230000  0.37440000  0.96420000  1.0 -0.5555056611
O  O43  1  0.12230000  0.12560000  0.03580000  1.0 -0.5555056611
O  O44  1  0.87770000  0.62560000  0.46420000  1.0 -0.5555056611
O  O45  1  0.37440000  0.96420000  0.62230000  1.0 -0.5555056611
O  O46  1  0.87440000  0.53580000  0.37770000  1.0 -0.5555056611
O  O47  1  0.62560000  0.46420000  0.87770000  1.0 -0.5555056611
O  O48  1  0.12560000  0.03580000  0.12230000  1.0 -0.5555056611
