# DDEC6 charges by PACMAN v1.1 (https://github.com/mtap-research/PACMAN-charge/)
data_PIBPAS_ion_pacman
_symmetry_space_group_name_H-M   'P 1'
_cell_length_a   17.87370000
_cell_length_b   17.87370000
_cell_length_c   26.29720000
_cell_angle_alpha   90.00000000
_cell_angle_beta   90.00000000
_cell_angle_gamma   90.00000000
_symmetry_Int_Tables_number   1
_chemical_formula_structural   Zn3H40C54N8O15
_chemical_formula_sum   'Zn12 H160 C216 N32 O60'
_cell_volume   8401.14417582
_cell_formula_units_Z   4
loop_
 _symmetry_equiv_pos_site_id
 _symmetry_equiv_pos_as_xyz
  1  'x, y, z'
loop_
 _atom_site_type_symbol
 _atom_site_label
 _atom_site_symmetry_multiplicity
 _atom_site_fract_x
 _atom_site_fract_y
 _atom_site_fract_z
 _atom_site_occupancy
 _atom_site_charge
Zn  Zn1  1  0.66334000  0.74596000  0.07503000  1.0 0.8575353405
Zn  Zn2  1  0.33666000  0.25404000  0.57503000  1.0 0.8575353405
Zn  Zn3  1  0.25404000  0.66334000  0.82503000  1.0 0.8575353405
Zn  Zn4  1  0.74596000  0.33666000  0.32503000  1.0 0.8575353405
Zn  Zn5  1  0.33666000  0.74596000  0.92497000  1.0 0.8575353405
Zn  Zn6  1  0.66334000  0.25404000  0.42497000  1.0 0.8575353405
Zn  Zn7  1  0.74596000  0.66334000  0.17497000  1.0 0.8575353405
Zn  Zn8  1  0.25404000  0.33666000  0.67497000  1.0 0.8575353405
Zn  Zn9  1  0.50000000  0.74718000  0.00000000  1.0 1.0428329861
Zn  Zn10  1  0.50000000  0.25282000  0.50000000  1.0 1.0428329861
Zn  Zn11  1  0.25282000  0.50000000  0.75000000  1.0 1.0428329861
Zn  Zn12  1  0.74718000  0.50000000  0.25000000  1.0 1.0428329861
H  H1  1  0.53940000  0.62660000  0.19410000  1.0 0.1229257999
H  H2  1  0.46060000  0.37340000  0.69410000  1.0 0.1229257999
H  H3  1  0.37340000  0.53940000  0.94410000  1.0 0.1229257999
H  H4  1  0.62660000  0.46060000  0.44410000  1.0 0.1229257999
H  H5  1  0.46060000  0.62660000  0.80590000  1.0 0.1229257999
H  H6  1  0.53940000  0.37340000  0.30590000  1.0 0.1229257999
H  H7  1  0.62660000  0.53940000  0.05590000  1.0 0.1229257999
H  H8  1  0.37340000  0.46060000  0.55590000  1.0 0.1229257999
H  H9  1  0.45070000  0.57990000  0.25010000  1.0 0.1114244525
H  H10  1  0.54930000  0.42010000  0.75010000  1.0 0.1114244525
H  H11  1  0.42010000  0.45070000  0.00010000  1.0 0.1114244525
H  H12  1  0.57990000  0.54930000  0.50010000  1.0 0.1114244525
H  H13  1  0.54930000  0.57990000  0.74990000  1.0 0.1114244525
H  H14  1  0.45070000  0.42010000  0.24990000  1.0 0.1114244525
H  H15  1  0.57990000  0.45070000  0.99990000  1.0 0.1114244525
H  H16  1  0.42010000  0.54930000  0.49990000  1.0 0.1114244525
H  H17  1  0.29310000  0.70880000  0.18580000  1.0 0.1114244525
H  H18  1  0.70690000  0.29120000  0.68580000  1.0 0.1114244525
H  H19  1  0.29120000  0.29310000  0.93580000  1.0 0.1114244525
H  H20  1  0.70880000  0.70690000  0.43580000  1.0 0.1114244525
H  H21  1  0.70690000  0.70880000  0.81420000  1.0 0.1114244525
H  H22  1  0.29310000  0.29120000  0.31420000  1.0 0.1114244525
H  H23  1  0.70880000  0.29310000  0.06420000  1.0 0.1114244525
H  H24  1  0.29120000  0.70690000  0.56420000  1.0 0.1114244525
H  H25  1  0.37940000  0.75630000  0.12920000  1.0 0.1229257999
H  H26  1  0.62060000  0.24370000  0.62920000  1.0 0.1229257999
H  H27  1  0.24370000  0.37940000  0.87920000  1.0 0.1229257999
H  H28  1  0.75630000  0.62060000  0.37920000  1.0 0.1229257999
H  H29  1  0.62060000  0.75630000  0.87080000  1.0 0.1229257999
H  H30  1  0.37940000  0.24370000  0.37080000  1.0 0.1229257999
H  H31  1  0.75630000  0.37940000  0.12080000  1.0 0.1229257999
H  H32  1  0.24370000  0.62060000  0.62080000  1.0 0.1229257999
H  H33  1  0.99310000  0.66490000  0.17710000  1.0 0.1114244525
H  H34  1  0.00690000  0.33510000  0.67710000  1.0 0.1114244525
H  H35  1  0.33510000  0.99310000  0.92710000  1.0 0.1114244525
H  H36  1  0.66490000  0.00690000  0.42710000  1.0 0.1114244525
H  H37  1  0.00690000  0.66490000  0.82290000  1.0 0.1114244525
H  H38  1  0.99310000  0.33510000  0.32290000  1.0 0.1114244525
H  H39  1  0.66490000  0.99310000  0.07290000  1.0 0.1114244525
H  H40  1  0.33510000  0.00690000  0.57290000  1.0 0.1114244525
H  H41  1  0.11730000  0.65740000  0.19890000  1.0 0.1114244525
H  H42  1  0.88270000  0.34260000  0.69890000  1.0 0.1114244525
H  H43  1  0.34260000  0.11730000  0.94890000  1.0 0.1114244525
H  H44  1  0.65740000  0.88270000  0.44890000  1.0 0.1114244525
H  H45  1  0.88270000  0.65740000  0.80110000  1.0 0.1114244525
H  H46  1  0.11730000  0.34260000  0.30110000  1.0 0.1114244525
H  H47  1  0.65740000  0.11730000  0.05110000  1.0 0.1114244525
H  H48  1  0.34260000  0.88270000  0.55110000  1.0 0.1114244525
H  H49  1  0.06200000  0.55330000  0.33040000  1.0 0.1114244525
H  H50  1  0.93800000  0.44670000  0.83040000  1.0 0.1114244525
H  H51  1  0.44670000  0.06200000  0.08040000  1.0 0.1114244525
H  H52  1  0.55330000  0.93800000  0.58040000  1.0 0.1114244525
H  H53  1  0.93800000  0.55330000  0.66960000  1.0 0.1114244525
H  H54  1  0.06200000  0.44670000  0.16960000  1.0 0.1114244525
H  H55  1  0.55330000  0.06200000  0.91960000  1.0 0.1114244525
H  H56  1  0.44670000  0.93800000  0.41960000  1.0 0.1114244525
H  H57  1  0.93670000  0.55900000  0.30610000  1.0 0.1229257999
H  H58  1  0.06330000  0.44100000  0.80610000  1.0 0.1229257999
H  H59  1  0.44100000  0.93670000  0.05610000  1.0 0.1229257999
H  H60  1  0.55900000  0.06330000  0.55610000  1.0 0.1229257999
H  H61  1  0.06330000  0.55900000  0.69390000  1.0 0.1229257999
H  H62  1  0.93670000  0.44100000  0.19390000  1.0 0.1229257999
H  H63  1  0.55900000  0.93670000  0.94390000  1.0 0.1229257999
H  H64  1  0.44100000  0.06330000  0.44390000  1.0 0.1229257999
H  H65  1  0.22010000  0.37470000  0.45320000  1.0 0.1114244525
H  H66  1  0.77990000  0.62530000  0.95320000  1.0 0.1114244525
H  H67  1  0.62530000  0.22010000  0.20320000  1.0 0.1114244525
H  H68  1  0.37470000  0.77990000  0.70320000  1.0 0.1114244525
H  H69  1  0.77990000  0.37470000  0.54680000  1.0 0.1114244525
H  H70  1  0.22010000  0.62530000  0.04680000  1.0 0.1114244525
H  H71  1  0.37470000  0.22010000  0.79680000  1.0 0.1114244525
H  H72  1  0.62530000  0.77990000  0.29680000  1.0 0.1114244525
H  H73  1  0.18790000  0.45060000  0.38440000  1.0 0.1114244525
H  H74  1  0.81210000  0.54940000  0.88440000  1.0 0.1114244525
H  H75  1  0.54940000  0.18790000  0.13440000  1.0 0.1114244525
H  H76  1  0.45060000  0.81210000  0.63440000  1.0 0.1114244525
H  H77  1  0.81210000  0.45060000  0.61560000  1.0 0.1114244525
H  H78  1  0.18790000  0.54940000  0.11560000  1.0 0.1114244525
H  H79  1  0.45060000  0.18790000  0.86560000  1.0 0.1114244525
H  H80  1  0.54940000  0.81210000  0.36560000  1.0 0.1114244525
H  H81  1  0.40520000  0.50380000  0.36510000  1.0 0.1114244525
H  H82  1  0.59480000  0.49620000  0.86510000  1.0 0.1114244525
H  H83  1  0.49620000  0.40520000  0.11510000  1.0 0.1114244525
H  H84  1  0.50380000  0.59480000  0.61510000  1.0 0.1114244525
H  H85  1  0.59480000  0.50380000  0.63490000  1.0 0.1114244525
H  H86  1  0.40520000  0.49620000  0.13490000  1.0 0.1114244525
H  H87  1  0.50380000  0.40520000  0.88490000  1.0 0.1114244525
H  H88  1  0.49620000  0.59480000  0.38490000  1.0 0.1114244525
H  H89  1  0.43730000  0.42790000  0.43370000  1.0 0.1308193323
H  H90  1  0.56270000  0.57210000  0.93370000  1.0 0.1308193323
H  H91  1  0.57210000  0.43730000  0.18370000  1.0 0.1308193323
H  H92  1  0.42790000  0.56270000  0.68370000  1.0 0.1308193323
H  H93  1  0.56270000  0.42790000  0.56630000  1.0 0.1308193323
H  H94  1  0.43730000  0.57210000  0.06630000  1.0 0.1308193323
H  H95  1  0.42790000  0.43730000  0.81630000  1.0 0.1308193323
H  H96  1  0.57210000  0.56270000  0.31630000  1.0 0.1308193323
H  H97  1  0.95530000  0.36970000  0.56000000  1.0 0.1308193323
H  H98  1  0.95590000  0.45750000  0.55180000  1.0 0.1114244525
H  H99  1  0.96410000  0.42400000  0.60730000  1.0 0.1308193323
H  H100  1  0.09030000  0.31130000  0.57520000  1.0 0.1369724735
H  H101  1  0.15650000  0.37000000  0.57140000  1.0 0.1369724735
H  H102  1  0.11240000  0.34590000  0.52180000  1.0 0.1229257999
H  H103  1  0.06560000  0.44690000  0.53950000  1.0 0.2288026387
H  H104  1  0.07410000  0.43870000  0.59400000  1.0 0.2506915374
H  H105  1  0.04470000  0.63030000  0.06000000  1.0 0.1308193323
H  H106  1  0.04410000  0.54250000  0.05180000  1.0 0.1114244525
H  H107  1  0.03590000  0.57600000  0.10730000  1.0 0.1308193323
H  H108  1  0.90970000  0.68870000  0.07520000  1.0 0.1369724735
H  H109  1  0.84350000  0.63000000  0.07140000  1.0 0.1369724735
H  H110  1  0.88760000  0.65410000  0.02180000  1.0 0.1229257999
H  H111  1  0.93440000  0.55310000  0.03950000  1.0 0.2288026387
H  H112  1  0.92590000  0.56130000  0.09400000  1.0 0.2506915374
H  H113  1  0.63030000  0.95530000  0.31000000  1.0 0.1308193323
H  H114  1  0.54250000  0.95590000  0.30180000  1.0 0.1114244525
H  H115  1  0.57600000  0.96410000  0.35730000  1.0 0.1308193323
H  H116  1  0.68870000  0.09030000  0.32520000  1.0 0.1369724735
H  H117  1  0.63000000  0.15650000  0.32140000  1.0 0.1369724735
H  H118  1  0.65410000  0.11240000  0.27180000  1.0 0.1229257999
H  H119  1  0.55310000  0.06560000  0.28950000  1.0 0.2288026387
H  H120  1  0.56130000  0.07410000  0.34400000  1.0 0.2506915374
H  H121  1  0.36970000  0.04470000  0.81000000  1.0 0.1308193323
H  H122  1  0.45750000  0.04410000  0.80180000  1.0 0.1114244525
H  H123  1  0.42400000  0.03590000  0.85730000  1.0 0.1308193323
H  H124  1  0.31130000  0.90970000  0.82520000  1.0 0.1369724735
H  H125  1  0.37000000  0.84350000  0.82140000  1.0 0.1369724735
H  H126  1  0.34590000  0.88760000  0.77180000  1.0 0.1229257999
H  H127  1  0.44690000  0.93440000  0.78950000  1.0 0.2288026387
H  H128  1  0.43870000  0.92590000  0.84400000  1.0 0.2506915374
H  H129  1  0.04470000  0.36970000  0.44000000  1.0 0.1308193323
H  H130  1  0.04410000  0.45750000  0.44820000  1.0 0.1114244525
H  H131  1  0.03590000  0.42400000  0.39270000  1.0 0.1308193323
H  H132  1  0.90970000  0.31130000  0.42480000  1.0 0.1369724735
H  H133  1  0.84350000  0.37000000  0.42860000  1.0 0.1369724735
H  H134  1  0.88760000  0.34590000  0.47820000  1.0 0.1229257999
H  H135  1  0.93440000  0.44690000  0.46050000  1.0 0.2288026387
H  H136  1  0.92590000  0.43870000  0.40600000  1.0 0.2506915374
H  H137  1  0.95530000  0.63030000  0.94000000  1.0 0.1308193323
H  H138  1  0.95590000  0.54250000  0.94820000  1.0 0.1114244525
H  H139  1  0.96410000  0.57600000  0.89270000  1.0 0.1369724735
H  H140  1  0.09030000  0.68870000  0.92480000  1.0 0.1369724735
H  H141  1  0.15650000  0.63000000  0.92860000  1.0 0.1369724735
H  H142  1  0.11240000  0.65410000  0.97820000  1.0 0.1229257999
H  H143  1  0.06560000  0.55310000  0.96050000  1.0 0.2288026387
H  H144  1  0.07410000  0.56130000  0.90600000  1.0 0.2506915374
H  H145  1  0.36970000  0.95530000  0.69000000  1.0 0.1308193323
H  H146  1  0.45750000  0.95590000  0.69820000  1.0 0.1114244525
H  H147  1  0.42400000  0.96410000  0.64270000  1.0 0.1308193323
H  H148  1  0.31130000  0.09030000  0.67480000  1.0 0.1369724735
H  H149  1  0.37000000  0.15650000  0.67860000  1.0 0.1369724735
H  H150  1  0.34590000  0.11240000  0.72820000  1.0 0.1229257999
H  H151  1  0.44690000  0.06560000  0.71050000  1.0 0.2288026387
H  H152  1  0.43870000  0.07410000  0.65600000  1.0 0.2506915374
H  H153  1  0.63030000  0.04470000  0.19000000  1.0 0.1308193323
H  H154  1  0.54250000  0.04410000  0.19820000  1.0 0.1114244525
H  H155  1  0.57600000  0.03590000  0.14270000  1.0 0.1308193323
H  H156  1  0.68870000  0.90970000  0.17480000  1.0 0.1369724735
H  H157  1  0.63000000  0.84350000  0.17860000  1.0 0.1369724735
H  H158  1  0.65410000  0.88760000  0.22820000  1.0 0.1229257999
H  H159  1  0.55310000  0.93440000  0.21050000  1.0 0.2288026387
H  H160  1  0.56130000  0.92590000  0.15600000  1.0 0.2506915374
C  C1  1  0.46700000  0.69450000  0.15550000  1.0 -0.0233144028
C  C2  1  0.53300000  0.30550000  0.65550000  1.0 -0.0233144028
C  C3  1  0.30550000  0.46700000  0.90550000  1.0 -0.0233144028
C  C4  1  0.69450000  0.53300000  0.40550000  1.0 -0.0233144028
C  C5  1  0.53300000  0.69450000  0.84450000  1.0 -0.0233144028
C  C6  1  0.46700000  0.30550000  0.34450000  1.0 -0.0233144028
C  C7  1  0.69450000  0.46700000  0.09450000  1.0 -0.0233144028
C  C8  1  0.30550000  0.53300000  0.59450000  1.0 -0.0233144028
C  C9  1  0.80880000  0.78210000  0.11590000  1.0 0.3749793625
C  C10  1  0.19120000  0.21790000  0.61590000  1.0 0.3756722665
C  C11  1  0.21790000  0.80880000  0.86590000  1.0 0.3756722665
C  C12  1  0.78210000  0.19120000  0.36590000  1.0 0.3749793625
C  C13  1  0.19120000  0.78210000  0.88410000  1.0 0.3749793625
C  C14  1  0.80880000  0.21790000  0.38410000  1.0 0.3749793625
C  C15  1  0.78210000  0.80880000  0.13410000  1.0 0.3749793625
C  C16  1  0.21790000  0.19120000  0.63410000  1.0 0.3756722665
C  C17  1  0.48940000  0.64260000  0.19220000  1.0 -0.1090853174
C  C18  1  0.51060000  0.35740000  0.69220000  1.0 -0.1090853174
C  C19  1  0.35740000  0.48940000  0.94220000  1.0 -0.1090853174
C  C20  1  0.64260000  0.51060000  0.44220000  1.0 -0.1090853174
C  C21  1  0.51060000  0.64260000  0.80780000  1.0 -0.1090853174
C  C22  1  0.48940000  0.35740000  0.30780000  1.0 -0.1090853174
C  C23  1  0.64260000  0.48940000  0.05780000  1.0 -0.1090853174
C  C24  1  0.35740000  0.51060000  0.55780000  1.0 -0.1090853174
C  C25  1  0.43620000  0.61540000  0.22570000  1.0 -0.1090853174
C  C26  1  0.56380000  0.38460000  0.72570000  1.0 -0.1090853174
C  C27  1  0.38460000  0.43620000  0.97570000  1.0 -0.1090853174
C  C28  1  0.61540000  0.56380000  0.47570000  1.0 -0.1090853174
C  C29  1  0.56380000  0.61540000  0.77430000  1.0 -0.1090853174
C  C30  1  0.43620000  0.38460000  0.27430000  1.0 -0.1090853174
C  C31  1  0.61540000  0.43620000  0.02430000  1.0 -0.1090853174
C  C32  1  0.38460000  0.56380000  0.52430000  1.0 -0.1090853174
C  C33  1  0.36220000  0.63870000  0.22440000  1.0 0.0040834198
C  C34  1  0.63780000  0.36130000  0.72440000  1.0 0.0040834198
C  C35  1  0.36130000  0.36220000  0.97440000  1.0 0.0040834198
C  C36  1  0.63870000  0.63780000  0.47440000  1.0 0.0040834198
C  C37  1  0.63780000  0.63870000  0.77560000  1.0 0.0040834198
C  C38  1  0.36220000  0.36130000  0.27560000  1.0 0.0040834198
C  C39  1  0.63870000  0.36220000  0.02560000  1.0 0.0040834198
C  C40  1  0.36130000  0.63780000  0.52560000  1.0 0.0040834198
C  C41  1  0.34290000  0.69190000  0.18740000  1.0 -0.1090853174
C  C42  1  0.65710000  0.30810000  0.68740000  1.0 -0.1090853174
C  C43  1  0.30810000  0.34290000  0.93740000  1.0 -0.1090853174
C  C44  1  0.69190000  0.65710000  0.43740000  1.0 -0.1090853174
C  C45  1  0.65710000  0.69190000  0.81260000  1.0 -0.1090853174
C  C46  1  0.34290000  0.30810000  0.31260000  1.0 -0.1090853174
C  C47  1  0.69190000  0.34290000  0.06260000  1.0 -0.1090853174
C  C48  1  0.30810000  0.65710000  0.56260000  1.0 -0.1090853174
C  C49  1  0.39380000  0.72030000  0.15330000  1.0 -0.1090853174
C  C50  1  0.60620000  0.27970000  0.65330000  1.0 -0.1090853174
C  C51  1  0.27970000  0.39380000  0.90330000  1.0 -0.1090853174
C  C52  1  0.72030000  0.60620000  0.40330000  1.0 -0.1090853174
C  C53  1  0.60620000  0.72030000  0.84670000  1.0 -0.1090853174
C  C54  1  0.39380000  0.27970000  0.34670000  1.0 -0.1090853174
C  C55  1  0.72030000  0.39380000  0.09670000  1.0 -0.1090853174
C  C56  1  0.27970000  0.60620000  0.59670000  1.0 -0.1090853174
C  C57  1  0.52100000  0.72050000  0.11580000  1.0 0.5807623621
C  C58  1  0.47900000  0.27950000  0.61580000  1.0 0.5807623621
C  C59  1  0.27950000  0.52100000  0.86580000  1.0 0.5807623621
C  C60  1  0.72050000  0.47900000  0.36580000  1.0 0.5807623621
C  C61  1  0.47900000  0.72050000  0.88420000  1.0 0.5807623621
C  C62  1  0.52100000  0.27950000  0.38420000  1.0 0.5807623621
C  C63  1  0.72050000  0.52100000  0.13420000  1.0 0.5807623621
C  C64  1  0.27950000  0.47900000  0.63420000  1.0 0.5807623621
C  C65  1  0.30510000  0.60790000  0.25830000  1.0 0.3610846704
C  C66  1  0.69490000  0.39210000  0.75830000  1.0 0.3610846704
C  C67  1  0.39210000  0.30510000  0.00830000  1.0 0.3610846704
C  C68  1  0.60790000  0.69490000  0.50830000  1.0 0.3610846704
C  C69  1  0.69490000  0.60790000  0.74170000  1.0 0.3610846704
C  C70  1  0.30510000  0.39210000  0.24170000  1.0 0.3610846704
C  C71  1  0.60790000  0.30510000  0.99170000  1.0 0.3610846704
C  C72  1  0.39210000  0.69490000  0.49170000  1.0 0.3610846704
C  C73  1  0.95300000  0.61500000  0.24020000  1.0 -0.0233144028
C  C74  1  0.04700000  0.38500000  0.74020000  1.0 -0.0233144028
C  C75  1  0.38500000  0.95300000  0.99020000  1.0 -0.0233144028
C  C76  1  0.61500000  0.04700000  0.49020000  1.0 -0.0233144028
C  C77  1  0.04700000  0.61500000  0.75980000  1.0 -0.0233144028
C  C78  1  0.95300000  0.38500000  0.25980000  1.0 -0.0233144028
C  C79  1  0.61500000  0.95300000  0.00980000  1.0 -0.0233144028
C  C80  1  0.38500000  0.04700000  0.50980000  1.0 -0.0233144028
C  C81  1  0.00710000  0.64230000  0.20800000  1.0 -0.1090853174
C  C82  1  0.99290000  0.35770000  0.70800000  1.0 -0.1090853174
C  C83  1  0.35770000  0.00710000  0.95800000  1.0 -0.1090853174
C  C84  1  0.64230000  0.99290000  0.45800000  1.0 -0.1090853174
C  C85  1  0.99290000  0.64230000  0.79200000  1.0 -0.1090853174
C  C86  1  0.00710000  0.35770000  0.29200000  1.0 -0.1090853174
C  C87  1  0.64230000  0.00710000  0.04200000  1.0 -0.1090853174
C  C88  1  0.35770000  0.99290000  0.54200000  1.0 -0.1090853174
C  C89  1  0.08100000  0.63670000  0.22070000  1.0 -0.1206938973
C  C90  1  0.91900000  0.36330000  0.72070000  1.0 -0.1206938973
C  C91  1  0.36330000  0.08100000  0.97070000  1.0 -0.1206938973
C  C92  1  0.63670000  0.91900000  0.47070000  1.0 -0.1206938973
C  C93  1  0.91900000  0.63670000  0.77930000  1.0 -0.1206938973
C  C94  1  0.08100000  0.36330000  0.27930000  1.0 -0.1206938973
C  C95  1  0.63670000  0.08100000  0.02930000  1.0 -0.1206938973
C  C96  1  0.36330000  0.91900000  0.52930000  1.0 -0.1206938973
C  C97  1  0.10360000  0.60150000  0.26470000  1.0 0.0193851512
C  C98  1  0.89640000  0.39850000  0.76470000  1.0 0.0193851512
C  C99  1  0.39850000  0.10360000  0.01470000  1.0 0.0193851512
C  C100  1  0.60150000  0.89640000  0.51470000  1.0 0.0193851512
C  C101  1  0.89640000  0.60150000  0.73530000  1.0 0.0193851512
C  C102  1  0.10360000  0.39850000  0.23530000  1.0 0.0193851512
C  C103  1  0.60150000  0.10360000  0.98530000  1.0 0.0193851512
C  C104  1  0.39850000  0.89640000  0.48530000  1.0 0.0193851512
C  C105  1  0.04830000  0.57430000  0.29900000  1.0 -0.128543015
C  C106  1  0.95170000  0.42570000  0.79900000  1.0 -0.128543015
C  C107  1  0.42570000  0.04830000  0.04900000  1.0 -0.128543015
C  C108  1  0.57430000  0.95170000  0.54900000  1.0 -0.128543015
C  C109  1  0.95170000  0.57430000  0.70100000  1.0 -0.128543015
C  C110  1  0.04830000  0.42570000  0.20100000  1.0 -0.128543015
C  C111  1  0.57430000  0.04830000  0.95100000  1.0 -0.128543015
C  C112  1  0.42570000  0.95170000  0.45100000  1.0 -0.128543015
C  C113  1  0.97380000  0.57970000  0.28490000  1.0 -0.1022975327
C  C114  1  0.02620000  0.42030000  0.78490000  1.0 -0.1022975327
C  C115  1  0.42030000  0.97380000  0.03490000  1.0 -0.1022975327
C  C116  1  0.57970000  0.02620000  0.53490000  1.0 -0.1022975327
C  C117  1  0.02620000  0.57970000  0.71510000  1.0 -0.1022975327
C  C118  1  0.97380000  0.42030000  0.21510000  1.0 -0.1022975327
C  C119  1  0.57970000  0.97380000  0.96510000  1.0 -0.1022975327
C  C120  1  0.42030000  0.02620000  0.46510000  1.0 -0.1022975327
C  C121  1  0.87160000  0.61720000  0.22700000  1.0 0.5807623621
C  C122  1  0.12840000  0.38280000  0.72700000  1.0 0.5807623621
C  C123  1  0.38280000  0.87160000  0.97700000  1.0 0.5807623621
C  C124  1  0.61720000  0.12840000  0.47700000  1.0 0.5807623621
C  C125  1  0.12840000  0.61720000  0.77300000  1.0 0.5807623621
C  C126  1  0.87160000  0.38280000  0.27300000  1.0 0.5807623621
C  C127  1  0.61720000  0.87160000  0.02300000  1.0 0.5807623621
C  C128  1  0.38280000  0.12840000  0.52300000  1.0 0.5807623621
C  C129  1  0.18370000  0.59040000  0.27690000  1.0 0.3496894991
C  C130  1  0.81630000  0.40960000  0.77690000  1.0 0.3496894991
C  C131  1  0.40960000  0.18370000  0.02690000  1.0 0.3496894991
C  C132  1  0.59040000  0.81630000  0.52690000  1.0 0.3496894991
C  C133  1  0.81630000  0.59040000  0.72310000  1.0 0.3496894991
C  C134  1  0.18370000  0.40960000  0.22310000  1.0 0.3496894991
C  C135  1  0.59040000  0.18370000  0.97310000  1.0 0.3496894991
C  C136  1  0.40960000  0.81630000  0.47310000  1.0 0.3496894991
C  C137  1  0.33160000  0.39450000  0.44980000  1.0 -0.0135425898
C  C138  1  0.66840000  0.60550000  0.94980000  1.0 -0.0135425898
C  C139  1  0.60550000  0.33160000  0.19980000  1.0 -0.0135425898
C  C140  1  0.39450000  0.66840000  0.69980000  1.0 -0.0135425898
C  C141  1  0.66840000  0.39450000  0.55020000  1.0 -0.0135425898
C  C142  1  0.33160000  0.60550000  0.05020000  1.0 -0.0135425898
C  C143  1  0.39450000  0.33160000  0.80020000  1.0 -0.0135425898
C  C144  1  0.60550000  0.66840000  0.30020000  1.0 -0.0135425898
C  C145  1  0.25740000  0.40100000  0.43540000  1.0 -0.1206938973
C  C146  1  0.74260000  0.59900000  0.93540000  1.0 -0.1206938973
C  C147  1  0.59900000  0.25740000  0.18540000  1.0 -0.1206938973
C  C148  1  0.40100000  0.74260000  0.68540000  1.0 -0.1206938973
C  C149  1  0.74260000  0.40100000  0.56460000  1.0 -0.1206938973
C  C150  1  0.25740000  0.59900000  0.06460000  1.0 -0.1206938973
C  C151  1  0.40100000  0.25740000  0.81460000  1.0 -0.1206938973
C  C152  1  0.59900000  0.74260000  0.31460000  1.0 -0.1206938973
C  C153  1  0.23820000  0.44670000  0.39450000  1.0 -0.1206938973
C  C154  1  0.76180000  0.55330000  0.89450000  1.0 -0.1206938973
C  C155  1  0.55330000  0.23820000  0.14450000  1.0 -0.1206938973
C  C156  1  0.44670000  0.76180000  0.64450000  1.0 -0.1206938973
C  C157  1  0.76180000  0.44670000  0.60550000  1.0 -0.1206938973
C  C158  1  0.23820000  0.55330000  0.10550000  1.0 -0.1206938973
C  C159  1  0.44670000  0.23820000  0.85550000  1.0 -0.1206938973
C  C160  1  0.55330000  0.76180000  0.35550000  1.0 -0.1206938973
C  C161  1  0.29290000  0.48650000  0.36860000  1.0 0.0193851512
C  C162  1  0.70710000  0.51350000  0.86860000  1.0 0.0193851512
C  C163  1  0.51350000  0.29290000  0.11860000  1.0 0.0193851512
C  C164  1  0.48650000  0.70710000  0.61860000  1.0 0.0193851512
C  C165  1  0.70710000  0.48650000  0.63140000  1.0 0.0193851512
C  C166  1  0.29290000  0.51350000  0.13140000  1.0 0.0193851512
C  C167  1  0.48650000  0.29290000  0.88140000  1.0 0.0193851512
C  C168  1  0.51350000  0.70710000  0.38140000  1.0 0.0193851512
C  C169  1  0.36760000  0.47830000  0.38310000  1.0 -0.1090853174
C  C170  1  0.63240000  0.52170000  0.88310000  1.0 -0.1090853174
C  C171  1  0.52170000  0.36760000  0.13310000  1.0 -0.1090853174
C  C172  1  0.47830000  0.63240000  0.63310000  1.0 -0.1090853174
C  C173  1  0.63240000  0.47830000  0.61690000  1.0 -0.1090853174
C  C174  1  0.36760000  0.52170000  0.11690000  1.0 -0.1090853174
C  C175  1  0.47830000  0.36760000  0.86690000  1.0 -0.1090853174
C  C176  1  0.52170000  0.63240000  0.36690000  1.0 -0.1090853174
C  C177  1  0.38690000  0.43270000  0.42380000  1.0 -0.1022975327
C  C178  1  0.61310000  0.56730000  0.92380000  1.0 -0.1022975327
C  C179  1  0.56730000  0.38690000  0.17380000  1.0 -0.1022975327
C  C180  1  0.43270000  0.61310000  0.67380000  1.0 -0.1022975327
C  C181  1  0.61310000  0.43270000  0.57620000  1.0 -0.1022975327
C  C182  1  0.38690000  0.56730000  0.07620000  1.0 -0.1022975327
C  C183  1  0.43270000  0.38690000  0.82620000  1.0 -0.1022975327
C  C184  1  0.56730000  0.61310000  0.32620000  1.0 -0.1022975327
C  C185  1  0.35330000  0.34370000  0.49290000  1.0 0.5807623621
C  C186  1  0.64670000  0.65630000  0.99290000  1.0 0.5807623621
C  C187  1  0.65630000  0.35330000  0.24290000  1.0 0.5807623621
C  C188  1  0.34370000  0.64670000  0.74290000  1.0 0.5807623621
C  C189  1  0.64670000  0.34370000  0.50710000  1.0 0.5807623621
C  C190  1  0.35330000  0.65630000  0.00710000  1.0 0.5807623621
C  C191  1  0.34370000  0.35330000  0.75710000  1.0 0.5807623621
C  C192  1  0.65630000  0.64670000  0.25710000  1.0 0.5807623621
C  C193  1  0.27190000  0.53650000  0.32610000  1.0 0.3610846704
C  C194  1  0.72810000  0.46350000  0.82610000  1.0 0.3610846704
C  C195  1  0.46350000  0.27190000  0.07610000  1.0 0.3610846704
C  C196  1  0.53650000  0.72810000  0.57610000  1.0 0.3610846704
C  C197  1  0.72810000  0.53650000  0.67390000  1.0 0.3610846704
C  C198  1  0.27190000  0.46350000  0.17390000  1.0 0.3610846704
C  C199  1  0.53650000  0.27190000  0.92390000  1.0 0.3610846704
C  C200  1  0.46350000  0.72810000  0.42390000  1.0 0.3610846704
C  C201  1  0.97640000  0.41670000  0.57170000  1.0 -0.337284244
C  C202  1  0.10800000  0.35590000  0.55800000  1.0 -0.3184389592
C  C203  1  0.02360000  0.58330000  0.07170000  1.0 -0.337284244
C  C204  1  0.89200000  0.64410000  0.05800000  1.0 -0.3184389592
C  C205  1  0.58330000  0.97640000  0.32170000  1.0 -0.337284244
C  C206  1  0.64410000  0.10800000  0.30800000  1.0 -0.3184389592
C  C207  1  0.41670000  0.02360000  0.82170000  1.0 -0.337284244
C  C208  1  0.35590000  0.89200000  0.80800000  1.0 -0.3184389592
C  C209  1  0.02360000  0.41670000  0.42830000  1.0 -0.337284244
C  C210  1  0.89200000  0.35590000  0.44200000  1.0 -0.3184389592
C  C211  1  0.97640000  0.58330000  0.92830000  1.0 -0.337284244
C  C212  1  0.10800000  0.64410000  0.94200000  1.0 -0.3184389592
C  C213  1  0.41670000  0.97640000  0.67830000  1.0 -0.337284244
C  C214  1  0.35590000  0.10800000  0.69200000  1.0 -0.3184389592
C  C215  1  0.58330000  0.02360000  0.17830000  1.0 -0.337284244
C  C216  1  0.64410000  0.89200000  0.19200000  1.0 -0.3184389592
N  N1  1  0.20030000  0.54610000  0.31730000  1.0 -0.4202069336
N  N2  1  0.79970000  0.45390000  0.81730000  1.0 -0.4202069336
N  N3  1  0.45390000  0.20030000  0.06730000  1.0 -0.4202069336
N  N4  1  0.54610000  0.79970000  0.56730000  1.0 -0.4202069336
N  N5  1  0.79970000  0.54610000  0.68270000  1.0 -0.4202069336
N  N6  1  0.20030000  0.45390000  0.18270000  1.0 -0.4202069336
N  N7  1  0.54610000  0.20030000  0.93270000  1.0 -0.4202069336
N  N8  1  0.45390000  0.79970000  0.43270000  1.0 -0.4202069336
N  N9  1  0.32770000  0.56550000  0.29690000  1.0 -0.4202069336
N  N10  1  0.67230000  0.43450000  0.79690000  1.0 -0.4202069336
N  N11  1  0.43450000  0.32770000  0.04690000  1.0 -0.4202069336
N  N12  1  0.56550000  0.67230000  0.54690000  1.0 -0.4202069336
N  N13  1  0.67230000  0.56550000  0.70310000  1.0 -0.4202069336
N  N14  1  0.32770000  0.43450000  0.20310000  1.0 -0.4202069336
N  N15  1  0.56550000  0.32770000  0.95310000  1.0 -0.4202069336
N  N16  1  0.43450000  0.67230000  0.45310000  1.0 -0.4202069336
N  N17  1  0.23430000  0.62180000  0.24660000  1.0 -0.4129667723
N  N18  1  0.76570000  0.37820000  0.74660000  1.0 -0.4129667723
N  N19  1  0.37820000  0.23430000  0.99660000  1.0 -0.4129667723
N  N20  1  0.62180000  0.76570000  0.49660000  1.0 -0.4129667723
N  N21  1  0.76570000  0.62180000  0.75340000  1.0 -0.4129667723
N  N22  1  0.23430000  0.37820000  0.25340000  1.0 -0.4129667723
N  N23  1  0.62180000  0.23430000  0.00340000  1.0 -0.4129667723
N  N24  1  0.37820000  0.76570000  0.50340000  1.0 -0.4129667723
N  N25  1  0.05660000  0.41500000  0.56580000  1.0 -0.1090853174
N  N26  1  0.94340000  0.58500000  0.06580000  1.0 -0.1090853174
N  N27  1  0.58500000  0.05660000  0.31580000  1.0 -0.1090853174
N  N28  1  0.41500000  0.94340000  0.81580000  1.0 -0.1090853174
N  N29  1  0.94340000  0.41500000  0.43420000  1.0 -0.1090853174
N  N30  1  0.05660000  0.58500000  0.93420000  1.0 -0.1090853174
N  N31  1  0.41500000  0.05660000  0.68420000  1.0 -0.1090853174
N  N32  1  0.58500000  0.94340000  0.18420000  1.0 -0.1090853174
O  O1  1  0.49520000  0.75440000  0.07803000  1.0 -0.5605410313
O  O2  1  0.50480000  0.24560000  0.57803000  1.0 -0.5605410313
O  O3  1  0.24560000  0.49520000  0.82803000  1.0 -0.5605410313
O  O4  1  0.75440000  0.50480000  0.32803000  1.0 -0.5605410313
O  O5  1  0.50480000  0.75440000  0.92197000  1.0 -0.5605410313
O  O6  1  0.49520000  0.24560000  0.42197000  1.0 -0.5605410313
O  O7  1  0.75440000  0.49520000  0.17197000  1.0 -0.5605410313
O  O8  1  0.24560000  0.50480000  0.67197000  1.0 -0.5605410313
O  O9  1  0.74750000  0.74750000  0.12500000  1.0 -0.3777595753
O  O10  1  0.25250000  0.25250000  0.62500000  1.0 -0.3777595753
O  O11  1  0.25250000  0.74750000  0.87500000  1.0 -0.3777595753
O  O12  1  0.74750000  0.25250000  0.37500000  1.0 -0.3777595753
O  O13  1  0.59020000  0.70830000  0.12318000  1.0 -0.5605410313
O  O14  1  0.40980000  0.29170000  0.62318000  1.0 -0.5605410313
O  O15  1  0.29170000  0.59020000  0.87318000  1.0 -0.5605410313
O  O16  1  0.70830000  0.40980000  0.37318000  1.0 -0.5605410313
O  O17  1  0.40980000  0.70830000  0.87682000  1.0 -0.5605410313
O  O18  1  0.59020000  0.29170000  0.37682000  1.0 -0.5605410313
O  O19  1  0.70830000  0.59020000  0.12682000  1.0 -0.5605410313
O  O20  1  0.29170000  0.40980000  0.62682000  1.0 -0.5605410313
O  O21  1  0.82180000  0.82480000  0.07930000  1.0 -0.3184389592
O  O22  1  0.17820000  0.17520000  0.57930000  1.0 -0.3184389592
O  O23  1  0.17520000  0.82180000  0.82930000  1.0 -0.3115505819
O  O24  1  0.82480000  0.17820000  0.32930000  1.0 -0.3184389592
O  O25  1  0.17820000  0.82480000  0.92070000  1.0 -0.3115505819
O  O26  1  0.82180000  0.17520000  0.42070000  1.0 -0.3184389592
O  O27  1  0.82480000  0.82180000  0.17070000  1.0 -0.3184389592
O  O28  1  0.17520000  0.17820000  0.67070000  1.0 -0.3115505819
O  O29  1  0.82720000  0.58450000  0.25497000  1.0 -0.5386941278
O  O30  1  0.17280000  0.41550000  0.75497000  1.0 -0.5386941278
O  O31  1  0.41550000  0.82720000  0.00497000  1.0 -0.5386941278
O  O32  1  0.58450000  0.17280000  0.50497000  1.0 -0.5386941278
O  O33  1  0.17280000  0.58450000  0.74503000  1.0 -0.5386941278
O  O34  1  0.82720000  0.41550000  0.24503000  1.0 -0.5386941278
O  O35  1  0.58450000  0.82720000  0.99503000  1.0 -0.5386941278
O  O36  1  0.41550000  0.17280000  0.49503000  1.0 -0.5386941278
O  O37  1  0.85440000  0.65490000  0.18744000  1.0 -0.5605410313
O  O38  1  0.14560000  0.34510000  0.68744000  1.0 -0.5605410313
O  O39  1  0.34510000  0.85440000  0.93744000  1.0 -0.5605410313
O  O40  1  0.65490000  0.14560000  0.43744000  1.0 -0.5605410313
O  O41  1  0.14560000  0.65490000  0.81256000  1.0 -0.5605410313
O  O42  1  0.85440000  0.34510000  0.31256000  1.0 -0.5605410313
O  O43  1  0.65490000  0.85440000  0.06256000  1.0 -0.5605410313
O  O44  1  0.34510000  0.14560000  0.56256000  1.0 -0.5605410313
O  O45  1  0.42070000  0.33840000  0.50414000  1.0 -0.5605410313
O  O46  1  0.57930000  0.66160000  0.00414000  1.0 -0.5605410313
O  O47  1  0.66160000  0.42070000  0.25414000  1.0 -0.5605410313
O  O48  1  0.33840000  0.57930000  0.75414000  1.0 -0.5605410313
O  O49  1  0.57930000  0.33840000  0.49586000  1.0 -0.5605410313
O  O50  1  0.42070000  0.66160000  0.99586000  1.0 -0.5605410313
O  O51  1  0.33840000  0.42070000  0.74586000  1.0 -0.5605410313
O  O52  1  0.66160000  0.57930000  0.24586000  1.0 -0.5605410313
O  O53  1  0.30090000  0.31110000  0.51710000  1.0 -0.5386941278
O  O54  1  0.69910000  0.68890000  0.01710000  1.0 -0.5386941278
O  O55  1  0.68890000  0.30090000  0.26710000  1.0 -0.5386941278
O  O56  1  0.31110000  0.69910000  0.76710000  1.0 -0.5386941278
O  O57  1  0.69910000  0.31110000  0.48290000  1.0 -0.5386941278
O  O58  1  0.30090000  0.68890000  0.98290000  1.0 -0.5386941278
O  O59  1  0.31110000  0.30090000  0.73290000  1.0 -0.5386941278
O  O60  1  0.68890000  0.69910000  0.23290000  1.0 -0.5386941278
