# DDEC6 charges by PACMAN v1.1 (https://github.com/mtap-research/PACMAN-charge/)
data_PIBZAE_ASR_pacman
_symmetry_space_group_name_H-M   'P 1'
_cell_length_a   12.87000000
_cell_length_b   25.15800000
_cell_length_c   24.79270000
_cell_angle_alpha   90.00000000
_cell_angle_beta   115.13800000
_cell_angle_gamma   90.00000000
_symmetry_Int_Tables_number   1
_chemical_formula_structural   Cu4SiH20W12C26N12(O8F)4
_chemical_formula_sum   'Cu16 Si4 H80 W48 C104 N48 O128 F16'
_cell_volume   7267.16287200
_cell_formula_units_Z   4
loop_
 _symmetry_equiv_pos_site_id
 _symmetry_equiv_pos_as_xyz
  1  'x, y, z'
loop_
 _atom_site_type_symbol
 _atom_site_label
 _atom_site_symmetry_multiplicity
 _atom_site_fract_x
 _atom_site_fract_y
 _atom_site_fract_z
 _atom_site_occupancy
 _atom_site_charge
Cu  Cu1  1  0.01871000  0.05815000  0.49431000  1.0 0.3409170539
Cu  Cu2  1  0.53817000  0.44356000  0.50647000  1.0 0.3602957793
Cu  Cu3  1  0.77121000  0.26898000  0.43861000  1.0 0.3409170539
Cu  Cu4  1  0.64744000  0.76799000  0.46064000  1.0 0.4888161041
Cu  Cu5  1  0.98129000  0.55815000  0.00569000  1.0 0.3409170539
Cu  Cu6  1  0.46183000  0.94356000  0.99353000  1.0 0.3602957793
Cu  Cu7  1  0.22879000  0.76898000  0.06139000  1.0 0.3409170539
Cu  Cu8  1  0.35256000  0.26799000  0.03936000  1.0 0.4888161041
Cu  Cu9  1  0.98129000  0.94185000  0.50569000  1.0 0.3409170539
Cu  Cu10  1  0.46183000  0.55644000  0.49353000  1.0 0.3602957793
Cu  Cu11  1  0.22879000  0.73102000  0.56139000  1.0 0.3409170539
Cu  Cu12  1  0.35256000  0.23201000  0.53936000  1.0 0.4888161041
Cu  Cu13  1  0.01871000  0.44185000  0.99431000  1.0 0.3409170539
Cu  Cu14  1  0.53817000  0.05644000  0.00647000  1.0 0.3602957793
Cu  Cu15  1  0.77121000  0.23102000  0.93861000  1.0 0.3409170539
Cu  Cu16  1  0.64744000  0.73201000  0.96064000  1.0 0.4888161041
Si  Si1  1  0.15660000  0.27140000  0.26530000  1.0 1.5884379017
Si  Si2  1  0.84340000  0.77140000  0.23470000  1.0 1.5884379017
Si  Si3  1  0.84340000  0.72860000  0.73470000  1.0 1.5884379017
Si  Si4  1  0.15660000  0.22860000  0.76530000  1.0 1.5847802826
H  H1  1  0.96830000  0.18590000  0.50040000  1.0 0.1019519306
H  H2  1  0.67830000  0.16060000  0.36460000  1.0 0.1108508007
H  H3  1  0.58780000  0.88140000  0.39230000  1.0 0.1019519306
H  H4  1  0.69280000  0.33970000  0.51880000  1.0 0.1019519306
H  H5  1  0.65550000  0.96870000  0.36540000  1.0 0.1019519306
H  H6  1  0.77890000  0.95600000  0.37100000  1.0 0.1108508007
H  H7  1  0.61730000  0.47780000  0.36100000  1.0 0.1108508007
H  H8  1  0.50390000  0.46430000  0.36710000  1.0 0.1108508007
H  H9  1  0.74660000  0.52600000  0.54440000  1.0 0.0914543935
H  H10  1  0.69400000  0.05750000  0.35350000  1.0 0.1019519306
H  H11  1  0.82190000  0.04630000  0.36550000  1.0 0.1194477764
H  H12  1  0.86580000  0.83370000  0.52350000  1.0 0.1019519306
H  H13  1  0.95280000  0.57340000  0.43680000  1.0 0.1583103959
H  H14  1  0.94120000  0.55050000  0.59400000  1.0 0.1108508007
H  H15  1  0.45880000  0.06500000  0.45190000  1.0 0.1409260486
H  H16  1  0.84900000  0.02590000  0.54850000  1.0 0.0805739288
H  H17  1  0.75190000  0.04900000  0.60350000  1.0 0.1334776996
H  H18  1  0.45890000  0.55620000  0.36730000  1.0 0.1194477764
H  H19  1  0.56950000  0.56920000  0.35780000  1.0 0.1108508007
H  H20  1  0.70050000  0.38280000  0.37030000  1.0 0.1108508007
H  H21  1  0.03170000  0.68590000  0.99960000  1.0 0.1019519306
H  H22  1  0.32170000  0.66060000  0.13540000  1.0 0.1108508007
H  H23  1  0.41220000  0.38140000  0.10770000  1.0 0.1019519306
H  H24  1  0.30720000  0.83970000  0.98120000  1.0 0.1019519306
H  H25  1  0.34450000  0.46870000  0.13460000  1.0 0.1019519306
H  H26  1  0.22110000  0.45600000  0.12900000  1.0 0.1108508007
H  H27  1  0.38270000  0.97780000  0.13900000  1.0 0.1108508007
H  H28  1  0.49610000  0.96430000  0.13290000  1.0 0.1108508007
H  H29  1  0.25340000  0.02600000  0.95560000  1.0 0.0914543935
H  H30  1  0.30600000  0.55750000  0.14650000  1.0 0.1019519306
H  H31  1  0.17810000  0.54630000  0.13450000  1.0 0.1194477764
H  H32  1  0.13420000  0.33370000  0.97650000  1.0 0.1019519306
H  H33  1  0.04720000  0.07340000  0.06320000  1.0 0.1583103959
H  H34  1  0.05880000  0.05050000  0.90600000  1.0 0.1108508007
H  H35  1  0.54120000  0.56500000  0.04810000  1.0 0.1409260486
H  H36  1  0.15100000  0.52590000  0.95150000  1.0 0.0805739288
H  H37  1  0.24810000  0.54900000  0.89650000  1.0 0.1334776996
H  H38  1  0.54110000  0.05620000  0.13270000  1.0 0.1194477764
H  H39  1  0.43050000  0.06920000  0.14220000  1.0 0.1108508007
H  H40  1  0.29950000  0.88280000  0.12970000  1.0 0.1108508007
H  H41  1  0.03170000  0.81410000  0.49960000  1.0 0.1019519306
H  H42  1  0.32170000  0.83940000  0.63540000  1.0 0.1108508007
H  H43  1  0.41220000  0.11860000  0.60770000  1.0 0.1019519306
H  H44  1  0.30720000  0.66030000  0.48120000  1.0 0.1019519306
H  H45  1  0.34450000  0.03130000  0.63460000  1.0 0.1019519306
H  H46  1  0.22110000  0.04400000  0.62900000  1.0 0.1108508007
H  H47  1  0.38270000  0.52220000  0.63900000  1.0 0.1108508007
H  H48  1  0.49610000  0.53570000  0.63290000  1.0 0.1108508007
H  H49  1  0.25340000  0.47400000  0.45560000  1.0 0.0914543935
H  H50  1  0.30600000  0.94250000  0.64650000  1.0 0.1019519306
H  H51  1  0.17810000  0.95370000  0.63450000  1.0 0.1194477764
H  H52  1  0.13420000  0.16630000  0.47650000  1.0 0.1019519306
H  H53  1  0.04720000  0.42660000  0.56320000  1.0 0.1583103959
H  H54  1  0.05880000  0.44950000  0.40600000  1.0 0.1108508007
H  H55  1  0.54120000  0.93500000  0.54810000  1.0 0.1409260486
H  H56  1  0.15100000  0.97410000  0.45150000  1.0 0.0805739288
H  H57  1  0.24810000  0.95100000  0.39650000  1.0 0.1334776996
H  H58  1  0.54110000  0.44380000  0.63270000  1.0 0.1194477764
H  H59  1  0.43050000  0.43080000  0.64220000  1.0 0.1108508007
H  H60  1  0.29950000  0.61720000  0.62970000  1.0 0.1108508007
H  H61  1  0.96830000  0.31410000  0.00040000  1.0 0.1019519306
H  H62  1  0.67830000  0.33940000  0.86460000  1.0 0.1108508007
H  H63  1  0.58780000  0.61860000  0.89230000  1.0 0.1019519306
H  H64  1  0.69280000  0.16030000  0.01880000  1.0 0.1019519306
H  H65  1  0.65550000  0.53130000  0.86540000  1.0 0.1019519306
H  H66  1  0.77890000  0.54400000  0.87100000  1.0 0.1108508007
H  H67  1  0.61730000  0.02220000  0.86100000  1.0 0.1108508007
H  H68  1  0.50390000  0.03570000  0.86710000  1.0 0.1108508007
H  H69  1  0.74660000  0.97400000  0.04440000  1.0 0.0914543935
H  H70  1  0.69400000  0.44250000  0.85350000  1.0 0.1019519306
H  H71  1  0.82190000  0.45370000  0.86550000  1.0 0.1194477764
H  H72  1  0.86580000  0.66630000  0.02350000  1.0 0.1019519306
H  H73  1  0.95280000  0.92660000  0.93680000  1.0 0.1583103959
H  H74  1  0.94120000  0.94950000  0.09400000  1.0 0.1108508007
H  H75  1  0.45880000  0.43500000  0.95190000  1.0 0.1409260486
H  H76  1  0.84900000  0.47410000  0.04850000  1.0 0.0805739288
H  H77  1  0.75190000  0.45100000  0.10350000  1.0 0.1334776996
H  H78  1  0.45890000  0.94380000  0.86730000  1.0 0.1194477764
H  H79  1  0.56950000  0.93080000  0.85780000  1.0 0.1108508007
H  H80  1  0.70050000  0.11720000  0.87030000  1.0 0.1108508007
W  W1  1  0.97424000  0.19192000  0.30466000  1.0 2.3933725424
W  W2  1  0.45311000  0.26452000  0.34740000  1.0 2.4077559579
W  W3  1  0.31555000  0.37417000  0.35881000  1.0 2.1673083969
W  W4  1  0.12333000  0.29002000  0.39721000  1.0 2.305668778
W  W5  1  0.00383000  0.38554000  0.27322000  1.0 2.4036316343
W  W6  1  0.03945000  0.36446000  0.14828000  1.0 2.2169840404
W  W7  1  0.19234000  0.24446000  0.13510000  1.0 2.3770319887
W  W8  1  0.85897000  0.28808000  0.18045000  1.0 2.43672008
W  W9  1  0.35310000  0.35229000  0.23662000  1.0 2.2383859821
W  W10  1  0.29363000  0.15542000  0.24568000  1.0 2.3641534515
W  W11  1  0.01021000  0.16696000  0.16647000  1.0 2.4192394682
W  W12  1  0.25537000  0.17978000  0.38177000  1.0 2.2383859821
W  W13  1  0.02576000  0.69192000  0.19534000  1.0 2.3933725424
W  W14  1  0.54689000  0.76452000  0.15260000  1.0 2.4077559579
W  W15  1  0.68445000  0.87417000  0.14119000  1.0 2.1794368692
W  W16  1  0.87667000  0.79002000  0.10279000  1.0 2.319342322
W  W17  1  0.99617000  0.88554000  0.22678000  1.0 2.4036316343
W  W18  1  0.96055000  0.86446000  0.35172000  1.0 2.2169840404
W  W19  1  0.80766000  0.74446000  0.36490000  1.0 2.3770319887
W  W20  1  0.14103000  0.78808000  0.31955000  1.0 2.42896337
W  W21  1  0.64690000  0.85229000  0.26338000  1.0 2.2509973713
W  W22  1  0.70637000  0.65542000  0.25432000  1.0 2.3641534515
W  W23  1  0.98979000  0.66696000  0.33353000  1.0 2.4192394682
W  W24  1  0.74463000  0.67978000  0.11823000  1.0 2.2509973713
W  W25  1  0.02576000  0.80808000  0.69534000  1.0 2.3933725424
W  W26  1  0.54689000  0.73548000  0.65260000  1.0 2.4036316343
W  W27  1  0.68445000  0.62583000  0.64119000  1.0 2.1794368692
W  W28  1  0.87667000  0.70998000  0.60279000  1.0 2.305668778
W  W29  1  0.99617000  0.61446000  0.72678000  1.0 2.4036316343
W  W30  1  0.96055000  0.63554000  0.85172000  1.0 2.2169840404
W  W31  1  0.80766000  0.75554000  0.86490000  1.0 2.3770319887
W  W32  1  0.14103000  0.71192000  0.81955000  1.0 2.42896337
W  W33  1  0.64690000  0.64771000  0.76338000  1.0 2.2328478761
W  W34  1  0.70637000  0.84458000  0.75432000  1.0 2.3641534515
W  W35  1  0.98979000  0.83304000  0.83353000  1.0 2.4192394682
W  W36  1  0.74463000  0.82022000  0.61823000  1.0 2.2383859821
W  W37  1  0.97424000  0.30808000  0.80466000  1.0 2.3933725424
W  W38  1  0.45311000  0.23548000  0.84740000  1.0 2.4036316343
W  W39  1  0.31555000  0.12583000  0.85881000  1.0 2.1673083969
W  W40  1  0.12333000  0.20998000  0.89721000  1.0 2.305668778
W  W41  1  0.00383000  0.11446000  0.77322000  1.0 2.4077559579
W  W42  1  0.03945000  0.13554000  0.64828000  1.0 2.2169840404
W  W43  1  0.19234000  0.25554000  0.63510000  1.0 2.3770319887
W  W44  1  0.85897000  0.21192000  0.68045000  1.0 2.42896337
W  W45  1  0.35310000  0.14771000  0.73662000  1.0 2.2328478761
W  W46  1  0.29363000  0.34458000  0.74568000  1.0 2.3641534515
W  W47  1  0.01021000  0.33304000  0.66647000  1.0 2.4192394682
W  W48  1  0.25537000  0.32022000  0.88177000  1.0 2.2383859821
C  C1  1  0.90770000  0.16870000  0.47010000  1.0 0.1409260486
C  C2  1  0.59830000  0.06080000  0.53330000  1.0 0.2911834375
C  C3  1  0.74920000  0.15520000  0.39650000  1.0 0.0600954325
C  C4  1  0.60070000  0.04220000  0.43870000  1.0 0.2557618686
C  C5  1  0.54530000  0.66910000  0.48390000  1.0 0.0600954325
C  C6  1  0.60380000  0.65700000  0.41480000  1.0 0.036505239
C  C7  1  0.66290000  0.87990000  0.42150000  1.0 0.0678581067
C  C8  1  0.68310000  0.35940000  0.48530000  1.0 0.1517991631
C  C9  1  0.73440000  0.96300000  0.39350000  1.0 -0.3010739095
C  C10  1  0.58580000  0.47000000  0.38940000  1.0 -0.3010739095
C  C11  1  0.60480000  0.51770000  0.43020000  1.0 0.2911834375
C  C12  1  0.73250000  0.53160000  0.46160000  1.0 -0.1474910944
C  C13  1  0.78730000  0.53430000  0.52220000  1.0 -0.1041581786
C  C14  1  0.71500000  0.02940000  0.46720000  1.0 -0.1810373671
C  C15  1  0.78030000  0.01370000  0.43070000  1.0 0.2781121351
C  C16  1  0.77200000  0.05620000  0.38420000  1.0 -0.2912594186
C  C17  1  0.81380000  0.85410000  0.49250000  1.0 0.1334776996
C  C18  1  0.91260000  0.56260000  0.45860000  1.0 -0.3784511916
C  C19  1  0.90460000  0.54930000  0.55260000  1.0 -0.2912594186
C  C20  1  0.53700000  0.05760000  0.47100000  1.0 -0.4282277978
C  C21  1  0.77130000  0.03340000  0.52930000  1.0 -0.0916899673
C  C22  1  0.71410000  0.04780000  0.56210000  1.0 -0.2678059165
C  C23  1  0.54000000  0.56440000  0.38760000  1.0 -0.2678059165
C  C24  1  0.79920000  0.54610000  0.43120000  1.0 0.2487741851
C  C25  1  0.96210000  0.56200000  0.51910000  1.0 0.2725168459
C  C26  1  0.68910000  0.38230000  0.40490000  1.0 0.0805739288
C  C27  1  0.09230000  0.66870000  0.02990000  1.0 0.1409260486
C  C28  1  0.40170000  0.56080000  0.96670000  1.0 0.2911834375
C  C29  1  0.25080000  0.65520000  0.10350000  1.0 0.0600954325
C  C30  1  0.39930000  0.54220000  0.06130000  1.0 0.2557618686
C  C31  1  0.45470000  0.16910000  0.01610000  1.0 0.0600954325
C  C32  1  0.39620000  0.15700000  0.08520000  1.0 0.036505239
C  C33  1  0.33710000  0.37990000  0.07850000  1.0 0.0678581067
C  C34  1  0.31690000  0.85940000  0.01470000  1.0 0.1517991631
C  C35  1  0.26560000  0.46300000  0.10650000  1.0 -0.3010739095
C  C36  1  0.41420000  0.97000000  0.11060000  1.0 -0.3010739095
C  C37  1  0.39520000  0.01770000  0.06980000  1.0 0.2911834375
C  C38  1  0.26750000  0.03160000  0.03840000  1.0 -0.1474910944
C  C39  1  0.21270000  0.03430000  0.97780000  1.0 -0.1041581786
C  C40  1  0.28500000  0.52940000  0.03280000  1.0 -0.1810373671
C  C41  1  0.21970000  0.51370000  0.06930000  1.0 0.2781121351
C  C42  1  0.22800000  0.55620000  0.11580000  1.0 -0.2912594186
C  C43  1  0.18620000  0.35410000  0.00750000  1.0 0.1334776996
C  C44  1  0.08740000  0.06260000  0.04140000  1.0 -0.3784511916
C  C45  1  0.09540000  0.04930000  0.94740000  1.0 -0.2912594186
C  C46  1  0.46300000  0.55760000  0.02900000  1.0 -0.4282277978
C  C47  1  0.22870000  0.53340000  0.97070000  1.0 -0.0916899673
C  C48  1  0.28590000  0.54780000  0.93790000  1.0 -0.2678059165
C  C49  1  0.46000000  0.06440000  0.11240000  1.0 -0.2678059165
C  C50  1  0.20080000  0.04610000  0.06880000  1.0 0.2487741851
C  C51  1  0.03790000  0.06200000  0.98090000  1.0 0.2725168459
C  C52  1  0.31090000  0.88230000  0.09510000  1.0 0.0805739288
C  C53  1  0.09230000  0.83130000  0.52990000  1.0 0.1409260486
C  C54  1  0.40170000  0.93920000  0.46670000  1.0 0.2911834375
C  C55  1  0.25080000  0.84480000  0.60350000  1.0 0.0600954325
C  C56  1  0.39930000  0.95780000  0.56130000  1.0 0.2557618686
C  C57  1  0.45470000  0.33090000  0.51610000  1.0 0.0600954325
C  C58  1  0.39620000  0.34300000  0.58520000  1.0 0.036505239
C  C59  1  0.33710000  0.12010000  0.57850000  1.0 0.0678581067
C  C60  1  0.31690000  0.64060000  0.51470000  1.0 0.1517991631
C  C61  1  0.26560000  0.03700000  0.60650000  1.0 -0.3010739095
C  C62  1  0.41420000  0.53000000  0.61060000  1.0 -0.3010739095
C  C63  1  0.39520000  0.48230000  0.56980000  1.0 0.2911834375
C  C64  1  0.26750000  0.46840000  0.53840000  1.0 -0.1474910944
C  C65  1  0.21270000  0.46570000  0.47780000  1.0 -0.1041581786
C  C66  1  0.28500000  0.97060000  0.53280000  1.0 -0.1810373671
C  C67  1  0.21970000  0.98630000  0.56930000  1.0 0.2781121351
C  C68  1  0.22800000  0.94380000  0.61580000  1.0 -0.2912594186
C  C69  1  0.18620000  0.14590000  0.50750000  1.0 0.1334776996
C  C70  1  0.08740000  0.43740000  0.54140000  1.0 -0.3784511916
C  C71  1  0.09540000  0.45070000  0.44740000  1.0 -0.2912594186
C  C72  1  0.46300000  0.94240000  0.52900000  1.0 -0.4282277978
C  C73  1  0.22870000  0.96660000  0.47070000  1.0 -0.0916899673
C  C74  1  0.28590000  0.95220000  0.43790000  1.0 -0.2678059165
C  C75  1  0.46000000  0.43560000  0.61240000  1.0 -0.2678059165
C  C76  1  0.20080000  0.45390000  0.56880000  1.0 0.2487741851
C  C77  1  0.03790000  0.43800000  0.48090000  1.0 0.2725168459
C  C78  1  0.31090000  0.61770000  0.59510000  1.0 0.0805739288
C  C79  1  0.90770000  0.33130000  0.97010000  1.0 0.1334776996
C  C80  1  0.59830000  0.43920000  0.03330000  1.0 0.2911834375
C  C81  1  0.74920000  0.34480000  0.89650000  1.0 0.0600954325
C  C82  1  0.60070000  0.45780000  0.93870000  1.0 0.2557618686
C  C83  1  0.54530000  0.83090000  0.98390000  1.0 0.0600954325
C  C84  1  0.60380000  0.84300000  0.91480000  1.0 0.0342975662
C  C85  1  0.66290000  0.62010000  0.92150000  1.0 0.0678581067
C  C86  1  0.68310000  0.14060000  0.98530000  1.0 0.1517991631
C  C87  1  0.73440000  0.53700000  0.89350000  1.0 -0.3010739095
C  C88  1  0.58580000  0.03000000  0.88940000  1.0 -0.3010739095
C  C89  1  0.60480000  0.98230000  0.93020000  1.0 0.2911834375
C  C90  1  0.73250000  0.96840000  0.96160000  1.0 -0.1474910944
C  C91  1  0.78730000  0.96570000  0.02220000  1.0 -0.1041581786
C  C92  1  0.71500000  0.47060000  0.96720000  1.0 -0.1810373671
C  C93  1  0.78030000  0.48630000  0.93070000  1.0 0.2781121351
C  C94  1  0.77200000  0.44380000  0.88420000  1.0 -0.2912594186
C  C95  1  0.81380000  0.64590000  0.99250000  1.0 0.1334776996
C  C96  1  0.91260000  0.93740000  0.95860000  1.0 -0.3784511916
C  C97  1  0.90460000  0.95070000  0.05260000  1.0 -0.2912594186
C  C98  1  0.53700000  0.44240000  0.97100000  1.0 -0.4282277978
C  C99  1  0.77130000  0.46660000  0.02930000  1.0 -0.0916899673
C  C100  1  0.71410000  0.45220000  0.06210000  1.0 -0.2678059165
C  C101  1  0.54000000  0.93560000  0.88760000  1.0 -0.2678059165
C  C102  1  0.79920000  0.95390000  0.93120000  1.0 0.2487741851
C  C103  1  0.96210000  0.93800000  0.01910000  1.0 0.2725168459
C  C104  1  0.68910000  0.11770000  0.90490000  1.0 0.0805739288
N  N1  1  0.90960000  0.11740000  0.45790000  1.0 -0.2912594186
N  N2  1  0.80510000  0.10940000  0.41140000  1.0 0.1517991631
N  N3  1  0.63220000  0.40500000  0.47360000  1.0 -0.2678059165
N  N4  1  0.63900000  0.42040000  0.42200000  1.0 0.1583103959
N  N5  1  0.72110000  0.34260000  0.44530000  1.0 -0.3292077861
N  N6  1  0.81250000  0.19260000  0.43540000  1.0 -0.3010739095
N  N7  1  0.51500000  0.61900000  0.46360000  1.0 -0.3010739095
N  N8  1  0.59850000  0.69370000  0.45420000  1.0 -0.2678059165
N  N9  1  0.55590000  0.61180000  0.42140000  1.0 0.1517991631
N  N10  1  0.70530000  0.83970000  0.46040000  1.0 -0.3292077861
N  N11  1  0.84050000  0.90000000  0.47600000  1.0 -0.2782962553
N  N12  1  0.73990000  0.91650000  0.42970000  1.0 0.1517991631
N  N13  1  0.09040000  0.61740000  0.04210000  1.0 -0.2912594186
N  N14  1  0.19490000  0.60940000  0.08860000  1.0 0.1517991631
N  N15  1  0.36780000  0.90500000  0.02640000  1.0 -0.2678059165
N  N16  1  0.36100000  0.92040000  0.07800000  1.0 0.1583103959
N  N17  1  0.27890000  0.84260000  0.05470000  1.0 -0.3292077861
N  N18  1  0.18750000  0.69260000  0.06460000  1.0 -0.3010739095
N  N19  1  0.48500000  0.11900000  0.03640000  1.0 -0.3010739095
N  N20  1  0.40150000  0.19370000  0.04580000  1.0 -0.2678059165
N  N21  1  0.44410000  0.11180000  0.07860000  1.0 0.1517991631
N  N22  1  0.29470000  0.33970000  0.03960000  1.0 -0.3292077861
N  N23  1  0.15950000  0.40000000  0.02400000  1.0 -0.2782962553
N  N24  1  0.26010000  0.41650000  0.07030000  1.0 0.1517991631
N  N25  1  0.09040000  0.88260000  0.54210000  1.0 -0.2912594186
N  N26  1  0.19490000  0.89060000  0.58860000  1.0 0.1517991631
N  N27  1  0.36780000  0.59500000  0.52640000  1.0 -0.2678059165
N  N28  1  0.36100000  0.57960000  0.57800000  1.0 0.1583103959
N  N29  1  0.27890000  0.65740000  0.55470000  1.0 -0.3292077861
N  N30  1  0.18750000  0.80740000  0.56460000  1.0 -0.3010739095
N  N31  1  0.48500000  0.38100000  0.53640000  1.0 -0.3010739095
N  N32  1  0.40150000  0.30630000  0.54580000  1.0 -0.2633920989
N  N33  1  0.44410000  0.38820000  0.57860000  1.0 0.1517991631
N  N34  1  0.29470000  0.16030000  0.53960000  1.0 -0.3292077861
N  N35  1  0.15950000  0.10000000  0.52400000  1.0 -0.2782962553
N  N36  1  0.26010000  0.08350000  0.57030000  1.0 0.1517991631
N  N37  1  0.90960000  0.38260000  0.95790000  1.0 -0.2912594186
N  N38  1  0.80510000  0.39060000  0.91140000  1.0 0.1517991631
N  N39  1  0.63220000  0.09500000  0.97360000  1.0 -0.2678059165
N  N40  1  0.63900000  0.07960000  0.92200000  1.0 0.1583103959
N  N41  1  0.72110000  0.15740000  0.94530000  1.0 -0.3292077861
N  N42  1  0.81250000  0.30740000  0.93540000  1.0 -0.3010739095
N  N43  1  0.51500000  0.88100000  0.96360000  1.0 -0.3010739095
N  N44  1  0.59850000  0.80630000  0.95420000  1.0 -0.2633920989
N  N45  1  0.55590000  0.88820000  0.92140000  1.0 0.1517991631
N  N46  1  0.70530000  0.66030000  0.96040000  1.0 -0.3292077861
N  N47  1  0.84050000  0.60000000  0.97600000  1.0 -0.2782962553
N  N48  1  0.73990000  0.58350000  0.92970000  1.0 0.1517991631
O  O1  1  0.55950000  0.50930000  0.47280000  1.0 -0.588112884
O  O2  1  0.89820000  0.00610000  0.46970000  1.0 -0.588112884
O  O3  1  0.27570000  0.30350000  0.29200000  1.0 -1.10518127
O  O4  1  0.44680000  0.32810000  0.38890000  1.0 -0.9398645864
O  O5  1  0.02890000  0.33830000  0.33600000  1.0 -0.9488248928
O  O6  1  0.36550000  0.39750000  0.30010000  1.0 -0.9398645864
O  O7  1  0.30420000  0.29100000  0.18340000  1.0 -0.9488248928
O  O8  1  0.05360000  0.31260000  0.22980000  1.0 -1.1439543001
O  O9  1  0.08440000  0.30050000  0.12010000  1.0 -0.9398645864
O  O10  1  0.13740000  0.24330000  0.31890000  1.0 -1.1485739581
O  O11  1  0.40230000  0.20970000  0.28830000  1.0 -0.9718024514
O  O12  1  0.24780000  0.32980000  0.39710000  1.0 -0.9046755813
O  O13  1  0.37730000  0.22740000  0.38610000  1.0 -0.9224156819
O  O14  1  0.10060000  0.15290000  0.35830000  1.0 -0.9605089657
O  O15  1  0.99730000  0.16160000  0.24050000  1.0 -0.9887626923
O  O16  1  0.06230000  0.19510000  0.10950000  1.0 -0.9312220595
O  O17  1  0.99930000  0.24100000  0.37070000  1.0 -0.9488248928
O  O18  1  0.14550000  0.12560000  0.19840000  1.0 -0.9782688475
O  O19  1  0.59510000  0.24690000  0.38960000  1.0 -0.7695270113
O  O20  1  0.19740000  0.37620000  0.19230000  1.0 -0.9488248928
O  O21  1  0.00330000  0.41020000  0.19870000  1.0 -0.9488248928
O  O22  1  0.86280000  0.35120000  0.22490000  1.0 -0.9957789711
O  O23  1  0.91510000  0.22820000  0.15200000  1.0 -0.9887626923
O  O24  1  0.89190000  0.24540000  0.25050000  1.0 -0.9782688475
O  O25  1  0.16480000  0.39750000  0.30940000  1.0 -0.9398645864
O  O26  1  0.15740000  0.22660000  0.21730000  1.0 -1.1573755674
O  O27  1  0.47360000  0.31010000  0.29030000  1.0 -0.9398645864
O  O28  1  0.89170000  0.33270000  0.12640000  1.0 -0.9398645864
O  O29  1  0.29000000  0.18520000  0.17350000  1.0 -0.9398645864
O  O30  1  0.26450000  0.15020000  0.31400000  1.0 -0.9488248928
O  O31  1  0.22660000  0.23250000  0.43430000  1.0 -1.0068027906
O  O32  1  0.21440000  0.24580000  0.07190000  1.0 -0.7502243749
O  O33  1  0.44050000  0.00930000  0.02720000  1.0 -0.588112884
O  O34  1  0.10180000  0.50610000  0.03030000  1.0 -0.588112884
O  O35  1  0.72430000  0.80350000  0.20800000  1.0 -1.1039429239
O  O36  1  0.55320000  0.82810000  0.11110000  1.0 -0.9398645864
O  O37  1  0.97110000  0.83830000  0.16400000  1.0 -0.9488248928
O  O38  1  0.63450000  0.89750000  0.19990000  1.0 -0.9398645864
O  O39  1  0.69580000  0.79100000  0.31660000  1.0 -0.9398645864
O  O40  1  0.94640000  0.81260000  0.27020000  1.0 -1.1439543001
O  O41  1  0.91560000  0.80050000  0.37990000  1.0 -0.9398645864
O  O42  1  0.86260000  0.74330000  0.18110000  1.0 -1.1485739581
O  O43  1  0.59770000  0.70970000  0.21170000  1.0 -0.9718024514
O  O44  1  0.75220000  0.82980000  0.10290000  1.0 -0.9046755813
O  O45  1  0.62270000  0.72740000  0.11390000  1.0 -0.9224156819
O  O46  1  0.89940000  0.65290000  0.14170000  1.0 -0.9605089657
O  O47  1  0.00270000  0.66160000  0.25950000  1.0 -0.9887626923
O  O48  1  0.93770000  0.69510000  0.39050000  1.0 -0.9312220595
O  O49  1  0.00070000  0.74100000  0.12930000  1.0 -0.9488248928
O  O50  1  0.85450000  0.62560000  0.30160000  1.0 -0.9782688475
O  O51  1  0.40490000  0.74690000  0.11040000  1.0 -0.7695270113
O  O52  1  0.80260000  0.87620000  0.30770000  1.0 -0.9488248928
O  O53  1  0.99670000  0.91020000  0.30130000  1.0 -0.9488248928
O  O54  1  0.13720000  0.85120000  0.27510000  1.0 -0.9957789711
O  O55  1  0.08490000  0.72820000  0.34800000  1.0 -0.9887626923
O  O56  1  0.10810000  0.74540000  0.24950000  1.0 -0.9782688475
O  O57  1  0.83520000  0.89750000  0.19060000  1.0 -0.9398645864
O  O58  1  0.84260000  0.72660000  0.28270000  1.0 -1.1573755674
O  O59  1  0.52640000  0.81010000  0.20970000  1.0 -0.9398645864
O  O60  1  0.10830000  0.83270000  0.37360000  1.0 -0.9398645864
O  O61  1  0.71000000  0.68520000  0.32650000  1.0 -0.9398645864
O  O62  1  0.73550000  0.65020000  0.18600000  1.0 -0.9488248928
O  O63  1  0.77340000  0.73250000  0.06570000  1.0 -1.0068027906
O  O64  1  0.78560000  0.74580000  0.42810000  1.0 -0.7502243749
O  O65  1  0.44050000  0.49070000  0.52720000  1.0 -0.588112884
O  O66  1  0.10180000  0.99390000  0.53030000  1.0 -0.588112884
O  O67  1  0.72430000  0.69650000  0.70800000  1.0 -1.10518127
O  O68  1  0.55320000  0.67190000  0.61110000  1.0 -0.9398645864
O  O69  1  0.97110000  0.66170000  0.66400000  1.0 -0.9488248928
O  O70  1  0.63450000  0.60250000  0.69990000  1.0 -0.9398645864
O  O71  1  0.69580000  0.70900000  0.81660000  1.0 -0.9398645864
O  O72  1  0.94640000  0.68740000  0.77020000  1.0 -1.1439543001
O  O73  1  0.91560000  0.69950000  0.87990000  1.0 -0.9398645864
O  O74  1  0.86260000  0.75670000  0.68110000  1.0 -1.1485739581
O  O75  1  0.59770000  0.79030000  0.71170000  1.0 -0.9718024514
O  O76  1  0.75220000  0.67020000  0.60290000  1.0 -0.9046755813
O  O77  1  0.62270000  0.77260000  0.61390000  1.0 -0.9224156819
O  O78  1  0.89940000  0.84710000  0.64170000  1.0 -0.9605089657
O  O79  1  0.00270000  0.83840000  0.75950000  1.0 -0.9887626923
O  O80  1  0.93770000  0.80490000  0.89050000  1.0 -0.9312220595
O  O81  1  0.00070000  0.75900000  0.62930000  1.0 -0.9488248928
O  O82  1  0.85450000  0.87440000  0.80160000  1.0 -0.9782688475
O  O83  1  0.40490000  0.75310000  0.61040000  1.0 -0.7695270113
O  O84  1  0.80260000  0.62380000  0.80770000  1.0 -0.9488248928
O  O85  1  0.99670000  0.58980000  0.80130000  1.0 -0.9488248928
O  O86  1  0.13720000  0.64880000  0.77510000  1.0 -0.9957789711
O  O87  1  0.08490000  0.77180000  0.84800000  1.0 -0.9887626923
O  O88  1  0.10810000  0.75460000  0.74950000  1.0 -0.9782688475
O  O89  1  0.83520000  0.60250000  0.69060000  1.0 -0.9398645864
O  O90  1  0.84260000  0.77340000  0.78270000  1.0 -1.1573755674
O  O91  1  0.52640000  0.68990000  0.70970000  1.0 -0.9398645864
O  O92  1  0.10830000  0.66730000  0.87360000  1.0 -0.9398645864
O  O93  1  0.71000000  0.81480000  0.82650000  1.0 -0.9398645864
O  O94  1  0.73550000  0.84980000  0.68600000  1.0 -0.9488248928
O  O95  1  0.77340000  0.76750000  0.56570000  1.0 -1.0068027906
O  O96  1  0.78560000  0.75420000  0.92810000  1.0 -0.7502243749
O  O97  1  0.55950000  0.99070000  0.97280000  1.0 -0.588112884
O  O98  1  0.89820000  0.49390000  0.96970000  1.0 -0.588112884
O  O99  1  0.27570000  0.19650000  0.79200000  1.0 -1.10518127
O  O100  1  0.44680000  0.17190000  0.88890000  1.0 -0.9398645864
O  O101  1  0.02890000  0.16170000  0.83600000  1.0 -0.9488248928
O  O102  1  0.36550000  0.10250000  0.80010000  1.0 -0.9398645864
O  O103  1  0.30420000  0.20900000  0.68340000  1.0 -0.9398645864
O  O104  1  0.05360000  0.18740000  0.72980000  1.0 -1.1439543001
O  O105  1  0.08440000  0.19950000  0.62010000  1.0 -0.9398645864
O  O106  1  0.13740000  0.25670000  0.81890000  1.0 -1.1485739581
O  O107  1  0.40230000  0.29030000  0.78830000  1.0 -0.9718024514
O  O108  1  0.24780000  0.17020000  0.89710000  1.0 -0.9046755813
O  O109  1  0.37730000  0.27260000  0.88610000  1.0 -0.9224156819
O  O110  1  0.10060000  0.34710000  0.85830000  1.0 -0.9605089657
O  O111  1  0.99730000  0.33840000  0.74050000  1.0 -0.9887626923
O  O112  1  0.06230000  0.30490000  0.60950000  1.0 -0.9312220595
O  O113  1  0.99930000  0.25900000  0.87070000  1.0 -0.9488248928
O  O114  1  0.14550000  0.37440000  0.69840000  1.0 -0.9782688475
O  O115  1  0.59510000  0.25310000  0.88960000  1.0 -0.7695270113
O  O116  1  0.19740000  0.12380000  0.69230000  1.0 -0.9488248928
O  O117  1  0.00330000  0.08980000  0.69870000  1.0 -0.9488248928
O  O118  1  0.86280000  0.14880000  0.72490000  1.0 -0.9957789711
O  O119  1  0.91510000  0.27180000  0.65200000  1.0 -0.9887626923
O  O120  1  0.89190000  0.25460000  0.75050000  1.0 -0.9782688475
O  O121  1  0.16480000  0.10250000  0.80940000  1.0 -0.9398645864
O  O122  1  0.15740000  0.27340000  0.71730000  1.0 -1.1573755674
O  O123  1  0.47360000  0.18990000  0.79030000  1.0 -0.9398645864
O  O124  1  0.89170000  0.16730000  0.62640000  1.0 -0.9398645864
O  O125  1  0.29000000  0.31480000  0.67350000  1.0 -0.9398645864
O  O126  1  0.26450000  0.34980000  0.81400000  1.0 -0.9488248928
O  O127  1  0.22660000  0.26750000  0.93430000  1.0 -1.0068027906
O  O128  1  0.21440000  0.25420000  0.57190000  1.0 -0.7502243749
F  F1  1  0.74930000  0.54410000  0.37170000  1.0 -0.1810373671
F  F2  1  0.07260000  0.57720000  0.54840000  1.0 -0.1810373671
F  F3  1  0.54280000  0.03860000  0.38210000  1.0 -0.1810373671
F  F4  1  0.54180000  0.07680000  0.56800000  1.0 -0.203466837
F  F5  1  0.25070000  0.04410000  0.12830000  1.0 -0.1810373671
F  F6  1  0.92740000  0.07720000  0.95160000  1.0 -0.1810373671
F  F7  1  0.45720000  0.53860000  0.11790000  1.0 -0.1810373671
F  F8  1  0.45820000  0.57680000  0.93200000  1.0 -0.203466837
F  F9  1  0.25070000  0.45590000  0.62830000  1.0 -0.1810373671
F  F10  1  0.92740000  0.42280000  0.45160000  1.0 -0.1810373671
F  F11  1  0.45720000  0.96140000  0.61790000  1.0 -0.1810373671
F  F12  1  0.45820000  0.92320000  0.43200000  1.0 -0.203466837
F  F13  1  0.74930000  0.95590000  0.87170000  1.0 -0.1810373671
F  F14  1  0.07260000  0.92280000  0.04840000  1.0 -0.1810373671
F  F15  1  0.54280000  0.46140000  0.88210000  1.0 -0.1810373671
F  F16  1  0.54180000  0.42320000  0.06800000  1.0 -0.203466837
