# DDEC6 charges by PACMAN v1.1 (https://github.com/mtap-research/PACMAN-charge/)
data_PIDQAX_ASR_pacman
_symmetry_space_group_name_H-M   'P 1'
_cell_length_a   14.39200000
_cell_length_b   27.15800000
_cell_length_c   28.37600000
_cell_angle_alpha   90.00000000
_cell_angle_beta   90.00000000
_cell_angle_gamma   90.00000000
_symmetry_Int_Tables_number   1
_chemical_formula_structural   Ba2Li2Cu2H28C42IN7O16
_chemical_formula_sum   'Ba16 Li16 Cu16 H224 C336 I8 N56 O128'
_cell_volume   11090.98479194
_cell_formula_units_Z   8
loop_
 _symmetry_equiv_pos_site_id
 _symmetry_equiv_pos_as_xyz
  1  'x, y, z'
loop_
 _atom_site_type_symbol
 _atom_site_label
 _atom_site_symmetry_multiplicity
 _atom_site_fract_x
 _atom_site_fract_y
 _atom_site_fract_z
 _atom_site_occupancy
 _atom_site_charge
Ba  Ba1  1  0.50278000  0.32571000  0.52527000  1.0 1.3984252867
Ba  Ba2  1  0.23660000  0.25180000  0.52928000  1.0 1.4456088301
Ba  Ba3  1  0.99722000  0.67429000  0.02527000  1.0 1.3984252867
Ba  Ba4  1  0.26340000  0.74820000  0.02928000  1.0 1.4456088301
Ba  Ba5  1  0.49722000  0.82571000  0.97473000  1.0 1.3984252867
Ba  Ba6  1  0.76340000  0.75180000  0.97072000  1.0 1.4456088301
Ba  Ba7  1  0.00278000  0.17429000  0.47473000  1.0 1.3984252867
Ba  Ba8  1  0.73660000  0.24820000  0.47072000  1.0 1.4456088301
Ba  Ba9  1  0.49722000  0.67429000  0.47473000  1.0 1.3984252867
Ba  Ba10  1  0.76340000  0.74820000  0.47072000  1.0 1.4456088301
Ba  Ba11  1  0.00278000  0.32571000  0.97473000  1.0 1.3984252867
Ba  Ba12  1  0.73660000  0.25180000  0.97072000  1.0 1.4456088301
Ba  Ba13  1  0.50278000  0.17429000  0.02527000  1.0 1.3984252867
Ba  Ba14  1  0.23660000  0.24820000  0.02928000  1.0 1.4456088301
Ba  Ba15  1  0.99722000  0.82571000  0.52527000  1.0 1.3984252867
Ba  Ba16  1  0.26340000  0.75180000  0.52928000  1.0 1.4456088301
Li  Li1  1  0.48400000  0.45010000  0.48770000  1.0 0.8128131088
Li  Li2  1  0.42500000  0.25960000  0.63100000  1.0 0.754139727
Li  Li3  1  0.01600000  0.54990000  0.98770000  1.0 0.8128131088
Li  Li4  1  0.07500000  0.74040000  0.13100000  1.0 0.754139727
Li  Li5  1  0.51600000  0.95010000  0.01230000  1.0 0.8128131088
Li  Li6  1  0.57500000  0.75960000  0.86900000  1.0 0.754139727
Li  Li7  1  0.98400000  0.04990000  0.51230000  1.0 0.8128131088
Li  Li8  1  0.92500000  0.24040000  0.36900000  1.0 0.754139727
Li  Li9  1  0.51600000  0.54990000  0.51230000  1.0 0.8128131088
Li  Li10  1  0.57500000  0.74040000  0.36900000  1.0 0.754139727
Li  Li11  1  0.98400000  0.45010000  0.01230000  1.0 0.8128131088
Li  Li12  1  0.92500000  0.25960000  0.86900000  1.0 0.754139727
Li  Li13  1  0.48400000  0.04990000  0.98770000  1.0 0.8128131088
Li  Li14  1  0.42500000  0.24040000  0.13100000  1.0 0.754139727
Li  Li15  1  0.01600000  0.95010000  0.48770000  1.0 0.8128131088
Li  Li16  1  0.07500000  0.75960000  0.63100000  1.0 0.7556514796
Cu  Cu1  1  0.17131000  0.01101000  0.75680000  1.0 0.2143657096
Cu  Cu2  1  0.00088000  0.99500000  0.88388000  1.0 0.1909048539
Cu  Cu3  1  0.32869000  0.98899000  0.25680000  1.0 0.2143657096
Cu  Cu4  1  0.49912000  0.00500000  0.38388000  1.0 0.1909048539
Cu  Cu5  1  0.82869000  0.51101000  0.74320000  1.0 0.2143657096
Cu  Cu6  1  0.99912000  0.49500000  0.61612000  1.0 0.1909048539
Cu  Cu7  1  0.67131000  0.48899000  0.24320000  1.0 0.2143657096
Cu  Cu8  1  0.50088000  0.50500000  0.11612000  1.0 0.1909048539
Cu  Cu9  1  0.82869000  0.98899000  0.24320000  1.0 0.2143657096
Cu  Cu10  1  0.99912000  0.00500000  0.11612000  1.0 0.1909048539
Cu  Cu11  1  0.67131000  0.01101000  0.74320000  1.0 0.2143657096
Cu  Cu12  1  0.50088000  0.99500000  0.61612000  1.0 0.1909048539
Cu  Cu13  1  0.17131000  0.48899000  0.25680000  1.0 0.2143657096
Cu  Cu14  1  0.00088000  0.50500000  0.38388000  1.0 0.1909048539
Cu  Cu15  1  0.32869000  0.51101000  0.75680000  1.0 0.2143657096
Cu  Cu16  1  0.49912000  0.49500000  0.88388000  1.0 0.1909048539
H  H1  1  0.18720000  0.44460000  0.71300000  1.0 0.0987716609
H  H2  1  0.26740000  0.47520000  0.49550000  1.0 0.1316574608
H  H3  1  0.60490000  0.14180000  0.48550000  1.0 0.1316574608
H  H4  1  0.17060000  0.38500000  0.65700000  1.0 0.1375474837
H  H5  1  0.36980000  0.09360000  0.38860000  1.0 0.0987716609
H  H6  1  0.35590000  0.16730000  0.42590000  1.0 0.1458995101
H  H7  1  0.45390000  0.08070000  0.55520000  1.0 0.0922092082
H  H8  1  0.19800000  0.35880000  0.41680000  1.0 0.1316574608
H  H9  1  0.59500000  0.54340000  0.61370000  1.0 0.1316574608
H  H10  1  0.60730000  0.06810000  0.44710000  1.0 0.0987716609
H  H11  1  0.44580000  0.38730000  0.63830000  1.0 0.1375474837
H  H12  1  0.15310000  0.51980000  0.45690000  1.0 0.0922092082
H  H13  1  0.67210000  0.40240000  0.63040000  1.0 0.1375474837
H  H14  1  0.09870000  0.40900000  0.37610000  1.0 0.0987716609
H  H15  1  0.16110000  0.03010000  0.58940000  1.0 0.1458995101
H  H16  1  0.28900000  0.99010000  0.61820000  1.0 0.0987716609
H  H17  1  0.33010000  0.12650000  0.52860000  1.0 0.1316574608
H  H18  1  0.45530000  0.44830000  0.69490000  1.0 0.0987716609
H  H19  1  0.06770000  0.08980000  0.70500000  1.0 0.0987716609
H  H20  1  0.68460000  0.56280000  0.67870000  1.0 0.0987716609
H  H21  1  0.75990000  0.42590000  0.69260000  1.0 0.0987716609
H  H22  1  0.09310000  0.15740000  0.66050000  1.0 0.1458995101
H  H23  1  0.33360000  0.06970000  0.72490000  1.0 0.0922092082
H  H24  1  0.36280000  0.13780000  0.67270000  1.0 0.1316574608
H  H25  1  0.90050000  0.18700000  0.64430000  1.0 0.0987716609
H  H26  1  0.81600000  0.24030000  0.59690000  1.0 0.1316574608
H  H27  1  0.58400000  0.20690000  0.66890000  1.0 0.1115348246
H  H28  1  0.66850000  0.15360000  0.71630000  1.0 0.0987716609
H  H29  1  0.31280000  0.55540000  0.21300000  1.0 0.0987716609
H  H30  1  0.23260000  0.52480000  0.99550000  1.0 0.1316574608
H  H31  1  0.89510000  0.85820000  0.98550000  1.0 0.1316574608
H  H32  1  0.32940000  0.61500000  0.15700000  1.0 0.1375474837
H  H33  1  0.13020000  0.90640000  0.88860000  1.0 0.0987716609
H  H34  1  0.14410000  0.83270000  0.92590000  1.0 0.1458995101
H  H35  1  0.04610000  0.91930000  0.05520000  1.0 0.0922092082
H  H36  1  0.30200000  0.64120000  0.91680000  1.0 0.1316574608
H  H37  1  0.90500000  0.45660000  0.11370000  1.0 0.1316574608
H  H38  1  0.89270000  0.93190000  0.94710000  1.0 0.0987716609
H  H39  1  0.05420000  0.61270000  0.13830000  1.0 0.1375474837
H  H40  1  0.34690000  0.48020000  0.95690000  1.0 0.0922092082
H  H41  1  0.82790000  0.59760000  0.13040000  1.0 0.1375474837
H  H42  1  0.40130000  0.59100000  0.87610000  1.0 0.0987716609
H  H43  1  0.33890000  0.96990000  0.08940000  1.0 0.1458995101
H  H44  1  0.21100000  0.00990000  0.11820000  1.0 0.0987716609
H  H45  1  0.16990000  0.87350000  0.02860000  1.0 0.1316574608
H  H46  1  0.04470000  0.55170000  0.19490000  1.0 0.0987716609
H  H47  1  0.43230000  0.91020000  0.20500000  1.0 0.0987716609
H  H48  1  0.81540000  0.43720000  0.17870000  1.0 0.0987716609
H  H49  1  0.74010000  0.57410000  0.19260000  1.0 0.0987716609
H  H50  1  0.40690000  0.84260000  0.16050000  1.0 0.1458995101
H  H51  1  0.16640000  0.93030000  0.22490000  1.0 0.0922092082
H  H52  1  0.13720000  0.86220000  0.17270000  1.0 0.1316574608
H  H53  1  0.59950000  0.81300000  0.14430000  1.0 0.0987716609
H  H54  1  0.68400000  0.75970000  0.09690000  1.0 0.1316574608
H  H55  1  0.91600000  0.79310000  0.16890000  1.0 0.1115348246
H  H56  1  0.83150000  0.84640000  0.21630000  1.0 0.0987716609
H  H57  1  0.81280000  0.94460000  0.78700000  1.0 0.0987716609
H  H58  1  0.73260000  0.97520000  0.00450000  1.0 0.1316574608
H  H59  1  0.39510000  0.64180000  0.01450000  1.0 0.1316574608
H  H60  1  0.82940000  0.88500000  0.84300000  1.0 0.1375474837
H  H61  1  0.63020000  0.59360000  0.11140000  1.0 0.0987716609
H  H62  1  0.64410000  0.66730000  0.07410000  1.0 0.1458995101
H  H63  1  0.54610000  0.58070000  0.94480000  1.0 0.0922092082
H  H64  1  0.80200000  0.85880000  0.08320000  1.0 0.1316574608
H  H65  1  0.40500000  0.04340000  0.88630000  1.0 0.1316574608
H  H66  1  0.39270000  0.56810000  0.05290000  1.0 0.0987716609
H  H67  1  0.55420000  0.88730000  0.86170000  1.0 0.1375474837
H  H68  1  0.84690000  0.01980000  0.04310000  1.0 0.0922092082
H  H69  1  0.32790000  0.90240000  0.86960000  1.0 0.1375474837
H  H70  1  0.90130000  0.90900000  0.12390000  1.0 0.0987716609
H  H71  1  0.83890000  0.53010000  0.91060000  1.0 0.1458995101
H  H72  1  0.71100000  0.49010000  0.88180000  1.0 0.0987716609
H  H73  1  0.66990000  0.62650000  0.97140000  1.0 0.1316574608
H  H74  1  0.54470000  0.94830000  0.80510000  1.0 0.0987716609
H  H75  1  0.93230000  0.58980000  0.79500000  1.0 0.0987716609
H  H76  1  0.31540000  0.06280000  0.82130000  1.0 0.0987716609
H  H77  1  0.24010000  0.92590000  0.80740000  1.0 0.0987716609
H  H78  1  0.90690000  0.65740000  0.83950000  1.0 0.1458995101
H  H79  1  0.66640000  0.56970000  0.77510000  1.0 0.0922092082
H  H80  1  0.63720000  0.63780000  0.82730000  1.0 0.1316574608
H  H81  1  0.09950000  0.68700000  0.85570000  1.0 0.0987716609
H  H82  1  0.18400000  0.74030000  0.90310000  1.0 0.1316574608
H  H83  1  0.41600000  0.70690000  0.83110000  1.0 0.1115348246
H  H84  1  0.33150000  0.65360000  0.78370000  1.0 0.0987716609
H  H85  1  0.68720000  0.05540000  0.28700000  1.0 0.0987716609
H  H86  1  0.76740000  0.02480000  0.50450000  1.0 0.1316574608
H  H87  1  0.10490000  0.35820000  0.51450000  1.0 0.1316574608
H  H88  1  0.67060000  0.11500000  0.34300000  1.0 0.1375474837
H  H89  1  0.86980000  0.40640000  0.61140000  1.0 0.0987716609
H  H90  1  0.85590000  0.33270000  0.57410000  1.0 0.1458995101
H  H91  1  0.95390000  0.41930000  0.44480000  1.0 0.0922092082
H  H92  1  0.69800000  0.14120000  0.58320000  1.0 0.1316574608
H  H93  1  0.09500000  0.95660000  0.38630000  1.0 0.1316574608
H  H94  1  0.10730000  0.43190000  0.55290000  1.0 0.0987716609
H  H95  1  0.94580000  0.11270000  0.36170000  1.0 0.1375474837
H  H96  1  0.65310000  0.98020000  0.54310000  1.0 0.0922092082
H  H97  1  0.17210000  0.09760000  0.36960000  1.0 0.1375474837
H  H98  1  0.59870000  0.09100000  0.62390000  1.0 0.0987716609
H  H99  1  0.66110000  0.46990000  0.41060000  1.0 0.1458995101
H  H100  1  0.78900000  0.50990000  0.38180000  1.0 0.0987716609
H  H101  1  0.83010000  0.37350000  0.47140000  1.0 0.1316574608
H  H102  1  0.95530000  0.05170000  0.30510000  1.0 0.0987716609
H  H103  1  0.56770000  0.41020000  0.29500000  1.0 0.0987716609
H  H104  1  0.18460000  0.93720000  0.32130000  1.0 0.0987716609
H  H105  1  0.25990000  0.07410000  0.30740000  1.0 0.0987716609
H  H106  1  0.59310000  0.34260000  0.33950000  1.0 0.1458995101
H  H107  1  0.83360000  0.43030000  0.27510000  1.0 0.0922092082
H  H108  1  0.86280000  0.36220000  0.32730000  1.0 0.1316574608
H  H109  1  0.40050000  0.31300000  0.35570000  1.0 0.0987716609
H  H110  1  0.31600000  0.25970000  0.40310000  1.0 0.1316574608
H  H111  1  0.08400000  0.29310000  0.33110000  1.0 0.1115348246
H  H112  1  0.16850000  0.34640000  0.28370000  1.0 0.0987716609
H  H113  1  0.81280000  0.55540000  0.28700000  1.0 0.0987716609
H  H114  1  0.73260000  0.52480000  0.50450000  1.0 0.1316574608
H  H115  1  0.39510000  0.85820000  0.51450000  1.0 0.1316574608
H  H116  1  0.82940000  0.61500000  0.34300000  1.0 0.1375474837
H  H117  1  0.63020000  0.90640000  0.61140000  1.0 0.0987716609
H  H118  1  0.64410000  0.83270000  0.57410000  1.0 0.1458995101
H  H119  1  0.54610000  0.91930000  0.44480000  1.0 0.0922092082
H  H120  1  0.80200000  0.64120000  0.58320000  1.0 0.1316574608
H  H121  1  0.40500000  0.45660000  0.38630000  1.0 0.1316574608
H  H122  1  0.39270000  0.93190000  0.55290000  1.0 0.0987716609
H  H123  1  0.55420000  0.61270000  0.36170000  1.0 0.1375474837
H  H124  1  0.84690000  0.48020000  0.54310000  1.0 0.0922092082
H  H125  1  0.32790000  0.59760000  0.36960000  1.0 0.1375474837
H  H126  1  0.90130000  0.59100000  0.62390000  1.0 0.0987716609
H  H127  1  0.83890000  0.96990000  0.41060000  1.0 0.1458995101
H  H128  1  0.71100000  0.00990000  0.38180000  1.0 0.0987716609
H  H129  1  0.66990000  0.87350000  0.47140000  1.0 0.1316574608
H  H130  1  0.54470000  0.55170000  0.30510000  1.0 0.0987716609
H  H131  1  0.93230000  0.91020000  0.29500000  1.0 0.0987716609
H  H132  1  0.31540000  0.43720000  0.32130000  1.0 0.0987716609
H  H133  1  0.24010000  0.57410000  0.30740000  1.0 0.0987716609
H  H134  1  0.90690000  0.84260000  0.33950000  1.0 0.1458995101
H  H135  1  0.66640000  0.93030000  0.27510000  1.0 0.0922092082
H  H136  1  0.63720000  0.86220000  0.32730000  1.0 0.1316574608
H  H137  1  0.09950000  0.81300000  0.35570000  1.0 0.0987716609
H  H138  1  0.18400000  0.75970000  0.40310000  1.0 0.1316574608
H  H139  1  0.41600000  0.79310000  0.33110000  1.0 0.1115348246
H  H140  1  0.33150000  0.84640000  0.28370000  1.0 0.0987716609
H  H141  1  0.68720000  0.44460000  0.78700000  1.0 0.0987716609
H  H142  1  0.76740000  0.47520000  0.00450000  1.0 0.1316574608
H  H143  1  0.10490000  0.14180000  0.01450000  1.0 0.1316574608
H  H144  1  0.67060000  0.38500000  0.84300000  1.0 0.1375474837
H  H145  1  0.86980000  0.09360000  0.11140000  1.0 0.0987716609
H  H146  1  0.85590000  0.16730000  0.07410000  1.0 0.1458995101
H  H147  1  0.95390000  0.08070000  0.94480000  1.0 0.0922092082
H  H148  1  0.69800000  0.35880000  0.08320000  1.0 0.1316574608
H  H149  1  0.09500000  0.54340000  0.88630000  1.0 0.1316574608
H  H150  1  0.10730000  0.06810000  0.05290000  1.0 0.0987716609
H  H151  1  0.94580000  0.38730000  0.86170000  1.0 0.1375474837
H  H152  1  0.65310000  0.51980000  0.04310000  1.0 0.0922092082
H  H153  1  0.17210000  0.40240000  0.86960000  1.0 0.1375474837
H  H154  1  0.59870000  0.40900000  0.12390000  1.0 0.0987716609
H  H155  1  0.66110000  0.03010000  0.91060000  1.0 0.1458995101
H  H156  1  0.78900000  0.99010000  0.88180000  1.0 0.0987716609
H  H157  1  0.83010000  0.12650000  0.97140000  1.0 0.1316574608
H  H158  1  0.95530000  0.44830000  0.80510000  1.0 0.0987716609
H  H159  1  0.56770000  0.08980000  0.79500000  1.0 0.0987716609
H  H160  1  0.18460000  0.56280000  0.82130000  1.0 0.0987716609
H  H161  1  0.25990000  0.42590000  0.80740000  1.0 0.0987716609
H  H162  1  0.59310000  0.15740000  0.83950000  1.0 0.1458995101
H  H163  1  0.83360000  0.06970000  0.77510000  1.0 0.0922092082
H  H164  1  0.86280000  0.13780000  0.82730000  1.0 0.1316574608
H  H165  1  0.40050000  0.18700000  0.85570000  1.0 0.0987716609
H  H166  1  0.31600000  0.24030000  0.90310000  1.0 0.1316574608
H  H167  1  0.08400000  0.20690000  0.83110000  1.0 0.1115348246
H  H168  1  0.16850000  0.15360000  0.78370000  1.0 0.0987716609
H  H169  1  0.18720000  0.05540000  0.21300000  1.0 0.0987716609
H  H170  1  0.26740000  0.02480000  0.99550000  1.0 0.1316574608
H  H171  1  0.60490000  0.35820000  0.98550000  1.0 0.1316574608
H  H172  1  0.17060000  0.11500000  0.15700000  1.0 0.1375474837
H  H173  1  0.36980000  0.40640000  0.88860000  1.0 0.0987716609
H  H174  1  0.35590000  0.33270000  0.92590000  1.0 0.1458995101
H  H175  1  0.45390000  0.41930000  0.05520000  1.0 0.0922092082
H  H176  1  0.19800000  0.14120000  0.91680000  1.0 0.1316574608
H  H177  1  0.59500000  0.95660000  0.11370000  1.0 0.1316574608
H  H178  1  0.60730000  0.43190000  0.94710000  1.0 0.0987716609
H  H179  1  0.44580000  0.11270000  0.13830000  1.0 0.1375474837
H  H180  1  0.15310000  0.98020000  0.95690000  1.0 0.0922092082
H  H181  1  0.67210000  0.09760000  0.13040000  1.0 0.1375474837
H  H182  1  0.09870000  0.09100000  0.87610000  1.0 0.0987716609
H  H183  1  0.16110000  0.46990000  0.08940000  1.0 0.1458995101
H  H184  1  0.28900000  0.50990000  0.11820000  1.0 0.0987716609
H  H185  1  0.33010000  0.37350000  0.02860000  1.0 0.1316574608
H  H186  1  0.45530000  0.05170000  0.19490000  1.0 0.0987716609
H  H187  1  0.06770000  0.41020000  0.20500000  1.0 0.0987716609
H  H188  1  0.68460000  0.93720000  0.17870000  1.0 0.0987716609
H  H189  1  0.75990000  0.07410000  0.19260000  1.0 0.0987716609
H  H190  1  0.09310000  0.34260000  0.16050000  1.0 0.1458995101
H  H191  1  0.33360000  0.43030000  0.22490000  1.0 0.0922092082
H  H192  1  0.36280000  0.36220000  0.17270000  1.0 0.1316574608
H  H193  1  0.90050000  0.31300000  0.14430000  1.0 0.0987716609
H  H194  1  0.81600000  0.25970000  0.09690000  1.0 0.1316574608
H  H195  1  0.58400000  0.29310000  0.16890000  1.0 0.1115348246
H  H196  1  0.66850000  0.34640000  0.21630000  1.0 0.0987716609
H  H197  1  0.31280000  0.94460000  0.71300000  1.0 0.0987716609
H  H198  1  0.23260000  0.97520000  0.49550000  1.0 0.1316574608
H  H199  1  0.89510000  0.64180000  0.48550000  1.0 0.1316574608
H  H200  1  0.32940000  0.88500000  0.65700000  1.0 0.1375474837
H  H201  1  0.13020000  0.59360000  0.38860000  1.0 0.0987716609
H  H202  1  0.14410000  0.66730000  0.42590000  1.0 0.1458995101
H  H203  1  0.04610000  0.58070000  0.55520000  1.0 0.0922092082
H  H204  1  0.30200000  0.85880000  0.41680000  1.0 0.1316574608
H  H205  1  0.90500000  0.04340000  0.61370000  1.0 0.1316574608
H  H206  1  0.89270000  0.56810000  0.44710000  1.0 0.0987716609
H  H207  1  0.05420000  0.88730000  0.63830000  1.0 0.1375474837
H  H208  1  0.34690000  0.01980000  0.45690000  1.0 0.0922092082
H  H209  1  0.82790000  0.90240000  0.63040000  1.0 0.1375474837
H  H210  1  0.40130000  0.90900000  0.37610000  1.0 0.0987716609
H  H211  1  0.33890000  0.53010000  0.58940000  1.0 0.1458995101
H  H212  1  0.21100000  0.49010000  0.61820000  1.0 0.0987716609
H  H213  1  0.16990000  0.62650000  0.52860000  1.0 0.1316574608
H  H214  1  0.04470000  0.94830000  0.69490000  1.0 0.0987716609
H  H215  1  0.43230000  0.58980000  0.70500000  1.0 0.0987716609
H  H216  1  0.81540000  0.06280000  0.67870000  1.0 0.0987716609
H  H217  1  0.74010000  0.92590000  0.69260000  1.0 0.0987716609
H  H218  1  0.40690000  0.65740000  0.66050000  1.0 0.1458995101
H  H219  1  0.16640000  0.56970000  0.72490000  1.0 0.0922092082
H  H220  1  0.13720000  0.63780000  0.67270000  1.0 0.1316574608
H  H221  1  0.59950000  0.68700000  0.64430000  1.0 0.0987716609
H  H222  1  0.68400000  0.74030000  0.59690000  1.0 0.1316574608
H  H223  1  0.91600000  0.70690000  0.66890000  1.0 0.1115348246
H  H224  1  0.83150000  0.65360000  0.71630000  1.0 0.0987716609
C  C1  1  0.48020000  0.16400000  0.45890000  1.0 0.0138330795
C  C2  1  0.24650000  0.41250000  0.45990000  1.0 0.0182709823
C  C3  1  0.24010000  0.43310000  0.69770000  1.0 0.0575949898
C  C4  1  0.23230000  0.46050000  0.47180000  1.0 -0.1667123883
C  C5  1  0.62310000  0.47050000  0.61440000  1.0 0.0182709823
C  C6  1  0.55630000  0.13290000  0.46560000  1.0 -0.1505277425
C  C7  1  0.22940000  0.39700000  0.66430000  1.0 -0.1593059587
C  C8  1  0.56940000  0.45370000  0.57090000  1.0 0.592993424
C  C9  1  0.31850000  0.38170000  0.48470000  1.0 0.5972869155
C  C10  1  0.41800000  0.10380000  0.40810000  1.0 0.0505306489
C  C11  1  0.40890000  0.14820000  0.43020000  1.0 -0.1505277425
C  C12  1  0.39400000  0.07060000  0.56290000  1.0 0.0505306489
C  C13  1  0.19260000  0.39200000  0.42460000  1.0 -0.1593059587
C  C14  1  0.48010000  0.21310000  0.48240000  1.0 0.592993424
C  C15  1  0.62780000  0.51880000  0.62940000  1.0 -0.1593059587
C  C16  1  0.55710000  0.08900000  0.44210000  1.0 0.0575949898
C  C17  1  0.39210000  0.39840000  0.65310000  1.0 -0.1593059587
C  C18  1  0.16380000  0.48740000  0.44790000  1.0 0.0505306489
C  C19  1  0.30730000  0.37850000  0.64150000  1.0 0.0182709823
C  C20  1  0.67400000  0.43540000  0.63930000  1.0 -0.1667123883
C  C21  1  0.13080000  0.42220000  0.40160000  1.0 0.0575949898
C  C22  1  0.23060000  0.08440000  0.55690000  1.0 0.0282961359
C  C23  1  0.22020000  0.04210000  0.58280000  1.0 -0.1593059587
C  C24  1  0.29790000  0.01740000  0.59900000  1.0 0.0575949898
C  C25  1  0.31940000  0.09840000  0.54660000  1.0 -0.1593059587
C  C26  1  0.14930000  0.11500000  0.54030000  1.0 0.5972869155
C  C27  1  0.39740000  0.43530000  0.68730000  1.0 0.0657851767
C  C28  1  0.29560000  0.33840000  0.60560000  1.0 0.573497383
C  C29  1  0.63840000  0.26110000  0.59520000  1.0 0.592993424
C  C30  1  0.12880000  0.09960000  0.69990000  1.0 0.0282961359
C  C31  1  0.68250000  0.53020000  0.66850000  1.0 0.0575949898
C  C32  1  0.72620000  0.45000000  0.67660000  1.0 0.0505306489
C  C33  1  0.22880000  0.15350000  0.66230000  1.0 0.0182709823
C  C34  1  0.14330000  0.13970000  0.67230000  1.0 -0.1428087148
C  C35  1  0.28420000  0.08660000  0.71140000  1.0 0.0787487682
C  C36  1  0.30230000  0.12850000  0.68010000  1.0 -0.1505277425
C  C37  1  0.24120000  0.19770000  0.62870000  1.0 0.5466759261
C  C38  1  0.83710000  0.19100000  0.64920000  1.0 0.0575949898
C  C39  1  0.78650000  0.22290000  0.62080000  1.0 -0.1505277425
C  C40  1  0.69160000  0.22890000  0.62820000  1.0 -0.0110695171
C  C41  1  0.64750000  0.20290000  0.66390000  1.0 -0.1593059587
C  C42  1  0.69810000  0.17100000  0.69240000  1.0 0.0505306489
C  C43  1  0.01980000  0.83600000  0.95890000  1.0 0.0138330795
C  C44  1  0.25350000  0.58750000  0.95990000  1.0 0.0182709823
C  C45  1  0.25990000  0.56690000  0.19770000  1.0 0.0575949898
C  C46  1  0.26770000  0.53950000  0.97180000  1.0 -0.1667123883
C  C47  1  0.87690000  0.52950000  0.11440000  1.0 0.0182709823
C  C48  1  0.94370000  0.86710000  0.96560000  1.0 -0.1505277425
C  C49  1  0.27060000  0.60300000  0.16430000  1.0 -0.1593059587
C  C50  1  0.93060000  0.54630000  0.07090000  1.0 0.592993424
C  C51  1  0.18150000  0.61830000  0.98470000  1.0 0.5972869155
C  C52  1  0.08200000  0.89620000  0.90810000  1.0 0.0505306489
C  C53  1  0.09110000  0.85180000  0.93020000  1.0 -0.1505277425
C  C54  1  0.10600000  0.92940000  0.06290000  1.0 0.0505306489
C  C55  1  0.30740000  0.60800000  0.92460000  1.0 -0.1593059587
C  C56  1  0.01990000  0.78690000  0.98240000  1.0 0.592993424
C  C57  1  0.87220000  0.48120000  0.12940000  1.0 -0.1593059587
C  C58  1  0.94290000  0.91100000  0.94210000  1.0 0.0575949898
C  C59  1  0.10790000  0.60160000  0.15310000  1.0 -0.1593059587
C  C60  1  0.33620000  0.51260000  0.94790000  1.0 0.0505306489
C  C61  1  0.19270000  0.62150000  0.14150000  1.0 0.0182709823
C  C62  1  0.82600000  0.56460000  0.13930000  1.0 -0.1667123883
C  C63  1  0.36920000  0.57780000  0.90160000  1.0 0.0575949898
C  C64  1  0.26940000  0.91560000  0.05690000  1.0 0.0282961359
C  C65  1  0.27980000  0.95790000  0.08280000  1.0 -0.1593059587
C  C66  1  0.20210000  0.98260000  0.09900000  1.0 0.0575949898
C  C67  1  0.18060000  0.90160000  0.04660000  1.0 -0.1593059587
C  C68  1  0.35070000  0.88500000  0.04030000  1.0 0.5972869155
C  C69  1  0.10260000  0.56470000  0.18730000  1.0 0.0657851767
C  C70  1  0.20440000  0.66160000  0.10560000  1.0 0.573497383
C  C71  1  0.86160000  0.73890000  0.09520000  1.0 0.592993424
C  C72  1  0.37120000  0.90040000  0.19990000  1.0 0.0282961359
C  C73  1  0.81750000  0.46980000  0.16850000  1.0 0.0575949898
C  C74  1  0.77380000  0.55000000  0.17660000  1.0 0.0505306489
C  C75  1  0.27120000  0.84650000  0.16230000  1.0 0.0182709823
C  C76  1  0.35670000  0.86030000  0.17230000  1.0 -0.1428087148
C  C77  1  0.21580000  0.91340000  0.21140000  1.0 0.0787487682
C  C78  1  0.19770000  0.87150000  0.18010000  1.0 -0.1505277425
C  C79  1  0.25880000  0.80230000  0.12870000  1.0 0.5466759261
C  C80  1  0.66290000  0.80900000  0.14920000  1.0 0.0575949898
C  C81  1  0.71350000  0.77710000  0.12080000  1.0 -0.1505277425
C  C82  1  0.80840000  0.77110000  0.12820000  1.0 -0.0110695171
C  C83  1  0.85250000  0.79710000  0.16390000  1.0 -0.1593059587
C  C84  1  0.80190000  0.82900000  0.19240000  1.0 0.0505306489
C  C85  1  0.51980000  0.66400000  0.04110000  1.0 0.0138330795
C  C86  1  0.75350000  0.91250000  0.04010000  1.0 0.0182709823
C  C87  1  0.75990000  0.93310000  0.80230000  1.0 0.0575949898
C  C88  1  0.76770000  0.96050000  0.02820000  1.0 -0.1667123883
C  C89  1  0.37690000  0.97050000  0.88560000  1.0 0.0182709823
C  C90  1  0.44370000  0.63290000  0.03440000  1.0 -0.1505277425
C  C91  1  0.77060000  0.89700000  0.83570000  1.0 -0.1593059587
C  C92  1  0.43060000  0.95370000  0.92910000  1.0 0.592993424
C  C93  1  0.68150000  0.88170000  0.01530000  1.0 0.5972869155
C  C94  1  0.58200000  0.60380000  0.09190000  1.0 0.0505306489
C  C95  1  0.59110000  0.64820000  0.06980000  1.0 -0.1505277425
C  C96  1  0.60600000  0.57060000  0.93710000  1.0 0.0505306489
C  C97  1  0.80740000  0.89200000  0.07540000  1.0 -0.1593059587
C  C98  1  0.51990000  0.71310000  0.01760000  1.0 0.592993424
C  C99  1  0.37220000  0.01880000  0.87060000  1.0 -0.1505277425
C  C100  1  0.44290000  0.58900000  0.05790000  1.0 0.0575949898
C  C101  1  0.60790000  0.89840000  0.84690000  1.0 -0.1593059587
C  C102  1  0.83620000  0.98740000  0.05210000  1.0 0.0505306489
C  C103  1  0.69270000  0.87850000  0.85850000  1.0 0.0182709823
C  C104  1  0.32600000  0.93540000  0.86070000  1.0 -0.1667123883
C  C105  1  0.86920000  0.92220000  0.09840000  1.0 0.0575949898
C  C106  1  0.76940000  0.58440000  0.94310000  1.0 0.0282961359
C  C107  1  0.77980000  0.54210000  0.91720000  1.0 -0.1593059587
C  C108  1  0.70210000  0.51740000  0.90100000  1.0 0.0575949898
C  C109  1  0.68060000  0.59840000  0.95340000  1.0 -0.1593059587
C  C110  1  0.85070000  0.61500000  0.95970000  1.0 0.5972869155
C  C111  1  0.60260000  0.93530000  0.81270000  1.0 0.0657851767
C  C112  1  0.70440000  0.83840000  0.89440000  1.0 0.573497383
C  C113  1  0.36160000  0.76110000  0.90480000  1.0 0.592993424
C  C114  1  0.87120000  0.59960000  0.80010000  1.0 0.0282961359
C  C115  1  0.31750000  0.03020000  0.83150000  1.0 0.0575949898
C  C116  1  0.27380000  0.95000000  0.82340000  1.0 0.0505306489
C  C117  1  0.77120000  0.65350000  0.83770000  1.0 0.0182709823
C  C118  1  0.85670000  0.63970000  0.82770000  1.0 -0.1428087148
C  C119  1  0.71580000  0.58660000  0.78860000  1.0 0.0787487682
C  C120  1  0.69770000  0.62850000  0.81990000  1.0 -0.1505277425
C  C121  1  0.75880000  0.69770000  0.87130000  1.0 0.5466759261
C  C122  1  0.16290000  0.69100000  0.85080000  1.0 0.0575949898
C  C123  1  0.21350000  0.72290000  0.87920000  1.0 -0.1505277425
C  C124  1  0.30840000  0.72890000  0.87180000  1.0 -0.0110695171
C  C125  1  0.35250000  0.70290000  0.83610000  1.0 -0.1593059587
C  C126  1  0.30190000  0.67100000  0.80760000  1.0 0.0505306489
C  C127  1  0.98020000  0.33600000  0.54110000  1.0 0.0138330795
C  C128  1  0.74650000  0.08750000  0.54010000  1.0 0.0182709823
C  C129  1  0.74010000  0.06690000  0.30230000  1.0 0.0575949898
C  C130  1  0.73230000  0.03950000  0.52820000  1.0 -0.1667123883
C  C131  1  0.12310000  0.02950000  0.38560000  1.0 0.0182709823
C  C132  1  0.05630000  0.36710000  0.53440000  1.0 -0.1505277425
C  C133  1  0.72940000  0.10300000  0.33570000  1.0 -0.1593059587
C  C134  1  0.06940000  0.04630000  0.42910000  1.0 0.592993424
C  C135  1  0.81850000  0.11830000  0.51530000  1.0 0.5972869155
C  C136  1  0.91800000  0.39620000  0.59190000  1.0 0.0505306489
C  C137  1  0.90890000  0.35180000  0.56980000  1.0 -0.1505277425
C  C138  1  0.89400000  0.42940000  0.43710000  1.0 0.0505306489
C  C139  1  0.69260000  0.10800000  0.57540000  1.0 -0.1593059587
C  C140  1  0.98010000  0.28690000  0.51760000  1.0 0.592993424
C  C141  1  0.12780000  0.98120000  0.37060000  1.0 -0.1593059587
C  C142  1  0.05710000  0.41100000  0.55790000  1.0 0.0575949898
C  C143  1  0.89210000  0.10160000  0.34690000  1.0 -0.1593059587
C  C144  1  0.66380000  0.01260000  0.55210000  1.0 0.0505306489
C  C145  1  0.80730000  0.12150000  0.35850000  1.0 0.0182709823
C  C146  1  0.17400000  0.06460000  0.36070000  1.0 -0.1667123883
C  C147  1  0.63080000  0.07780000  0.59840000  1.0 0.0575949898
C  C148  1  0.73060000  0.41560000  0.44310000  1.0 0.0282961359
C  C149  1  0.72020000  0.45790000  0.41720000  1.0 -0.1593059587
C  C150  1  0.79790000  0.48260000  0.40100000  1.0 0.0575949898
C  C151  1  0.81940000  0.40160000  0.45340000  1.0 -0.1593059587
C  C152  1  0.64930000  0.38500000  0.45970000  1.0 0.5972869155
C  C153  1  0.89740000  0.06470000  0.31270000  1.0 0.0657851767
C  C154  1  0.79560000  0.16160000  0.39440000  1.0 0.573497383
C  C155  1  0.13840000  0.23890000  0.40480000  1.0 0.592993424
C  C156  1  0.62880000  0.40040000  0.30010000  1.0 0.0282961359
C  C157  1  0.18250000  0.96980000  0.33150000  1.0 0.0575949898
C  C158  1  0.22620000  0.05000000  0.32340000  1.0 0.0505306489
C  C159  1  0.72880000  0.34650000  0.33770000  1.0 0.0182709823
C  C160  1  0.64330000  0.36030000  0.32770000  1.0 -0.1428087148
C  C161  1  0.78420000  0.41340000  0.28860000  1.0 0.0787487682
C  C162  1  0.80230000  0.37150000  0.31990000  1.0 -0.1505277425
C  C163  1  0.74120000  0.30230000  0.37130000  1.0 0.5466759261
C  C164  1  0.33710000  0.30900000  0.35080000  1.0 0.0575949898
C  C165  1  0.28650000  0.27710000  0.37920000  1.0 -0.1505277425
C  C166  1  0.19160000  0.27110000  0.37180000  1.0 -0.0110695171
C  C167  1  0.14750000  0.29710000  0.33610000  1.0 -0.1593059587
C  C168  1  0.19810000  0.32900000  0.30760000  1.0 0.0505306489
C  C169  1  0.51980000  0.83600000  0.54110000  1.0 0.0138330795
C  C170  1  0.75350000  0.58750000  0.54010000  1.0 0.0182709823
C  C171  1  0.75990000  0.56690000  0.30230000  1.0 0.0575949898
C  C172  1  0.76770000  0.53950000  0.52820000  1.0 -0.1667123883
C  C173  1  0.37690000  0.52950000  0.38560000  1.0 0.0182709823
C  C174  1  0.44370000  0.86710000  0.53440000  1.0 -0.1505277425
C  C175  1  0.77060000  0.60300000  0.33570000  1.0 -0.1593059587
C  C176  1  0.43060000  0.54630000  0.42910000  1.0 0.592993424
C  C177  1  0.68150000  0.61830000  0.51530000  1.0 0.5972869155
C  C178  1  0.58200000  0.89620000  0.59190000  1.0 0.0505306489
C  C179  1  0.59110000  0.85180000  0.56980000  1.0 -0.1505277425
C  C180  1  0.60600000  0.92940000  0.43710000  1.0 0.0505306489
C  C181  1  0.80740000  0.60800000  0.57540000  1.0 -0.1593059587
C  C182  1  0.51990000  0.78690000  0.51760000  1.0 0.592993424
C  C183  1  0.37220000  0.48120000  0.37060000  1.0 -0.1593059587
C  C184  1  0.44290000  0.91100000  0.55790000  1.0 0.0575949898
C  C185  1  0.60790000  0.60160000  0.34690000  1.0 -0.1593059587
C  C186  1  0.83620000  0.51260000  0.55210000  1.0 0.0505306489
C  C187  1  0.69270000  0.62150000  0.35850000  1.0 0.0182709823
C  C188  1  0.32600000  0.56460000  0.36070000  1.0 -0.1667123883
C  C189  1  0.86920000  0.57780000  0.59840000  1.0 0.0575949898
C  C190  1  0.76940000  0.91560000  0.44310000  1.0 0.0282961359
C  C191  1  0.77980000  0.95790000  0.41720000  1.0 -0.1593059587
C  C192  1  0.70210000  0.98260000  0.40100000  1.0 0.0575949898
C  C193  1  0.68060000  0.90160000  0.45340000  1.0 -0.1593059587
C  C194  1  0.85070000  0.88500000  0.45970000  1.0 0.5972869155
C  C195  1  0.60260000  0.56470000  0.31270000  1.0 0.0657851767
C  C196  1  0.70440000  0.66160000  0.39440000  1.0 0.573497383
C  C197  1  0.36160000  0.73890000  0.40480000  1.0 0.592993424
C  C198  1  0.87120000  0.90040000  0.30010000  1.0 0.0282961359
C  C199  1  0.31750000  0.46980000  0.33150000  1.0 0.0575949898
C  C200  1  0.27380000  0.55000000  0.32340000  1.0 0.0505306489
C  C201  1  0.77120000  0.84650000  0.33770000  1.0 0.0182709823
C  C202  1  0.85670000  0.86030000  0.32770000  1.0 -0.1428087148
C  C203  1  0.71580000  0.91340000  0.28860000  1.0 0.0787487682
C  C204  1  0.69770000  0.87150000  0.31990000  1.0 -0.1505277425
C  C205  1  0.75880000  0.80230000  0.37130000  1.0 0.5466759261
C  C206  1  0.16290000  0.80900000  0.35080000  1.0 0.0575949898
C  C207  1  0.21350000  0.77710000  0.37920000  1.0 -0.1505277425
C  C208  1  0.30840000  0.77110000  0.37180000  1.0 -0.0110695171
C  C209  1  0.35250000  0.79710000  0.33610000  1.0 -0.1593059587
C  C210  1  0.30190000  0.82900000  0.30760000  1.0 0.0505306489
C  C211  1  0.98020000  0.16400000  0.04110000  1.0 0.0138330795
C  C212  1  0.74650000  0.41250000  0.04010000  1.0 0.0182709823
C  C213  1  0.74010000  0.43310000  0.80230000  1.0 0.0575949898
C  C214  1  0.73230000  0.46050000  0.02820000  1.0 -0.1667123883
C  C215  1  0.12310000  0.47050000  0.88560000  1.0 0.0182709823
C  C216  1  0.05630000  0.13290000  0.03440000  1.0 -0.1505277425
C  C217  1  0.72940000  0.39700000  0.83570000  1.0 -0.1593059587
C  C218  1  0.06940000  0.45370000  0.92910000  1.0 0.592993424
C  C219  1  0.81850000  0.38170000  0.01530000  1.0 0.5972869155
C  C220  1  0.91800000  0.10380000  0.09190000  1.0 0.0505306489
C  C221  1  0.90890000  0.14820000  0.06980000  1.0 -0.1505277425
C  C222  1  0.89400000  0.07060000  0.93710000  1.0 0.0505306489
C  C223  1  0.69260000  0.39200000  0.07540000  1.0 -0.1593059587
C  C224  1  0.98010000  0.21310000  0.01760000  1.0 0.592993424
C  C225  1  0.12780000  0.51880000  0.87060000  1.0 -0.1593059587
C  C226  1  0.05710000  0.08900000  0.05790000  1.0 0.0575949898
C  C227  1  0.89210000  0.39840000  0.84690000  1.0 -0.1593059587
C  C228  1  0.66380000  0.48740000  0.05210000  1.0 0.0505306489
C  C229  1  0.80730000  0.37850000  0.85850000  1.0 0.0182709823
C  C230  1  0.17400000  0.43540000  0.86070000  1.0 -0.1667123883
C  C231  1  0.63080000  0.42220000  0.09840000  1.0 0.0575949898
C  C232  1  0.73060000  0.08440000  0.94310000  1.0 0.0282961359
C  C233  1  0.72020000  0.04210000  0.91720000  1.0 -0.1593059587
C  C234  1  0.79790000  0.01740000  0.90100000  1.0 0.0575949898
C  C235  1  0.81940000  0.09840000  0.95340000  1.0 -0.1593059587
C  C236  1  0.64930000  0.11500000  0.95970000  1.0 0.5972869155
C  C237  1  0.89740000  0.43530000  0.81270000  1.0 0.0657851767
C  C238  1  0.79560000  0.33840000  0.89440000  1.0 0.573497383
C  C239  1  0.13840000  0.26110000  0.90480000  1.0 0.592993424
C  C240  1  0.62880000  0.09960000  0.80010000  1.0 0.0282961359
C  C241  1  0.18250000  0.53020000  0.83150000  1.0 0.0575949898
C  C242  1  0.22620000  0.45000000  0.82340000  1.0 0.0505306489
C  C243  1  0.72880000  0.15350000  0.83770000  1.0 0.0182709823
C  C244  1  0.64330000  0.13970000  0.82770000  1.0 -0.1428087148
C  C245  1  0.78420000  0.08660000  0.78860000  1.0 0.0787487682
C  C246  1  0.80230000  0.12850000  0.81990000  1.0 -0.1505277425
C  C247  1  0.74120000  0.19770000  0.87130000  1.0 0.5466759261
C  C248  1  0.33710000  0.19100000  0.85080000  1.0 0.0575949898
C  C249  1  0.28650000  0.22290000  0.87920000  1.0 -0.1505277425
C  C250  1  0.19160000  0.22890000  0.87180000  1.0 -0.0110695171
C  C251  1  0.14750000  0.20290000  0.83610000  1.0 -0.1593059587
C  C252  1  0.19810000  0.17100000  0.80760000  1.0 0.0505306489
C  C253  1  0.48020000  0.33600000  0.95890000  1.0 0.0138330795
C  C254  1  0.24650000  0.08750000  0.95990000  1.0 0.0182709823
C  C255  1  0.24010000  0.06690000  0.19770000  1.0 0.0575949898
C  C256  1  0.23230000  0.03950000  0.97180000  1.0 -0.1667123883
C  C257  1  0.62310000  0.02950000  0.11440000  1.0 0.0182709823
C  C258  1  0.55630000  0.36710000  0.96560000  1.0 -0.1505277425
C  C259  1  0.22940000  0.10300000  0.16430000  1.0 -0.1593059587
C  C260  1  0.56940000  0.04630000  0.07090000  1.0 0.592993424
C  C261  1  0.31850000  0.11830000  0.98470000  1.0 0.5972869155
C  C262  1  0.41800000  0.39620000  0.90810000  1.0 0.0505306489
C  C263  1  0.40890000  0.35180000  0.93020000  1.0 -0.1505277425
C  C264  1  0.39400000  0.42940000  0.06290000  1.0 0.0505306489
C  C265  1  0.19260000  0.10800000  0.92460000  1.0 -0.1593059587
C  C266  1  0.48010000  0.28690000  0.98240000  1.0 0.592993424
C  C267  1  0.62780000  0.98120000  0.12940000  1.0 -0.1593059587
C  C268  1  0.55710000  0.41100000  0.94210000  1.0 0.0575949898
C  C269  1  0.39210000  0.10160000  0.15310000  1.0 -0.1593059587
C  C270  1  0.16380000  0.01260000  0.94790000  1.0 0.0505306489
C  C271  1  0.30730000  0.12150000  0.14150000  1.0 0.0182709823
C  C272  1  0.67400000  0.06460000  0.13930000  1.0 -0.1667123883
C  C273  1  0.13080000  0.07780000  0.90160000  1.0 0.0575949898
C  C274  1  0.23060000  0.41560000  0.05690000  1.0 0.0282961359
C  C275  1  0.22020000  0.45790000  0.08280000  1.0 -0.1593059587
C  C276  1  0.29790000  0.48260000  0.09900000  1.0 0.0575949898
C  C277  1  0.31940000  0.40160000  0.04660000  1.0 -0.1593059587
C  C278  1  0.14930000  0.38500000  0.04030000  1.0 0.5972869155
C  C279  1  0.39740000  0.06470000  0.18730000  1.0 0.0657851767
C  C280  1  0.29560000  0.16160000  0.10560000  1.0 0.573497383
C  C281  1  0.63840000  0.23890000  0.09520000  1.0 0.592993424
C  C282  1  0.12880000  0.40040000  0.19990000  1.0 0.0282961359
C  C283  1  0.68250000  0.96980000  0.16850000  1.0 0.0575949898
C  C284  1  0.72620000  0.05000000  0.17660000  1.0 0.0505306489
C  C285  1  0.22880000  0.34650000  0.16230000  1.0 0.0182709823
C  C286  1  0.14330000  0.36030000  0.17230000  1.0 -0.1428087148
C  C287  1  0.28420000  0.41340000  0.21140000  1.0 0.0787487682
C  C288  1  0.30230000  0.37150000  0.18010000  1.0 -0.1505277425
C  C289  1  0.24120000  0.30230000  0.12870000  1.0 0.5466759261
C  C290  1  0.83710000  0.30900000  0.14920000  1.0 0.0575949898
C  C291  1  0.78650000  0.27710000  0.12080000  1.0 -0.1505277425
C  C292  1  0.69160000  0.27110000  0.12820000  1.0 -0.0110695171
C  C293  1  0.64750000  0.29710000  0.16390000  1.0 -0.1593059587
C  C294  1  0.69810000  0.32900000  0.19240000  1.0 0.0505306489
C  C295  1  0.01980000  0.66400000  0.45890000  1.0 0.0138330795
C  C296  1  0.25350000  0.91250000  0.45990000  1.0 0.0182709823
C  C297  1  0.25990000  0.93310000  0.69770000  1.0 0.0575949898
C  C298  1  0.26770000  0.96050000  0.47180000  1.0 -0.1667123883
C  C299  1  0.87690000  0.97050000  0.61440000  1.0 0.0182709823
C  C300  1  0.94370000  0.63290000  0.46560000  1.0 -0.1505277425
C  C301  1  0.27060000  0.89700000  0.66430000  1.0 -0.1593059587
C  C302  1  0.93060000  0.95370000  0.57090000  1.0 0.592993424
C  C303  1  0.18150000  0.88170000  0.48470000  1.0 0.5972869155
C  C304  1  0.08200000  0.60380000  0.40810000  1.0 0.0505306489
C  C305  1  0.09110000  0.64820000  0.43020000  1.0 -0.1505277425
C  C306  1  0.10600000  0.57060000  0.56290000  1.0 0.0505306489
C  C307  1  0.30740000  0.89200000  0.42460000  1.0 -0.1593059587
C  C308  1  0.01990000  0.71310000  0.48240000  1.0 0.592993424
C  C309  1  0.87220000  0.01880000  0.62940000  1.0 -0.1505277425
C  C310  1  0.94290000  0.58900000  0.44210000  1.0 0.0575949898
C  C311  1  0.10790000  0.89840000  0.65310000  1.0 -0.1593059587
C  C312  1  0.33620000  0.98740000  0.44790000  1.0 0.0505306489
C  C313  1  0.19270000  0.87850000  0.64150000  1.0 0.0182709823
C  C314  1  0.82600000  0.93540000  0.63930000  1.0 -0.1667123883
C  C315  1  0.36920000  0.92220000  0.40160000  1.0 0.0575949898
C  C316  1  0.26940000  0.58440000  0.55690000  1.0 0.0282961359
C  C317  1  0.27980000  0.54210000  0.58280000  1.0 -0.1593059587
C  C318  1  0.20210000  0.51740000  0.59900000  1.0 0.0575949898
C  C319  1  0.18060000  0.59840000  0.54660000  1.0 -0.1593059587
C  C320  1  0.35070000  0.61500000  0.54030000  1.0 0.5972869155
C  C321  1  0.10260000  0.93530000  0.68730000  1.0 0.0657851767
C  C322  1  0.20440000  0.83840000  0.60560000  1.0 0.573497383
C  C323  1  0.86160000  0.76110000  0.59520000  1.0 0.592993424
C  C324  1  0.37120000  0.59960000  0.69990000  1.0 0.0282961359
C  C325  1  0.81750000  0.03020000  0.66850000  1.0 0.0575949898
C  C326  1  0.77380000  0.95000000  0.67660000  1.0 0.0505306489
C  C327  1  0.27120000  0.65350000  0.66230000  1.0 0.0182709823
C  C328  1  0.35670000  0.63970000  0.67230000  1.0 -0.1428087148
C  C329  1  0.21580000  0.58660000  0.71140000  1.0 0.0787487682
C  C330  1  0.19770000  0.62850000  0.68010000  1.0 -0.1505277425
C  C331  1  0.25880000  0.69770000  0.62870000  1.0 0.5466759261
C  C332  1  0.66290000  0.69100000  0.64920000  1.0 0.0575949898
C  C333  1  0.71350000  0.72290000  0.62080000  1.0 -0.1505277425
C  C334  1  0.80840000  0.72890000  0.62820000  1.0 -0.0110695171
C  C335  1  0.85250000  0.70290000  0.66390000  1.0 -0.1593059587
C  C336  1  0.80190000  0.67100000  0.69240000  1.0 0.0505306489
I  I1  1  0.00483000  0.00436000  0.79318000  1.0 -0.4941679481
I  I2  1  0.49517000  0.99564000  0.29318000  1.0 -0.4941679481
I  I3  1  0.99517000  0.50436000  0.70682000  1.0 -0.4941679481
I  I4  1  0.50483000  0.49564000  0.20682000  1.0 -0.4941679481
I  I5  1  0.99517000  0.99564000  0.20682000  1.0 -0.4941679481
I  I6  1  0.50483000  0.00436000  0.70682000  1.0 -0.4941679481
I  I7  1  0.00483000  0.49564000  0.29318000  1.0 -0.4941679481
I  I8  1  0.49517000  0.50436000  0.79318000  1.0 -0.4941679481
N  N1  1  0.19690000  0.07280000  0.72050000  1.0 -0.1966004396
N  N2  1  0.73260000  0.49630000  0.69210000  1.0 -0.1914676545
N  N3  1  0.11330000  0.46850000  0.41280000  1.0 -0.1914676545
N  N4  1  0.38370000  0.03040000  0.58880000  1.0 -0.1914676545
N  N5  1  0.49130000  0.07390000  0.41250000  1.0 -0.1966004396
N  N6  1  0.32170000  0.45280000  0.70940000  1.0 -0.1966004396
N  N7  1  0.79290000  0.16500000  0.68500000  1.0 -0.290704945
N  N8  1  0.30310000  0.92720000  0.22050000  1.0 -0.1966004396
N  N9  1  0.76740000  0.50370000  0.19210000  1.0 -0.1914676545
N  N10  1  0.38670000  0.53150000  0.91280000  1.0 -0.1914676545
N  N11  1  0.11630000  0.96960000  0.08880000  1.0 -0.1914676545
N  N12  1  0.00870000  0.92610000  0.91250000  1.0 -0.1966004396
N  N13  1  0.17830000  0.54720000  0.20940000  1.0 -0.1966004396
N  N14  1  0.70710000  0.83500000  0.18500000  1.0 -0.290704945
N  N15  1  0.80310000  0.57280000  0.77950000  1.0 -0.1966004396
N  N16  1  0.26740000  0.99630000  0.80790000  1.0 -0.1914676545
N  N17  1  0.88670000  0.96850000  0.08720000  1.0 -0.1914676545
N  N18  1  0.61630000  0.53040000  0.91120000  1.0 -0.1914676545
N  N19  1  0.50870000  0.57390000  0.08750000  1.0 -0.1966004396
N  N20  1  0.67830000  0.95280000  0.79060000  1.0 -0.1966004396
N  N21  1  0.20710000  0.66500000  0.81500000  1.0 -0.290704945
N  N22  1  0.69690000  0.42720000  0.27950000  1.0 -0.1966004396
N  N23  1  0.23260000  0.00370000  0.30790000  1.0 -0.1914676545
N  N24  1  0.61330000  0.03150000  0.58720000  1.0 -0.1914676545
N  N25  1  0.88370000  0.46960000  0.41120000  1.0 -0.1914676545
N  N26  1  0.99130000  0.42610000  0.58750000  1.0 -0.1966004396
N  N27  1  0.82170000  0.04720000  0.29060000  1.0 -0.1966004396
N  N28  1  0.29290000  0.33500000  0.31500000  1.0 -0.290704945
N  N29  1  0.80310000  0.92720000  0.27950000  1.0 -0.1966004396
N  N30  1  0.26740000  0.50370000  0.30790000  1.0 -0.1914676545
N  N31  1  0.88670000  0.53150000  0.58720000  1.0 -0.1914676545
N  N32  1  0.61630000  0.96960000  0.41120000  1.0 -0.1914676545
N  N33  1  0.50870000  0.92610000  0.58750000  1.0 -0.1966004396
N  N34  1  0.67830000  0.54720000  0.29060000  1.0 -0.1966004396
N  N35  1  0.20710000  0.83500000  0.31500000  1.0 -0.290704945
N  N36  1  0.69690000  0.07280000  0.77950000  1.0 -0.1966004396
N  N37  1  0.23260000  0.49630000  0.80790000  1.0 -0.1914676545
N  N38  1  0.61330000  0.46850000  0.08720000  1.0 -0.1914676545
N  N39  1  0.88370000  0.03040000  0.91120000  1.0 -0.1914676545
N  N40  1  0.99130000  0.07390000  0.08750000  1.0 -0.1966004396
N  N41  1  0.82170000  0.45280000  0.79060000  1.0 -0.1966004396
N  N42  1  0.29290000  0.16500000  0.81500000  1.0 -0.290704945
N  N43  1  0.19690000  0.42720000  0.22050000  1.0 -0.1966004396
N  N44  1  0.73260000  0.00370000  0.19210000  1.0 -0.1914676545
N  N45  1  0.11330000  0.03150000  0.91280000  1.0 -0.1914676545
N  N46  1  0.38370000  0.46960000  0.08880000  1.0 -0.1914676545
N  N47  1  0.49130000  0.42610000  0.91250000  1.0 -0.1966004396
N  N48  1  0.32170000  0.04720000  0.20940000  1.0 -0.1966004396
N  N49  1  0.79290000  0.33500000  0.18500000  1.0 -0.290704945
N  N50  1  0.30310000  0.57280000  0.72050000  1.0 -0.1966004396
N  N51  1  0.76740000  0.99630000  0.69210000  1.0 -0.1914676545
N  N52  1  0.38670000  0.96850000  0.41280000  1.0 -0.1914676545
N  N53  1  0.11630000  0.53040000  0.58880000  1.0 -0.1914676545
N  N54  1  0.00870000  0.57390000  0.41250000  1.0 -0.1966004396
N  N55  1  0.17830000  0.95280000  0.70940000  1.0 -0.1966004396
N  N56  1  0.70710000  0.66500000  0.68500000  1.0 -0.290704945
O  O1  1  0.55780000  0.40900000  0.56620000  1.0 -0.5969319983
O  O2  1  0.53740000  0.48640000  0.54390000  1.0 -0.7015041392
O  O3  1  0.40360000  0.23130000  0.49580000  1.0 -0.6450676266
O  O4  1  0.30760000  0.33610000  0.48620000  1.0 -0.6176880492
O  O5  1  0.55530000  0.23440000  0.48780000  1.0 -0.6176880492
O  O6  1  0.38650000  0.40500000  0.50240000  1.0 -0.6908260751
O  O7  1  0.06930000  0.09620000  0.54320000  1.0 -0.6654183212
O  O8  1  0.16620000  0.15700000  0.52560000  1.0 -0.6176880492
O  O9  1  0.67900000  0.27950000  0.56100000  1.0 -0.5969319983
O  O10  1  0.36990000  0.31430000  0.59350000  1.0 -0.7371246758
O  O11  1  0.55080000  0.26710000  0.60330000  1.0 -0.7015041392
O  O12  1  0.22030000  0.33060000  0.58920000  1.0 -0.5205462146
O  O13  1  0.31410000  0.20580000  0.61440000  1.0 -0.5530422274
O  O14  1  0.16700000  0.22090000  0.61520000  1.0 -0.5969319983
O  O15  1  0.40800000  0.26260000  0.69290000  1.0 -0.0985910985
O  O16  1  0.45500000  0.29060000  0.70490000  1.0 0.0657851767
O  O17  1  0.94220000  0.59100000  0.06620000  1.0 -0.5969319983
O  O18  1  0.96260000  0.51360000  0.04390000  1.0 -0.7015041392
O  O19  1  0.09640000  0.76870000  0.99580000  1.0 -0.6450676266
O  O20  1  0.19240000  0.66390000  0.98620000  1.0 -0.6176880492
O  O21  1  0.94470000  0.76560000  0.98780000  1.0 -0.6176880492
O  O22  1  0.11350000  0.59500000  0.00240000  1.0 -0.6908260751
O  O23  1  0.43070000  0.90380000  0.04320000  1.0 -0.6654183212
O  O24  1  0.33380000  0.84300000  0.02560000  1.0 -0.6176880492
O  O25  1  0.82100000  0.72050000  0.06100000  1.0 -0.5969319983
O  O26  1  0.13010000  0.68570000  0.09350000  1.0 -0.7371246758
O  O27  1  0.94920000  0.73290000  0.10330000  1.0 -0.7015041392
O  O28  1  0.27970000  0.66940000  0.08920000  1.0 -0.5205462146
O  O29  1  0.18590000  0.79420000  0.11440000  1.0 -0.5530422274
O  O30  1  0.33300000  0.77910000  0.11520000  1.0 -0.5969319983
O  O31  1  0.09200000  0.73740000  0.19290000  1.0 -0.0985910985
O  O32  1  0.04500000  0.70940000  0.20490000  1.0 0.0657851767
O  O33  1  0.44220000  0.90900000  0.93380000  1.0 -0.5969319983
O  O34  1  0.46260000  0.98640000  0.95610000  1.0 -0.7015041392
O  O35  1  0.59640000  0.73130000  0.00420000  1.0 -0.6446533743
O  O36  1  0.69240000  0.83610000  0.01380000  1.0 -0.6176880492
O  O37  1  0.44470000  0.73440000  0.01220000  1.0 -0.6176880492
O  O38  1  0.61350000  0.90500000  0.99760000  1.0 -0.6908260751
O  O39  1  0.93070000  0.59620000  0.95680000  1.0 -0.6654183212
O  O40  1  0.83380000  0.65700000  0.97440000  1.0 -0.6176880492
O  O41  1  0.32100000  0.77950000  0.93900000  1.0 -0.5969319983
O  O42  1  0.63010000  0.81430000  0.90650000  1.0 -0.7371246758
O  O43  1  0.44920000  0.76710000  0.89670000  1.0 -0.7015041392
O  O44  1  0.77970000  0.83060000  0.91080000  1.0 -0.5205462146
O  O45  1  0.68590000  0.70580000  0.88560000  1.0 -0.5530422274
O  O46  1  0.83300000  0.72090000  0.88480000  1.0 -0.5969319983
O  O47  1  0.59200000  0.76260000  0.80710000  1.0 -0.0985910985
O  O48  1  0.54500000  0.79060000  0.79510000  1.0 0.0657851767
O  O49  1  0.05780000  0.09100000  0.43380000  1.0 -0.5969319983
O  O50  1  0.03740000  0.01360000  0.45610000  1.0 -0.7015041392
O  O51  1  0.90360000  0.26870000  0.50420000  1.0 -0.6450676266
O  O52  1  0.80760000  0.16390000  0.51380000  1.0 -0.6176880492
O  O53  1  0.05530000  0.26560000  0.51220000  1.0 -0.6176880492
O  O54  1  0.88650000  0.09500000  0.49760000  1.0 -0.6908260751
O  O55  1  0.56930000  0.40380000  0.45680000  1.0 -0.6654183212
O  O56  1  0.66620000  0.34300000  0.47440000  1.0 -0.6176880492
O  O57  1  0.17900000  0.22050000  0.43900000  1.0 -0.5969319983
O  O58  1  0.86990000  0.18570000  0.40650000  1.0 -0.7371246758
O  O59  1  0.05080000  0.23290000  0.39670000  1.0 -0.7015041392
O  O60  1  0.72030000  0.16940000  0.41080000  1.0 -0.5205462146
O  O61  1  0.81410000  0.29420000  0.38560000  1.0 -0.5530422274
O  O62  1  0.66700000  0.27910000  0.38480000  1.0 -0.5969319983
O  O63  1  0.90800000  0.23740000  0.30710000  1.0 -0.0985910985
O  O64  1  0.95500000  0.20940000  0.29510000  1.0 0.0657851767
O  O65  1  0.44220000  0.59100000  0.43380000  1.0 -0.5969319983
O  O66  1  0.46260000  0.51360000  0.45610000  1.0 -0.7015041392
O  O67  1  0.59640000  0.76870000  0.50420000  1.0 -0.6450676266
O  O68  1  0.69240000  0.66390000  0.51380000  1.0 -0.6176880492
O  O69  1  0.44470000  0.76560000  0.51220000  1.0 -0.6176880492
O  O70  1  0.61350000  0.59500000  0.49760000  1.0 -0.6908260751
O  O71  1  0.93070000  0.90380000  0.45680000  1.0 -0.6654183212
O  O72  1  0.83380000  0.84300000  0.47440000  1.0 -0.6176880492
O  O73  1  0.32100000  0.72050000  0.43900000  1.0 -0.5969319983
O  O74  1  0.63010000  0.68570000  0.40650000  1.0 -0.7371246758
O  O75  1  0.44920000  0.73290000  0.39670000  1.0 -0.7015041392
O  O76  1  0.77970000  0.66940000  0.41080000  1.0 -0.5205462146
O  O77  1  0.68590000  0.79420000  0.38560000  1.0 -0.5530422274
O  O78  1  0.83300000  0.77910000  0.38480000  1.0 -0.5969319983
O  O79  1  0.59200000  0.73740000  0.30710000  1.0 -0.0985910985
O  O80  1  0.54500000  0.70940000  0.29510000  1.0 0.0657851767
O  O81  1  0.05780000  0.40900000  0.93380000  1.0 -0.5969319983
O  O82  1  0.03740000  0.48640000  0.95610000  1.0 -0.7015041392
O  O83  1  0.90360000  0.23130000  0.00420000  1.0 -0.6450676266
O  O84  1  0.80760000  0.33610000  0.01380000  1.0 -0.6176880492
O  O85  1  0.05530000  0.23440000  0.01220000  1.0 -0.6176880492
O  O86  1  0.88650000  0.40500000  0.99760000  1.0 -0.6908260751
O  O87  1  0.56930000  0.09620000  0.95680000  1.0 -0.6654183212
O  O88  1  0.66620000  0.15700000  0.97440000  1.0 -0.6176880492
O  O89  1  0.17900000  0.27950000  0.93900000  1.0 -0.5969319983
O  O90  1  0.86990000  0.31430000  0.90650000  1.0 -0.7371246758
O  O91  1  0.05080000  0.26710000  0.89670000  1.0 -0.7015041392
O  O92  1  0.72030000  0.33060000  0.91080000  1.0 -0.5205462146
O  O93  1  0.81410000  0.20580000  0.88560000  1.0 -0.5530422274
O  O94  1  0.66700000  0.22090000  0.88480000  1.0 -0.5969319983
O  O95  1  0.90800000  0.26260000  0.80710000  1.0 -0.0985910985
O  O96  1  0.95500000  0.29060000  0.79510000  1.0 0.0657851767
O  O97  1  0.55780000  0.09100000  0.06620000  1.0 -0.5969319983
O  O98  1  0.53740000  0.01360000  0.04390000  1.0 -0.7015041392
O  O99  1  0.40360000  0.26870000  0.99580000  1.0 -0.6450676266
O  O100  1  0.30760000  0.16390000  0.98620000  1.0 -0.6176880492
O  O101  1  0.55530000  0.26560000  0.98780000  1.0 -0.6176880492
O  O102  1  0.38650000  0.09500000  0.00240000  1.0 -0.6908260751
O  O103  1  0.06930000  0.40380000  0.04320000  1.0 -0.6654183212
O  O104  1  0.16620000  0.34300000  0.02560000  1.0 -0.6176880492
O  O105  1  0.67900000  0.22050000  0.06100000  1.0 -0.5969319983
O  O106  1  0.36990000  0.18570000  0.09350000  1.0 -0.7371246758
O  O107  1  0.55080000  0.23290000  0.10330000  1.0 -0.7015041392
O  O108  1  0.22030000  0.16940000  0.08920000  1.0 -0.5205462146
O  O109  1  0.31410000  0.29420000  0.11440000  1.0 -0.5530422274
O  O110  1  0.16700000  0.27910000  0.11520000  1.0 -0.5969319983
O  O111  1  0.40800000  0.23740000  0.19290000  1.0 -0.0985910985
O  O112  1  0.45500000  0.20940000  0.20490000  1.0 0.0657851767
O  O113  1  0.94220000  0.90900000  0.56620000  1.0 -0.5969319983
O  O114  1  0.96260000  0.98640000  0.54390000  1.0 -0.7015041392
O  O115  1  0.09640000  0.73130000  0.49580000  1.0 -0.6446533743
O  O116  1  0.19240000  0.83610000  0.48620000  1.0 -0.6176880492
O  O117  1  0.94470000  0.73440000  0.48780000  1.0 -0.6176880492
O  O118  1  0.11350000  0.90500000  0.50240000  1.0 -0.6908260751
O  O119  1  0.43070000  0.59620000  0.54320000  1.0 -0.6654183212
O  O120  1  0.33380000  0.65700000  0.52560000  1.0 -0.6176880492
O  O121  1  0.82100000  0.77950000  0.56100000  1.0 -0.5969319983
O  O122  1  0.13010000  0.81430000  0.59350000  1.0 -0.7371246758
O  O123  1  0.94920000  0.76710000  0.60330000  1.0 -0.7015041392
O  O124  1  0.27970000  0.83060000  0.58920000  1.0 -0.5205462146
O  O125  1  0.18590000  0.70580000  0.61440000  1.0 -0.5530422274
O  O126  1  0.33300000  0.72090000  0.61520000  1.0 -0.5969319983
O  O127  1  0.09200000  0.76260000  0.69290000  1.0 -0.0985910985
O  O128  1  0.04500000  0.79060000  0.70490000  1.0 0.0657851767
