# DDEC6 charges by PACMAN v1.1 (https://github.com/mtap-research/PACMAN-charge/)
data_PIFXOU_ASR_pacman
_symmetry_space_group_name_H-M   'P 1'
_cell_length_a   16.91640000
_cell_length_b   16.91640000
_cell_length_c   16.91640000
_cell_angle_alpha   117.50200000
_cell_angle_beta   117.50200000
_cell_angle_gamma   117.50200000
_symmetry_Int_Tables_number   1
_chemical_formula_structural   ZnH21C15O4
_chemical_formula_sum   'Zn6 H126 C90 O24'
_cell_volume   1956.44875951
_cell_formula_units_Z   6
loop_
 _symmetry_equiv_pos_site_id
 _symmetry_equiv_pos_as_xyz
  1  'x, y, z'
loop_
 _atom_site_type_symbol
 _atom_site_label
 _atom_site_symmetry_multiplicity
 _atom_site_fract_x
 _atom_site_fract_y
 _atom_site_fract_z
 _atom_site_occupancy
 _atom_site_charge
Zn  Zn1  1  0.37479000  0.00001000  0.62519000  1.0 0.872322821
Zn  Zn2  1  0.00001000  0.62519000  0.37479000  1.0 0.872322821
Zn  Zn3  1  0.62519000  0.37479000  0.00001000  1.0 0.872322821
Zn  Zn4  1  0.62521000  0.99999000  0.37481000  1.0 0.872322821
Zn  Zn5  1  0.99999000  0.37481000  0.62521000  1.0 0.872322821
Zn  Zn6  1  0.37481000  0.62521000  0.99999000  1.0 0.872322821
H  H1  1  0.99071000  0.69631000  0.13070000  1.0 0.1281107897
H  H2  1  0.70441000  0.24461000  0.70440000  1.0 0.1536612892
H  H3  1  0.12991000  0.69611000  0.98990000  1.0 0.1281107897
H  H4  1  0.42731000  0.99141000  0.37040000  1.0 0.089914406
H  H5  1  0.37951000  0.96691000  0.24620000  1.0 0.0770272026
H  H6  1  0.49691000  0.13831000  0.42600000  1.0 0.0711374656
H  H7  1  0.17681000  0.90681000  0.08480000  1.0 0.0592516968
H  H8  1  0.08421000  0.89081000  0.09800000  1.0 0.089914406
H  H9  1  0.28631000  0.07621000  0.25800000  1.0 0.0711374656
H  H10  1  0.38421000  0.13681000  0.47000000  1.0 0.0711374656
H  H11  1  0.18141000  0.96871000  0.31860000  1.0 0.0770272026
H  H12  1  0.29371000  0.98291000  0.40900000  1.0 0.0711374656
H  H13  1  0.40971000  0.98481000  0.29350000  1.0 0.0711374656
H  H14  1  0.31641000  0.96791000  0.17930000  1.0 0.0711374656
H  H15  1  0.46821000  0.13681000  0.38210000  1.0 0.0711374656
H  H16  1  0.09901000  0.89391000  0.08610000  1.0 0.089914406
H  H17  1  0.07981000  0.90161000  0.17260000  1.0 0.0592516968
H  H18  1  0.25511000  0.07581000  0.28780000  1.0 0.0711374656
H  H19  1  0.43251000  0.13991000  0.50050000  1.0 0.0711374656
H  H20  1  0.25061000  0.97371000  0.38450000  1.0 0.0711374656
H  H21  1  0.36501000  0.98551000  0.42390000  1.0 0.0956043982
H  H22  1  0.69631000  0.13070000  0.99071000  1.0 0.1281107897
H  H23  1  0.24461000  0.70440000  0.70441000  1.0 0.1536612892
H  H24  1  0.69611000  0.98990000  0.12991000  1.0 0.1281107897
H  H25  1  0.99141000  0.37040000  0.42731000  1.0 0.089914406
H  H26  1  0.96691000  0.24620000  0.37951000  1.0 0.0770272026
H  H27  1  0.13831000  0.42600000  0.49691000  1.0 0.0711374656
H  H28  1  0.90681000  0.08480000  0.17681000  1.0 0.0592516968
H  H29  1  0.89081000  0.09800000  0.08421000  1.0 0.089914406
H  H30  1  0.07621000  0.25800000  0.28631000  1.0 0.0711374656
H  H31  1  0.13681000  0.47000000  0.38421000  1.0 0.0711374656
H  H32  1  0.96871000  0.31860000  0.18141000  1.0 0.0770272026
H  H33  1  0.98291000  0.40900000  0.29371000  1.0 0.0711374656
H  H34  1  0.98481000  0.29350000  0.40971000  1.0 0.0711374656
H  H35  1  0.96791000  0.17930000  0.31641000  1.0 0.0711374656
H  H36  1  0.13681000  0.38210000  0.46821000  1.0 0.0711374656
H  H37  1  0.89391000  0.08610000  0.09901000  1.0 0.089914406
H  H38  1  0.90161000  0.17260000  0.07981000  1.0 0.0592516968
H  H39  1  0.07581000  0.28780000  0.25511000  1.0 0.0711374656
H  H40  1  0.13991000  0.50050000  0.43251000  1.0 0.0711374656
H  H41  1  0.97371000  0.38450000  0.25061000  1.0 0.0711374656
H  H42  1  0.98551000  0.42390000  0.36501000  1.0 0.0956043982
H  H43  1  0.13070000  0.99071000  0.69631000  1.0 0.1281107897
H  H44  1  0.70440000  0.70441000  0.24461000  1.0 0.1536612892
H  H45  1  0.98990000  0.12991000  0.69611000  1.0 0.1281107897
H  H46  1  0.37040000  0.42731000  0.99141000  1.0 0.089914406
H  H47  1  0.24620000  0.37951000  0.96691000  1.0 0.0770272026
H  H48  1  0.42600000  0.49691000  0.13831000  1.0 0.0711374656
H  H49  1  0.08480000  0.17681000  0.90681000  1.0 0.0592516968
H  H50  1  0.09800000  0.08421000  0.89081000  1.0 0.089914406
H  H51  1  0.25800000  0.28631000  0.07621000  1.0 0.0711374656
H  H52  1  0.47000000  0.38421000  0.13681000  1.0 0.0711374656
H  H53  1  0.31860000  0.18141000  0.96871000  1.0 0.0770272026
H  H54  1  0.40900000  0.29371000  0.98291000  1.0 0.0711374656
H  H55  1  0.29350000  0.40971000  0.98481000  1.0 0.0711374656
H  H56  1  0.17930000  0.31641000  0.96791000  1.0 0.0711374656
H  H57  1  0.38210000  0.46821000  0.13681000  1.0 0.0711374656
H  H58  1  0.08610000  0.09901000  0.89391000  1.0 0.089914406
H  H59  1  0.17260000  0.07981000  0.90161000  1.0 0.0592516968
H  H60  1  0.28780000  0.25511000  0.07581000  1.0 0.0711374656
H  H61  1  0.50050000  0.43251000  0.13991000  1.0 0.0711374656
H  H62  1  0.38450000  0.25061000  0.97371000  1.0 0.0711374656
H  H63  1  0.42390000  0.36501000  0.98551000  1.0 0.0956043982
H  H64  1  0.00929000  0.30369000  0.86930000  1.0 0.1281107897
H  H65  1  0.29559000  0.75539000  0.29560000  1.0 0.1536612892
H  H66  1  0.87009000  0.30389000  0.01010000  1.0 0.1281107897
H  H67  1  0.57269000  0.00859000  0.62960000  1.0 0.089914406
H  H68  1  0.62049000  0.03309000  0.75380000  1.0 0.0770272026
H  H69  1  0.50309000  0.86169000  0.57400000  1.0 0.0711374656
H  H70  1  0.82319000  0.09319000  0.91520000  1.0 0.0592516968
H  H71  1  0.91579000  0.10919000  0.90200000  1.0 0.089914406
H  H72  1  0.71369000  0.92379000  0.74200000  1.0 0.0711374656
H  H73  1  0.61579000  0.86319000  0.53000000  1.0 0.0711374656
H  H74  1  0.81859000  0.03129000  0.68140000  1.0 0.0770272026
H  H75  1  0.70629000  0.01709000  0.59100000  1.0 0.0711374656
H  H76  1  0.59029000  0.01519000  0.70650000  1.0 0.0711374656
H  H77  1  0.68359000  0.03209000  0.82070000  1.0 0.0711374656
H  H78  1  0.53179000  0.86319000  0.61790000  1.0 0.0711374656
H  H79  1  0.90099000  0.10609000  0.91390000  1.0 0.089914406
H  H80  1  0.92019000  0.09839000  0.82740000  1.0 0.0592516968
H  H81  1  0.74489000  0.92419000  0.71220000  1.0 0.0711374656
H  H82  1  0.56749000  0.86009000  0.49950000  1.0 0.0711374656
H  H83  1  0.74939000  0.02629000  0.61550000  1.0 0.0711374656
H  H84  1  0.63499000  0.01449000  0.57610000  1.0 0.0956043982
H  H85  1  0.30369000  0.86930000  0.00929000  1.0 0.1281107897
H  H86  1  0.75539000  0.29560000  0.29559000  1.0 0.1536612892
H  H87  1  0.30389000  0.01010000  0.87009000  1.0 0.1281107897
H  H88  1  0.00859000  0.62960000  0.57269000  1.0 0.089914406
H  H89  1  0.03309000  0.75380000  0.62049000  1.0 0.0770272026
H  H90  1  0.86169000  0.57400000  0.50309000  1.0 0.0711374656
H  H91  1  0.09319000  0.91520000  0.82319000  1.0 0.0592516968
H  H92  1  0.10919000  0.90200000  0.91579000  1.0 0.089914406
H  H93  1  0.92379000  0.74200000  0.71369000  1.0 0.0711374656
H  H94  1  0.86319000  0.53000000  0.61579000  1.0 0.0711374656
H  H95  1  0.03129000  0.68140000  0.81859000  1.0 0.0770272026
H  H96  1  0.01709000  0.59100000  0.70629000  1.0 0.0711374656
H  H97  1  0.01519000  0.70650000  0.59029000  1.0 0.0711374656
H  H98  1  0.03209000  0.82070000  0.68359000  1.0 0.0711374656
H  H99  1  0.86319000  0.61790000  0.53179000  1.0 0.0711374656
H  H100  1  0.10609000  0.91390000  0.90099000  1.0 0.089914406
H  H101  1  0.09839000  0.82740000  0.92019000  1.0 0.0592516968
H  H102  1  0.92419000  0.71220000  0.74489000  1.0 0.0711374656
H  H103  1  0.86009000  0.49950000  0.56749000  1.0 0.0711374656
H  H104  1  0.02629000  0.61550000  0.74939000  1.0 0.0711374656
H  H105  1  0.01449000  0.57610000  0.63499000  1.0 0.0956043982
H  H106  1  0.86930000  0.00929000  0.30369000  1.0 0.1281107897
H  H107  1  0.29560000  0.29559000  0.75539000  1.0 0.1536612892
H  H108  1  0.01010000  0.87009000  0.30389000  1.0 0.1281107897
H  H109  1  0.62960000  0.57269000  0.00859000  1.0 0.089914406
H  H110  1  0.75380000  0.62049000  0.03309000  1.0 0.0770272026
H  H111  1  0.57400000  0.50309000  0.86169000  1.0 0.0711374656
H  H112  1  0.91520000  0.82319000  0.09319000  1.0 0.0592516968
H  H113  1  0.90200000  0.91579000  0.10919000  1.0 0.089914406
H  H114  1  0.74200000  0.71369000  0.92379000  1.0 0.0711374656
H  H115  1  0.53000000  0.61579000  0.86319000  1.0 0.0711374656
H  H116  1  0.68140000  0.81859000  0.03129000  1.0 0.0770272026
H  H117  1  0.59100000  0.70629000  0.01709000  1.0 0.0711374656
H  H118  1  0.70650000  0.59029000  0.01519000  1.0 0.0711374656
H  H119  1  0.82070000  0.68359000  0.03209000  1.0 0.0711374656
H  H120  1  0.61790000  0.53179000  0.86319000  1.0 0.0711374656
H  H121  1  0.91390000  0.90099000  0.10609000  1.0 0.089914406
H  H122  1  0.82740000  0.92019000  0.09839000  1.0 0.0592516968
H  H123  1  0.71220000  0.74489000  0.92419000  1.0 0.0711374656
H  H124  1  0.49950000  0.56749000  0.86009000  1.0 0.0711374656
H  H125  1  0.61550000  0.74939000  0.02629000  1.0 0.0711374656
H  H126  1  0.57610000  0.63499000  0.01449000  1.0 0.0956043982
C  C1  1  0.08337000  0.72705000  0.08350000  1.0 0.0290049305
C  C2  1  0.97159000  0.63619000  0.05454000  1.0 -0.2122996476
C  C3  1  0.83073000  0.45632000  0.91357000  1.0 0.0181536451
C  C4  1  0.80111000  0.36658000  0.80103000  1.0 -0.1416362093
C  C5  1  0.91363000  0.45635000  0.83094000  1.0 0.0181536451
C  C6  1  0.05411000  0.63601000  0.97130000  1.0 -0.2122996476
C  C7  1  0.23668000  0.92388000  0.23646000  1.0 0.2210887804
C  C8  1  0.71318000  0.35936000  0.88568000  1.0 0.5071963354
C  C9  1  0.88602000  0.35992000  0.71348000  1.0 0.5071963354
C  C10  1  0.39971000  0.01311000  0.32800000  1.0 -0.2184395638
C  C11  1  0.19191000  0.95191000  0.16260000  1.0 -0.2122996476
C  C12  1  0.27761000  0.01081000  0.37050000  1.0 -0.1963254279
C  C13  1  0.36941000  0.01101000  0.27640000  1.0 -0.1963254279
C  C14  1  0.16061000  0.95131000  0.19150000  1.0 -0.2184395638
C  C15  1  0.32971000  0.01401000  0.40130000  1.0 -0.2184395638
C  C16  1  0.72705000  0.08350000  0.08337000  1.0 0.0290049305
C  C17  1  0.63619000  0.05454000  0.97159000  1.0 -0.2122996476
C  C18  1  0.45632000  0.91357000  0.83073000  1.0 0.0181536451
C  C19  1  0.36658000  0.80103000  0.80111000  1.0 -0.1416362093
C  C20  1  0.45635000  0.83094000  0.91363000  1.0 0.0181536451
C  C21  1  0.63601000  0.97130000  0.05411000  1.0 -0.2122996476
C  C22  1  0.92388000  0.23646000  0.23668000  1.0 0.2210887804
C  C23  1  0.35936000  0.88568000  0.71318000  1.0 0.5071963354
C  C24  1  0.35992000  0.71348000  0.88602000  1.0 0.5071963354
C  C25  1  0.01311000  0.32800000  0.39971000  1.0 -0.2184395638
C  C26  1  0.95191000  0.16260000  0.19191000  1.0 -0.2122996476
C  C27  1  0.01081000  0.37050000  0.27761000  1.0 -0.1963254279
C  C28  1  0.01101000  0.27640000  0.36941000  1.0 -0.1963254279
C  C29  1  0.95131000  0.19150000  0.16061000  1.0 -0.2184395638
C  C30  1  0.01401000  0.40130000  0.32971000  1.0 -0.2122996476
C  C31  1  0.08350000  0.08337000  0.72705000  1.0 0.0290049305
C  C32  1  0.05454000  0.97159000  0.63619000  1.0 -0.2122996476
C  C33  1  0.91357000  0.83073000  0.45632000  1.0 0.0181536451
C  C34  1  0.80103000  0.80111000  0.36658000  1.0 -0.1416362093
C  C35  1  0.83094000  0.91363000  0.45635000  1.0 0.0144786452
C  C36  1  0.97130000  0.05411000  0.63601000  1.0 -0.2122996476
C  C37  1  0.23646000  0.23668000  0.92388000  1.0 0.2210887804
C  C38  1  0.88568000  0.71318000  0.35936000  1.0 0.5071963354
C  C39  1  0.71348000  0.88602000  0.35992000  1.0 0.5071963354
C  C40  1  0.32800000  0.39971000  0.01311000  1.0 -0.2184395638
C  C41  1  0.16260000  0.19191000  0.95191000  1.0 -0.2122996476
C  C42  1  0.37050000  0.27761000  0.01081000  1.0 -0.1963254279
C  C43  1  0.27640000  0.36941000  0.01101000  1.0 -0.1963254279
C  C44  1  0.19150000  0.16061000  0.95131000  1.0 -0.2184395638
C  C45  1  0.40130000  0.32971000  0.01401000  1.0 -0.2122996476
C  C46  1  0.91663000  0.27295000  0.91650000  1.0 0.0290049305
C  C47  1  0.02841000  0.36381000  0.94546000  1.0 -0.2122996476
C  C48  1  0.16927000  0.54368000  0.08643000  1.0 0.0181536451
C  C49  1  0.19889000  0.63342000  0.19897000  1.0 -0.1416362093
C  C50  1  0.08637000  0.54365000  0.16906000  1.0 0.0144786452
C  C51  1  0.94589000  0.36399000  0.02870000  1.0 -0.2122996476
C  C52  1  0.76332000  0.07612000  0.76354000  1.0 0.2210887804
C  C53  1  0.28682000  0.64064000  0.11432000  1.0 0.5071963354
C  C54  1  0.11398000  0.64008000  0.28652000  1.0 0.5071963354
C  C55  1  0.60029000  0.98689000  0.67200000  1.0 -0.2184395638
C  C56  1  0.80809000  0.04809000  0.83740000  1.0 -0.2122996476
C  C57  1  0.72239000  0.98919000  0.62950000  1.0 -0.1963254279
C  C58  1  0.63059000  0.98899000  0.72360000  1.0 -0.1963254279
C  C59  1  0.83939000  0.04869000  0.80850000  1.0 -0.2184395638
C  C60  1  0.67029000  0.98599000  0.59870000  1.0 -0.2122996476
C  C61  1  0.27295000  0.91650000  0.91663000  1.0 0.0290049305
C  C62  1  0.36381000  0.94546000  0.02841000  1.0 -0.2122996476
C  C63  1  0.54368000  0.08643000  0.16927000  1.0 0.0181536451
C  C64  1  0.63342000  0.19897000  0.19889000  1.0 -0.1416362093
C  C65  1  0.54365000  0.16906000  0.08637000  1.0 0.0144786452
C  C66  1  0.36399000  0.02870000  0.94589000  1.0 -0.2122996476
C  C67  1  0.07612000  0.76354000  0.76332000  1.0 0.2210887804
C  C68  1  0.64064000  0.11432000  0.28682000  1.0 0.5071963354
C  C69  1  0.64008000  0.28652000  0.11398000  1.0 0.5071963354
C  C70  1  0.98689000  0.67200000  0.60029000  1.0 -0.2184395638
C  C71  1  0.04809000  0.83740000  0.80809000  1.0 -0.2122996476
C  C72  1  0.98919000  0.62950000  0.72239000  1.0 -0.1963254279
C  C73  1  0.98899000  0.72360000  0.63059000  1.0 -0.1963254279
C  C74  1  0.04869000  0.80850000  0.83939000  1.0 -0.2184395638
C  C75  1  0.98599000  0.59870000  0.67029000  1.0 -0.2122996476
C  C76  1  0.91650000  0.91663000  0.27295000  1.0 0.0290049305
C  C77  1  0.94546000  0.02841000  0.36381000  1.0 -0.2122996476
C  C78  1  0.08643000  0.16927000  0.54368000  1.0 0.0181536451
C  C79  1  0.19897000  0.19889000  0.63342000  1.0 -0.1416362093
C  C80  1  0.16906000  0.08637000  0.54365000  1.0 0.0144786452
C  C81  1  0.02870000  0.94589000  0.36399000  1.0 -0.2122996476
C  C82  1  0.76354000  0.76332000  0.07612000  1.0 0.2210887804
C  C83  1  0.11432000  0.28682000  0.64064000  1.0 0.5071963354
C  C84  1  0.28652000  0.11398000  0.64008000  1.0 0.5071963354
C  C85  1  0.67200000  0.60029000  0.98689000  1.0 -0.2184395638
C  C86  1  0.83740000  0.80809000  0.04809000  1.0 -0.2122996476
C  C87  1  0.62950000  0.72239000  0.98919000  1.0 -0.1963254279
C  C88  1  0.72360000  0.63059000  0.98899000  1.0 -0.1963254279
C  C89  1  0.80850000  0.83939000  0.04869000  1.0 -0.2184395638
C  C90  1  0.59870000  0.67029000  0.98599000  1.0 -0.2122996476
O  O1  1  0.58835000  0.19864000  0.75513000  1.0 -0.5282918243
O  O2  1  0.75102000  0.44729000  0.99691000  1.0 -0.5282918243
O  O3  1  0.75501000  0.19860000  0.58821000  1.0 -0.5282918243
O  O4  1  0.99709000  0.44736000  0.75107000  1.0 -0.5247473484
O  O5  1  0.19864000  0.75513000  0.58835000  1.0 -0.5282918243
O  O6  1  0.44729000  0.99691000  0.75102000  1.0 -0.5247473484
O  O7  1  0.19860000  0.58821000  0.75501000  1.0 -0.5282918243
O  O8  1  0.44736000  0.75107000  0.99709000  1.0 -0.5247473484
O  O9  1  0.75513000  0.58835000  0.19864000  1.0 -0.5282918243
O  O10  1  0.99691000  0.75102000  0.44729000  1.0 -0.5247473484
O  O11  1  0.58821000  0.75501000  0.19860000  1.0 -0.5282918243
O  O12  1  0.75107000  0.99709000  0.44736000  1.0 -0.5247473484
O  O13  1  0.41165000  0.80136000  0.24487000  1.0 -0.5282918243
O  O14  1  0.24898000  0.55271000  0.00309000  1.0 -0.5282918243
O  O15  1  0.24499000  0.80140000  0.41179000  1.0 -0.5282918243
O  O16  1  0.00291000  0.55264000  0.24893000  1.0 -0.5247473484
O  O17  1  0.80136000  0.24487000  0.41165000  1.0 -0.5282918243
O  O18  1  0.55271000  0.00309000  0.24898000  1.0 -0.5282918243
O  O19  1  0.80140000  0.41179000  0.24499000  1.0 -0.5282918243
O  O20  1  0.55264000  0.24893000  0.00291000  1.0 -0.5247473484
O  O21  1  0.24487000  0.41165000  0.80136000  1.0 -0.5282918243
O  O22  1  0.00309000  0.24898000  0.55271000  1.0 -0.5282918243
O  O23  1  0.41179000  0.24499000  0.80140000  1.0 -0.5282918243
O  O24  1  0.24893000  0.00291000  0.55264000  1.0 -0.5247473484
