# DDEC6 charges by PACMAN v1.1 (https://github.com/mtap-research/PACMAN-charge/)
data_PIFYUC_ASR_pacman
_symmetry_space_group_name_H-M   'P 1'
_cell_length_a   21.98400000
_cell_length_b   21.98400000
_cell_length_c   32.73400000
_cell_angle_alpha   90.00000000
_cell_angle_beta   90.00000000
_cell_angle_gamma   120.00000000
_symmetry_Int_Tables_number   1
_chemical_formula_structural   In9H72C144(N6O13)2
_chemical_formula_sum   'In18 H144 C288 N24 O52'
_cell_volume   13700.71210507
_cell_formula_units_Z   2
loop_
 _symmetry_equiv_pos_site_id
 _symmetry_equiv_pos_as_xyz
  1  'x, y, z'
loop_
 _atom_site_type_symbol
 _atom_site_label
 _atom_site_symmetry_multiplicity
 _atom_site_fract_x
 _atom_site_fract_y
 _atom_site_fract_z
 _atom_site_occupancy
 _atom_site_charge
In  In1  1  0.22636000  0.61040000  0.25000000  1.0 1.4963703351
In  In2  1  0.61596000  0.22636000  0.75000000  1.0 1.4963703351
In  In3  1  0.38960000  0.61596000  0.25000000  1.0 1.4963703351
In  In4  1  0.77364000  0.38960000  0.75000000  1.0 1.4963703351
In  In5  1  0.38404000  0.77364000  0.25000000  1.0 1.4963703351
In  In6  1  0.61040000  0.38404000  0.75000000  1.0 1.4963703351
In  In7  1  0.38960000  0.77364000  0.75000000  1.0 1.4963703351
In  In8  1  0.61596000  0.38960000  0.25000000  1.0 1.4963703351
In  In9  1  0.22636000  0.61596000  0.75000000  1.0 1.4963703351
In  In10  1  0.61040000  0.22636000  0.25000000  1.0 1.4963703351
In  In11  1  0.38404000  0.61040000  0.75000000  1.0 1.4963703351
In  In12  1  0.77364000  0.38404000  0.25000000  1.0 1.4963703351
In  In13  1  0.50000000  0.50000000  0.00000000  1.0 0.8408973512
In  In14  1  0.00000000  0.50000000  0.50000000  1.0 0.8209262984
In  In15  1  0.50000000  0.00000000  0.00000000  1.0 0.8408973512
In  In16  1  0.50000000  0.50000000  0.50000000  1.0 0.8209262984
In  In17  1  0.00000000  0.50000000  0.00000000  1.0 0.8408973512
In  In18  1  0.50000000  0.00000000  0.50000000  1.0 0.8209262984
H  H1  1  0.35690000  0.52210000  0.13510000  1.0 0.1283808993
H  H2  1  0.83480000  0.35690000  0.63510000  1.0 0.1283808993
H  H3  1  0.47790000  0.83480000  0.13510000  1.0 0.1283808993
H  H4  1  0.64310000  0.47790000  0.63510000  1.0 0.1283808993
H  H5  1  0.16520000  0.64310000  0.13510000  1.0 0.1283808993
H  H6  1  0.52210000  0.16520000  0.63510000  1.0 0.1283808993
H  H7  1  0.47790000  0.64310000  0.86490000  1.0 0.1283808993
H  H8  1  0.83480000  0.47790000  0.36490000  1.0 0.1283808993
H  H9  1  0.35690000  0.83480000  0.86490000  1.0 0.1283808993
H  H10  1  0.52210000  0.35690000  0.36490000  1.0 0.1283808993
H  H11  1  0.16520000  0.52210000  0.86490000  1.0 0.1283808993
H  H12  1  0.64310000  0.16520000  0.36490000  1.0 0.1283808993
H  H13  1  0.64310000  0.47790000  0.86490000  1.0 0.1283808993
H  H14  1  0.16520000  0.64310000  0.36490000  1.0 0.1283808993
H  H15  1  0.52210000  0.16520000  0.86490000  1.0 0.1283808993
H  H16  1  0.35690000  0.52210000  0.36490000  1.0 0.1283808993
H  H17  1  0.83480000  0.35690000  0.86490000  1.0 0.1283808993
H  H18  1  0.47790000  0.83480000  0.36490000  1.0 0.1283808993
H  H19  1  0.52210000  0.35690000  0.13510000  1.0 0.1283808993
H  H20  1  0.16520000  0.52210000  0.63510000  1.0 0.1283808993
H  H21  1  0.64310000  0.16520000  0.13510000  1.0 0.1283808993
H  H22  1  0.47790000  0.64310000  0.63510000  1.0 0.1283808993
H  H23  1  0.83480000  0.47790000  0.13510000  1.0 0.1283808993
H  H24  1  0.35690000  0.83480000  0.63510000  1.0 0.1283808993
H  H25  1  0.14800000  0.45650000  0.06850000  1.0 0.1189607503
H  H26  1  0.69150000  0.14800000  0.56850000  1.0 0.1189607503
H  H27  1  0.54350000  0.69150000  0.06850000  1.0 0.1189607503
H  H28  1  0.85200000  0.54350000  0.56850000  1.0 0.1189607503
H  H29  1  0.30850000  0.85200000  0.06850000  1.0 0.1189607503
H  H30  1  0.45650000  0.30850000  0.56850000  1.0 0.1189607503
H  H31  1  0.54350000  0.85200000  0.93150000  1.0 0.1189607503
H  H32  1  0.69150000  0.54350000  0.43150000  1.0 0.1189607503
H  H33  1  0.14800000  0.69150000  0.93150000  1.0 0.1189607503
H  H34  1  0.45650000  0.14800000  0.43150000  1.0 0.1189607503
H  H35  1  0.30850000  0.45650000  0.93150000  1.0 0.1189607503
H  H36  1  0.85200000  0.30850000  0.43150000  1.0 0.1189607503
H  H37  1  0.85200000  0.54350000  0.93150000  1.0 0.1189607503
H  H38  1  0.30850000  0.85200000  0.43150000  1.0 0.1189607503
H  H39  1  0.45650000  0.30850000  0.93150000  1.0 0.1189607503
H  H40  1  0.14800000  0.45650000  0.43150000  1.0 0.1189607503
H  H41  1  0.69150000  0.14800000  0.93150000  1.0 0.1189607503
H  H42  1  0.54350000  0.69150000  0.43150000  1.0 0.1189607503
H  H43  1  0.45650000  0.14800000  0.06850000  1.0 0.1189607503
H  H44  1  0.30850000  0.45650000  0.56850000  1.0 0.1189607503
H  H45  1  0.85200000  0.30850000  0.06850000  1.0 0.1189607503
H  H46  1  0.54350000  0.85200000  0.56850000  1.0 0.1189607503
H  H47  1  0.69150000  0.54350000  0.06850000  1.0 0.1189607503
H  H48  1  0.14800000  0.69150000  0.56850000  1.0 0.1189607503
H  H49  1  0.33370000  0.59790000  0.03000000  1.0 0.1189607503
H  H50  1  0.73580000  0.33370000  0.53000000  1.0 0.1189607503
H  H51  1  0.40210000  0.73580000  0.03000000  1.0 0.1189607503
H  H52  1  0.66630000  0.40210000  0.53000000  1.0 0.1189607503
H  H53  1  0.26420000  0.66630000  0.03000000  1.0 0.1189607503
H  H54  1  0.59790000  0.26420000  0.53000000  1.0 0.1189607503
H  H55  1  0.40210000  0.66630000  0.97000000  1.0 0.1189607503
H  H56  1  0.73580000  0.40210000  0.47000000  1.0 0.1189607503
H  H57  1  0.33370000  0.73580000  0.97000000  1.0 0.1189607503
H  H58  1  0.59790000  0.33370000  0.47000000  1.0 0.1189607503
H  H59  1  0.26420000  0.59790000  0.97000000  1.0 0.1189607503
H  H60  1  0.66630000  0.26420000  0.47000000  1.0 0.1189607503
H  H61  1  0.66630000  0.40210000  0.97000000  1.0 0.1189607503
H  H62  1  0.26420000  0.66630000  0.47000000  1.0 0.1189607503
H  H63  1  0.59790000  0.26420000  0.97000000  1.0 0.1189607503
H  H64  1  0.33370000  0.59790000  0.47000000  1.0 0.1189607503
H  H65  1  0.73580000  0.33370000  0.97000000  1.0 0.1189607503
H  H66  1  0.40210000  0.73580000  0.47000000  1.0 0.1189607503
H  H67  1  0.59790000  0.33370000  0.03000000  1.0 0.1189607503
H  H68  1  0.26420000  0.59790000  0.53000000  1.0 0.1189607503
H  H69  1  0.66630000  0.26420000  0.03000000  1.0 0.1189607503
H  H70  1  0.40210000  0.66630000  0.53000000  1.0 0.1189607503
H  H71  1  0.73580000  0.40210000  0.03000000  1.0 0.1189607503
H  H72  1  0.33370000  0.73580000  0.53000000  1.0 0.1189607503
H  H73  1  0.31310000  0.37830000  0.11330000  1.0 0.1283808993
H  H74  1  0.93480000  0.31310000  0.61330000  1.0 0.1283808993
H  H75  1  0.62170000  0.93480000  0.11330000  1.0 0.1283808993
H  H76  1  0.68690000  0.62170000  0.61330000  1.0 0.1283808993
H  H77  1  0.06520000  0.68690000  0.11330000  1.0 0.1283808993
H  H78  1  0.37830000  0.06520000  0.61330000  1.0 0.1283808993
H  H79  1  0.62170000  0.68690000  0.88670000  1.0 0.1283808993
H  H80  1  0.93480000  0.62170000  0.38670000  1.0 0.1283808993
H  H81  1  0.31310000  0.93480000  0.88670000  1.0 0.1283808993
H  H82  1  0.37830000  0.31310000  0.38670000  1.0 0.1283808993
H  H83  1  0.06520000  0.37830000  0.88670000  1.0 0.1283808993
H  H84  1  0.68690000  0.06520000  0.38670000  1.0 0.1283808993
H  H85  1  0.68690000  0.62170000  0.88670000  1.0 0.1283808993
H  H86  1  0.06520000  0.68690000  0.38670000  1.0 0.1283808993
H  H87  1  0.37830000  0.06520000  0.88670000  1.0 0.1283808993
H  H88  1  0.31310000  0.37830000  0.38670000  1.0 0.1283808993
H  H89  1  0.93480000  0.31310000  0.88670000  1.0 0.1283808993
H  H90  1  0.62170000  0.93480000  0.38670000  1.0 0.1283808993
H  H91  1  0.37830000  0.31310000  0.11330000  1.0 0.1283808993
H  H92  1  0.06520000  0.37830000  0.61330000  1.0 0.1283808993
H  H93  1  0.68690000  0.06520000  0.11330000  1.0 0.1283808993
H  H94  1  0.62170000  0.68690000  0.61330000  1.0 0.1283808993
H  H95  1  0.93480000  0.62170000  0.11330000  1.0 0.1283808993
H  H96  1  0.31310000  0.93480000  0.61330000  1.0 0.1283808993
H  H97  1  0.23720000  0.45550000  0.03580000  1.0 0.1143327253
H  H98  1  0.78170000  0.23720000  0.53580000  1.0 0.1143327253
H  H99  1  0.54450000  0.78170000  0.03580000  1.0 0.1143327253
H  H100  1  0.76280000  0.54450000  0.53580000  1.0 0.1143327253
H  H101  1  0.21830000  0.76280000  0.03580000  1.0 0.1143327253
H  H102  1  0.45550000  0.21830000  0.53580000  1.0 0.1143327253
H  H103  1  0.54450000  0.76280000  0.96420000  1.0 0.1143327253
H  H104  1  0.78170000  0.54450000  0.46420000  1.0 0.1143327253
H  H105  1  0.23720000  0.78170000  0.96420000  1.0 0.1143327253
H  H106  1  0.45550000  0.23720000  0.46420000  1.0 0.1143327253
H  H107  1  0.21830000  0.45550000  0.96420000  1.0 0.1143327253
H  H108  1  0.76280000  0.21830000  0.46420000  1.0 0.1143327253
H  H109  1  0.76280000  0.54450000  0.96420000  1.0 0.1143327253
H  H110  1  0.21830000  0.76280000  0.46420000  1.0 0.1143327253
H  H111  1  0.45550000  0.21830000  0.96420000  1.0 0.1143327253
H  H112  1  0.23720000  0.45550000  0.46420000  1.0 0.1143327253
H  H113  1  0.78170000  0.23720000  0.96420000  1.0 0.1143327253
H  H114  1  0.54450000  0.78170000  0.46420000  1.0 0.1143327253
H  H115  1  0.45550000  0.23720000  0.03580000  1.0 0.1143327253
H  H116  1  0.21830000  0.45550000  0.53580000  1.0 0.1143327253
H  H117  1  0.76280000  0.21830000  0.03580000  1.0 0.1143327253
H  H118  1  0.54450000  0.76280000  0.53580000  1.0 0.1143327253
H  H119  1  0.78170000  0.54450000  0.03580000  1.0 0.1143327253
H  H120  1  0.23720000  0.78170000  0.53580000  1.0 0.1143327253
H  H121  1  0.15970000  0.49240000  0.13800000  1.0 0.1283808993
H  H122  1  0.66730000  0.15970000  0.63800000  1.0 0.1283808993
H  H123  1  0.50760000  0.66730000  0.13800000  1.0 0.1283808993
H  H124  1  0.84030000  0.50760000  0.63800000  1.0 0.1283808993
H  H125  1  0.33270000  0.84030000  0.13800000  1.0 0.1283808993
H  H126  1  0.49240000  0.33270000  0.63800000  1.0 0.1283808993
H  H127  1  0.50760000  0.84030000  0.86200000  1.0 0.1283808993
H  H128  1  0.66730000  0.50760000  0.36200000  1.0 0.1283808993
H  H129  1  0.15970000  0.66730000  0.86200000  1.0 0.1283808993
H  H130  1  0.49240000  0.15970000  0.36200000  1.0 0.1283808993
H  H131  1  0.33270000  0.49240000  0.86200000  1.0 0.1283808993
H  H132  1  0.84030000  0.33270000  0.36200000  1.0 0.1283808993
H  H133  1  0.84030000  0.50760000  0.86200000  1.0 0.1283808993
H  H134  1  0.33270000  0.84030000  0.36200000  1.0 0.1283808993
H  H135  1  0.49240000  0.33270000  0.86200000  1.0 0.1283808993
H  H136  1  0.15970000  0.49240000  0.36200000  1.0 0.1283808993
H  H137  1  0.66730000  0.15970000  0.86200000  1.0 0.1283808993
H  H138  1  0.50760000  0.66730000  0.36200000  1.0 0.1283808993
H  H139  1  0.49240000  0.15970000  0.13800000  1.0 0.1283808993
H  H140  1  0.33270000  0.49240000  0.63800000  1.0 0.1283808993
H  H141  1  0.84030000  0.33270000  0.13800000  1.0 0.1283808993
H  H142  1  0.50760000  0.84030000  0.63800000  1.0 0.1283808993
H  H143  1  0.66730000  0.50760000  0.13800000  1.0 0.1283808993
H  H144  1  0.15970000  0.66730000  0.63800000  1.0 0.1283808993
C  C1  1  0.26990000  0.53510000  0.18630000  1.0 0.6079653995
C  C2  1  0.73480000  0.26990000  0.68630000  1.0 0.6079653995
C  C3  1  0.46490000  0.73480000  0.18630000  1.0 0.6079653995
C  C4  1  0.73010000  0.46490000  0.68630000  1.0 0.6079653995
C  C5  1  0.26520000  0.73010000  0.18630000  1.0 0.6079653995
C  C6  1  0.53510000  0.26520000  0.68630000  1.0 0.6079653995
C  C7  1  0.46490000  0.73010000  0.81370000  1.0 0.6079653995
C  C8  1  0.73480000  0.46490000  0.31370000  1.0 0.6079653995
C  C9  1  0.26990000  0.73480000  0.81370000  1.0 0.6079653995
C  C10  1  0.53510000  0.26990000  0.31370000  1.0 0.6079653995
C  C11  1  0.26520000  0.53510000  0.81370000  1.0 0.6079653995
C  C12  1  0.73010000  0.26520000  0.31370000  1.0 0.6079653995
C  C13  1  0.73010000  0.46490000  0.81370000  1.0 0.6079653995
C  C14  1  0.26520000  0.73010000  0.31370000  1.0 0.6079653995
C  C15  1  0.53510000  0.26520000  0.81370000  1.0 0.6079653995
C  C16  1  0.26990000  0.53510000  0.31370000  1.0 0.6079653995
C  C17  1  0.73480000  0.26990000  0.81370000  1.0 0.6079653995
C  C18  1  0.46490000  0.73480000  0.31370000  1.0 0.6079653995
C  C19  1  0.53510000  0.26990000  0.18630000  1.0 0.6079653995
C  C20  1  0.26520000  0.53510000  0.68630000  1.0 0.6079653995
C  C21  1  0.73010000  0.26520000  0.18630000  1.0 0.6079653995
C  C22  1  0.46490000  0.73010000  0.68630000  1.0 0.6079653995
C  C23  1  0.73480000  0.46490000  0.18630000  1.0 0.6079653995
C  C24  1  0.26990000  0.73480000  0.68630000  1.0 0.6079653995
C  C25  1  0.38310000  0.44440000  0.06806000  1.0 0.1809624207
C  C26  1  0.93870000  0.38310000  0.56806000  1.0 0.1809624207
C  C27  1  0.55560000  0.93870000  0.06806000  1.0 0.1809624207
C  C28  1  0.61690000  0.55560000  0.56806000  1.0 0.1809624207
C  C29  1  0.06130000  0.61690000  0.06806000  1.0 0.1809624207
C  C30  1  0.44440000  0.06130000  0.56806000  1.0 0.1809624207
C  C31  1  0.55560000  0.61690000  0.93194000  1.0 0.1809624207
C  C32  1  0.93870000  0.55560000  0.43194000  1.0 0.1809624207
C  C33  1  0.38310000  0.93870000  0.93194000  1.0 0.1809624207
C  C34  1  0.44440000  0.38310000  0.43194000  1.0 0.1809624207
C  C35  1  0.06130000  0.44440000  0.93194000  1.0 0.1809624207
C  C36  1  0.61690000  0.06130000  0.43194000  1.0 0.1809624207
C  C37  1  0.61690000  0.55560000  0.93194000  1.0 0.1809624207
C  C38  1  0.06130000  0.61690000  0.43194000  1.0 0.1809624207
C  C39  1  0.44440000  0.06130000  0.93194000  1.0 0.1809624207
C  C40  1  0.38310000  0.44440000  0.43194000  1.0 0.1809624207
C  C41  1  0.93870000  0.38310000  0.93194000  1.0 0.1809624207
C  C42  1  0.55560000  0.93870000  0.43194000  1.0 0.1809624207
C  C43  1  0.44440000  0.38310000  0.06806000  1.0 0.1809624207
C  C44  1  0.06130000  0.44440000  0.56806000  1.0 0.1809624207
C  C45  1  0.61690000  0.06130000  0.06806000  1.0 0.1809624207
C  C46  1  0.55560000  0.61690000  0.56806000  1.0 0.1809624207
C  C47  1  0.93870000  0.55560000  0.06806000  1.0 0.1809624207
C  C48  1  0.38310000  0.93870000  0.56806000  1.0 0.1809624207
C  C49  1  0.31480000  0.50920000  0.12188000  1.0 -0.1567440446
C  C50  1  0.80560000  0.31480000  0.62188000  1.0 -0.1567440446
C  C51  1  0.49080000  0.80560000  0.12188000  1.0 -0.1567440446
C  C52  1  0.68520000  0.49080000  0.62188000  1.0 -0.1567440446
C  C53  1  0.19440000  0.68520000  0.12188000  1.0 -0.1567440446
C  C54  1  0.50920000  0.19440000  0.62188000  1.0 -0.1567440446
C  C55  1  0.49080000  0.68520000  0.87812000  1.0 -0.1567440446
C  C56  1  0.80560000  0.49080000  0.37812000  1.0 -0.1567440446
C  C57  1  0.31480000  0.80560000  0.87812000  1.0 -0.1567440446
C  C58  1  0.50920000  0.31480000  0.37812000  1.0 -0.1567440446
C  C59  1  0.19440000  0.50920000  0.87812000  1.0 -0.1567440446
C  C60  1  0.68520000  0.19440000  0.37812000  1.0 -0.1567440446
C  C61  1  0.68520000  0.49080000  0.87812000  1.0 -0.1567440446
C  C62  1  0.19440000  0.68520000  0.37812000  1.0 -0.1567440446
C  C63  1  0.50920000  0.19440000  0.87812000  1.0 -0.1567440446
C  C64  1  0.31480000  0.50920000  0.37812000  1.0 -0.1567440446
C  C65  1  0.80560000  0.31480000  0.87812000  1.0 -0.1567440446
C  C66  1  0.49080000  0.80560000  0.37812000  1.0 -0.1567440446
C  C67  1  0.50920000  0.31480000  0.12188000  1.0 -0.1567440446
C  C68  1  0.19440000  0.50920000  0.62188000  1.0 -0.1567440446
C  C69  1  0.68520000  0.19440000  0.12188000  1.0 -0.1567440446
C  C70  1  0.49080000  0.68520000  0.62188000  1.0 -0.1567440446
C  C71  1  0.80560000  0.49080000  0.12188000  1.0 -0.1567440446
C  C72  1  0.31480000  0.80560000  0.62188000  1.0 -0.1567440446
C  C73  1  0.18970000  0.47010000  0.08240000  1.0 -0.0958278877
C  C74  1  0.71960000  0.18970000  0.58240000  1.0 -0.0958278877
C  C75  1  0.52990000  0.71960000  0.08240000  1.0 -0.0958278877
C  C76  1  0.81030000  0.52990000  0.58240000  1.0 -0.0958278877
C  C77  1  0.28040000  0.81030000  0.08240000  1.0 -0.0958278877
C  C78  1  0.47010000  0.28040000  0.58240000  1.0 -0.0958278877
C  C79  1  0.52990000  0.81030000  0.91760000  1.0 -0.0958278877
C  C80  1  0.71960000  0.52990000  0.41760000  1.0 -0.0958278877
C  C81  1  0.18970000  0.71960000  0.91760000  1.0 -0.0958278877
C  C82  1  0.47010000  0.18970000  0.41760000  1.0 -0.0958278877
C  C83  1  0.28040000  0.47010000  0.91760000  1.0 -0.0958278877
C  C84  1  0.81030000  0.28040000  0.41760000  1.0 -0.0958278877
C  C85  1  0.81030000  0.52990000  0.91760000  1.0 -0.0958278877
C  C86  1  0.28040000  0.81030000  0.41760000  1.0 -0.0958278877
C  C87  1  0.47010000  0.28040000  0.91760000  1.0 -0.0958278877
C  C88  1  0.18970000  0.47010000  0.41760000  1.0 -0.0958278877
C  C89  1  0.71960000  0.18970000  0.91760000  1.0 -0.0958278877
C  C90  1  0.52990000  0.71960000  0.41760000  1.0 -0.0958278877
C  C91  1  0.47010000  0.18970000  0.08240000  1.0 -0.0958278877
C  C92  1  0.28040000  0.47010000  0.58240000  1.0 -0.0958278877
C  C93  1  0.81030000  0.28040000  0.08240000  1.0 -0.0958278877
C  C94  1  0.52990000  0.81030000  0.58240000  1.0 -0.0958278877
C  C95  1  0.71960000  0.52990000  0.08240000  1.0 -0.0958278877
C  C96  1  0.18970000  0.71960000  0.58240000  1.0 -0.0958278877
C  C97  1  0.25930000  0.50830000  0.14220000  1.0 -0.0081684273
C  C98  1  0.75100000  0.25930000  0.64220000  1.0 -0.0081684273
C  C99  1  0.49170000  0.75100000  0.14220000  1.0 -0.0081684273
C  C100  1  0.74070000  0.49170000  0.64220000  1.0 -0.0081684273
C  C101  1  0.24900000  0.74070000  0.14220000  1.0 -0.0081684273
C  C102  1  0.50830000  0.24900000  0.64220000  1.0 -0.0081684273
C  C103  1  0.49170000  0.74070000  0.85780000  1.0 -0.0081684273
C  C104  1  0.75100000  0.49170000  0.35780000  1.0 -0.0081684273
C  C105  1  0.25930000  0.75100000  0.85780000  1.0 -0.0081684273
C  C106  1  0.50830000  0.25930000  0.35780000  1.0 -0.0081684273
C  C107  1  0.24900000  0.50830000  0.85780000  1.0 -0.0081684273
C  C108  1  0.74070000  0.24900000  0.35780000  1.0 -0.0081684273
C  C109  1  0.74070000  0.49170000  0.85780000  1.0 -0.0081684273
C  C110  1  0.24900000  0.74070000  0.35780000  1.0 -0.0081684273
C  C111  1  0.50830000  0.24900000  0.85780000  1.0 -0.0081684273
C  C112  1  0.25930000  0.50830000  0.35780000  1.0 -0.0081684273
C  C113  1  0.75100000  0.25930000  0.85780000  1.0 -0.0081684273
C  C114  1  0.49170000  0.75100000  0.35780000  1.0 -0.0081684273
C  C115  1  0.50830000  0.25930000  0.14220000  1.0 -0.0081684273
C  C116  1  0.24900000  0.50830000  0.64220000  1.0 -0.0081684273
C  C117  1  0.74070000  0.24900000  0.14220000  1.0 -0.0081684273
C  C118  1  0.49170000  0.74070000  0.64220000  1.0 -0.0081684273
C  C119  1  0.75100000  0.49170000  0.14220000  1.0 -0.0081684273
C  C120  1  0.25930000  0.75100000  0.64220000  1.0 -0.0081684273
C  C121  1  0.36790000  0.59240000  0.01650000  1.0 -0.2119633621
C  C122  1  0.77550000  0.36790000  0.51650000  1.0 -0.2119633621
C  C123  1  0.40760000  0.77550000  0.01650000  1.0 -0.2119633621
C  C124  1  0.63210000  0.40760000  0.51650000  1.0 -0.2119633621
C  C125  1  0.22450000  0.63210000  0.01650000  1.0 -0.2119633621
C  C126  1  0.59240000  0.22450000  0.51650000  1.0 -0.2119633621
C  C127  1  0.40760000  0.63210000  0.98350000  1.0 -0.2119633621
C  C128  1  0.77550000  0.40760000  0.48350000  1.0 -0.2119633621
C  C129  1  0.36790000  0.77550000  0.98350000  1.0 -0.2119633621
C  C130  1  0.59240000  0.36790000  0.48350000  1.0 -0.2119633621
C  C131  1  0.22450000  0.59240000  0.98350000  1.0 -0.2119633621
C  C132  1  0.63210000  0.22450000  0.48350000  1.0 -0.2119633621
C  C133  1  0.63210000  0.40760000  0.98350000  1.0 -0.2119633621
C  C134  1  0.22450000  0.63210000  0.48350000  1.0 -0.2119633621
C  C135  1  0.59240000  0.22450000  0.98350000  1.0 -0.2119633621
C  C136  1  0.36790000  0.59240000  0.48350000  1.0 -0.2119633621
C  C137  1  0.77550000  0.36790000  0.98350000  1.0 -0.2119633621
C  C138  1  0.40760000  0.77550000  0.48350000  1.0 -0.2119633621
C  C139  1  0.59240000  0.36790000  0.01650000  1.0 -0.2119633621
C  C140  1  0.22450000  0.59240000  0.51650000  1.0 -0.2119633621
C  C141  1  0.63210000  0.22450000  0.01650000  1.0 -0.2119633621
C  C142  1  0.40760000  0.63210000  0.51650000  1.0 -0.2119633621
C  C143  1  0.77550000  0.40760000  0.01650000  1.0 -0.2119633621
C  C144  1  0.36790000  0.77550000  0.51650000  1.0 -0.2119633621
C  C145  1  0.35180000  0.38860000  0.09700000  1.0 -0.189566928
C  C146  1  0.96320000  0.35180000  0.59700000  1.0 -0.189566928
C  C147  1  0.61140000  0.96320000  0.09700000  1.0 -0.189566928
C  C148  1  0.64820000  0.61140000  0.59700000  1.0 -0.189566928
C  C149  1  0.03680000  0.64820000  0.09700000  1.0 -0.189566928
C  C150  1  0.38860000  0.03680000  0.59700000  1.0 -0.189566928
C  C151  1  0.61140000  0.64820000  0.90300000  1.0 -0.189566928
C  C152  1  0.96320000  0.61140000  0.40300000  1.0 -0.189566928
C  C153  1  0.35180000  0.96320000  0.90300000  1.0 -0.189566928
C  C154  1  0.38860000  0.35180000  0.40300000  1.0 -0.189566928
C  C155  1  0.03680000  0.38860000  0.90300000  1.0 -0.189566928
C  C156  1  0.64820000  0.03680000  0.40300000  1.0 -0.189566928
C  C157  1  0.64820000  0.61140000  0.90300000  1.0 -0.189566928
C  C158  1  0.03680000  0.64820000  0.40300000  1.0 -0.189566928
C  C159  1  0.38860000  0.03680000  0.90300000  1.0 -0.189566928
C  C160  1  0.35180000  0.38860000  0.40300000  1.0 -0.189566928
C  C161  1  0.96320000  0.35180000  0.90300000  1.0 -0.189566928
C  C162  1  0.61140000  0.96320000  0.40300000  1.0 -0.189566928
C  C163  1  0.38860000  0.35180000  0.09700000  1.0 -0.189566928
C  C164  1  0.03680000  0.38860000  0.59700000  1.0 -0.189566928
C  C165  1  0.64820000  0.03680000  0.09700000  1.0 -0.189566928
C  C166  1  0.61140000  0.64820000  0.59700000  1.0 -0.189566928
C  C167  1  0.96320000  0.61140000  0.09700000  1.0 -0.189566928
C  C168  1  0.35180000  0.96320000  0.59700000  1.0 -0.189566928
C  C169  1  0.30520000  0.49000000  0.08088000  1.0 0.0872581083
C  C170  1  0.81520000  0.30520000  0.58088000  1.0 0.0872581083
C  C171  1  0.51000000  0.81520000  0.08088000  1.0 0.0872581083
C  C172  1  0.69480000  0.51000000  0.58088000  1.0 0.0872581083
C  C173  1  0.18480000  0.69480000  0.08088000  1.0 0.0872581083
C  C174  1  0.49000000  0.18480000  0.58088000  1.0 0.0872581083
C  C175  1  0.51000000  0.69480000  0.91912000  1.0 0.0872581083
C  C176  1  0.81520000  0.51000000  0.41912000  1.0 0.0872581083
C  C177  1  0.30520000  0.81520000  0.91912000  1.0 0.0872581083
C  C178  1  0.49000000  0.30520000  0.41912000  1.0 0.0872581083
C  C179  1  0.18480000  0.49000000  0.91912000  1.0 0.0872581083
C  C180  1  0.69480000  0.18480000  0.41912000  1.0 0.0872581083
C  C181  1  0.69480000  0.51000000  0.91912000  1.0 0.0872581083
C  C182  1  0.18480000  0.69480000  0.41912000  1.0 0.0872581083
C  C183  1  0.49000000  0.18480000  0.91912000  1.0 0.0872581083
C  C184  1  0.30520000  0.49000000  0.41912000  1.0 0.0872581083
C  C185  1  0.81520000  0.30520000  0.91912000  1.0 0.0872581083
C  C186  1  0.51000000  0.81520000  0.41912000  1.0 0.0872581083
C  C187  1  0.49000000  0.30520000  0.08088000  1.0 0.0872581083
C  C188  1  0.18480000  0.49000000  0.58088000  1.0 0.0872581083
C  C189  1  0.69480000  0.18480000  0.08088000  1.0 0.0872581083
C  C190  1  0.51000000  0.69480000  0.58088000  1.0 0.0872581083
C  C191  1  0.81520000  0.51000000  0.08088000  1.0 0.0872581083
C  C192  1  0.30520000  0.81520000  0.58088000  1.0 0.0872581083
C  C193  1  0.24330000  0.47000000  0.06290000  1.0 -0.1360925836
C  C194  1  0.77330000  0.24330000  0.56290000  1.0 -0.1360925836
C  C195  1  0.53000000  0.77330000  0.06290000  1.0 -0.1360925836
C  C196  1  0.75670000  0.53000000  0.56290000  1.0 -0.1360925836
C  C197  1  0.22670000  0.75670000  0.06290000  1.0 -0.1360925836
C  C198  1  0.47000000  0.22670000  0.56290000  1.0 -0.1360925836
C  C199  1  0.53000000  0.75670000  0.93710000  1.0 -0.1360925836
C  C200  1  0.77330000  0.53000000  0.43710000  1.0 -0.1360925836
C  C201  1  0.24330000  0.77330000  0.93710000  1.0 -0.1360925836
C  C202  1  0.47000000  0.24330000  0.43710000  1.0 -0.1360925836
C  C203  1  0.22670000  0.47000000  0.93710000  1.0 -0.1360925836
C  C204  1  0.75670000  0.22670000  0.43710000  1.0 -0.1360925836
C  C205  1  0.75670000  0.53000000  0.93710000  1.0 -0.1360925836
C  C206  1  0.22670000  0.75670000  0.43710000  1.0 -0.1360925836
C  C207  1  0.47000000  0.22670000  0.93710000  1.0 -0.1360925836
C  C208  1  0.24330000  0.47000000  0.43710000  1.0 -0.1360925836
C  C209  1  0.77330000  0.24330000  0.93710000  1.0 -0.1360925836
C  C210  1  0.53000000  0.77330000  0.43710000  1.0 -0.1360925836
C  C211  1  0.47000000  0.24330000  0.06290000  1.0 -0.1360925836
C  C212  1  0.22670000  0.47000000  0.56290000  1.0 -0.1360925836
C  C213  1  0.75670000  0.22670000  0.06290000  1.0 -0.1360925836
C  C214  1  0.53000000  0.75670000  0.56290000  1.0 -0.1360925836
C  C215  1  0.77330000  0.53000000  0.06290000  1.0 -0.1360925836
C  C216  1  0.24330000  0.77330000  0.56290000  1.0 -0.1360925836
C  C217  1  0.19570000  0.49080000  0.12400000  1.0 -0.1223902463
C  C218  1  0.70490000  0.19570000  0.62400000  1.0 -0.1223902463
C  C219  1  0.50920000  0.70490000  0.12400000  1.0 -0.1223902463
C  C220  1  0.80430000  0.50920000  0.62400000  1.0 -0.1223902463
C  C221  1  0.29510000  0.80430000  0.12400000  1.0 -0.1223902463
C  C222  1  0.49080000  0.29510000  0.62400000  1.0 -0.1223902463
C  C223  1  0.50920000  0.80430000  0.87600000  1.0 -0.1223902463
C  C224  1  0.70490000  0.50920000  0.37600000  1.0 -0.1223902463
C  C225  1  0.19570000  0.70490000  0.87600000  1.0 -0.1223902463
C  C226  1  0.49080000  0.19570000  0.37600000  1.0 -0.1223902463
C  C227  1  0.29510000  0.49080000  0.87600000  1.0 -0.1223902463
C  C228  1  0.80430000  0.29510000  0.37600000  1.0 -0.1223902463
C  C229  1  0.80430000  0.50920000  0.87600000  1.0 -0.1223902463
C  C230  1  0.29510000  0.80430000  0.37600000  1.0 -0.1223902463
C  C231  1  0.49080000  0.29510000  0.87600000  1.0 -0.1223902463
C  C232  1  0.19570000  0.49080000  0.37600000  1.0 -0.1223902463
C  C233  1  0.70490000  0.19570000  0.87600000  1.0 -0.1223902463
C  C234  1  0.50920000  0.70490000  0.37600000  1.0 -0.1223902463
C  C235  1  0.49080000  0.19570000  0.12400000  1.0 -0.1223902463
C  C236  1  0.29510000  0.49080000  0.62400000  1.0 -0.1223902463
C  C237  1  0.80430000  0.29510000  0.12400000  1.0 -0.1223902463
C  C238  1  0.50920000  0.80430000  0.62400000  1.0 -0.1223902463
C  C239  1  0.70490000  0.50920000  0.12400000  1.0 -0.1223902463
C  C240  1  0.19570000  0.70490000  0.62400000  1.0 -0.1223902463
C  C241  1  0.36420000  0.48990000  0.05726000  1.0 -0.0858228831
C  C242  1  0.87430000  0.36420000  0.55726000  1.0 -0.0858228831
C  C243  1  0.51010000  0.87430000  0.05726000  1.0 -0.0858228831
C  C244  1  0.63580000  0.51010000  0.55726000  1.0 -0.0858228831
C  C245  1  0.12570000  0.63580000  0.05726000  1.0 -0.0858228831
C  C246  1  0.48990000  0.12570000  0.55726000  1.0 -0.0858228831
C  C247  1  0.51010000  0.63580000  0.94274000  1.0 -0.0858228831
C  C248  1  0.87430000  0.51010000  0.44274000  1.0 -0.0858228831
C  C249  1  0.36420000  0.87430000  0.94274000  1.0 -0.0858228831
C  C250  1  0.48990000  0.36420000  0.44274000  1.0 -0.0858228831
C  C251  1  0.12570000  0.48990000  0.94274000  1.0 -0.0858228831
C  C252  1  0.63580000  0.12570000  0.44274000  1.0 -0.0858228831
C  C253  1  0.63580000  0.51010000  0.94274000  1.0 -0.0858228831
C  C254  1  0.12570000  0.63580000  0.44274000  1.0 -0.0858228831
C  C255  1  0.48990000  0.12570000  0.94274000  1.0 -0.0858228831
C  C256  1  0.36420000  0.48990000  0.44274000  1.0 -0.0858228831
C  C257  1  0.87430000  0.36420000  0.94274000  1.0 -0.0858228831
C  C258  1  0.51010000  0.87430000  0.44274000  1.0 -0.0858228831
C  C259  1  0.48990000  0.36420000  0.05726000  1.0 -0.0858228831
C  C260  1  0.12570000  0.48990000  0.55726000  1.0 -0.0858228831
C  C261  1  0.63580000  0.12570000  0.05726000  1.0 -0.0858228831
C  C262  1  0.51010000  0.63580000  0.55726000  1.0 -0.0858228831
C  C263  1  0.87430000  0.51010000  0.05726000  1.0 -0.0858228831
C  C264  1  0.36420000  0.87430000  0.55726000  1.0 -0.0858228831
C  C265  1  0.38820000  0.54200000  0.02620000  1.0 0.1809624207
C  C266  1  0.84620000  0.38820000  0.52620000  1.0 0.1809624207
C  C267  1  0.45800000  0.84620000  0.02620000  1.0 0.1809624207
C  C268  1  0.61180000  0.45800000  0.52620000  1.0 0.1809624207
C  C269  1  0.15380000  0.61180000  0.02620000  1.0 0.1809624207
C  C270  1  0.54200000  0.15380000  0.52620000  1.0 0.1809624207
C  C271  1  0.45800000  0.61180000  0.97380000  1.0 0.1809624207
C  C272  1  0.84620000  0.45800000  0.47380000  1.0 0.1809624207
C  C273  1  0.38820000  0.84620000  0.97380000  1.0 0.1809624207
C  C274  1  0.54200000  0.38820000  0.47380000  1.0 0.1809624207
C  C275  1  0.15380000  0.54200000  0.97380000  1.0 0.1809624207
C  C276  1  0.61180000  0.15380000  0.47380000  1.0 0.1809624207
C  C277  1  0.61180000  0.45800000  0.97380000  1.0 0.1809624207
C  C278  1  0.15380000  0.61180000  0.47380000  1.0 0.1809624207
C  C279  1  0.54200000  0.15380000  0.97380000  1.0 0.1809624207
C  C280  1  0.38820000  0.54200000  0.47380000  1.0 0.1809624207
C  C281  1  0.84620000  0.38820000  0.97380000  1.0 0.1809624207
C  C282  1  0.45800000  0.84620000  0.47380000  1.0 0.1809624207
C  C283  1  0.54200000  0.38820000  0.02620000  1.0 0.1809624207
C  C284  1  0.15380000  0.54200000  0.52620000  1.0 0.1809624207
C  C285  1  0.61180000  0.15380000  0.02620000  1.0 0.1809624207
C  C286  1  0.45800000  0.61180000  0.52620000  1.0 0.1809624207
C  C287  1  0.84620000  0.45800000  0.02620000  1.0 0.1809624207
C  C288  1  0.38820000  0.84620000  0.52620000  1.0 0.1809624207
N  N1  1  0.44350000  0.55650000  0.00000000  1.0 -0.4052198036
N  N2  1  0.88700000  0.44350000  0.50000000  1.0 -0.4040956964
N  N3  1  0.44350000  0.88700000  0.00000000  1.0 -0.4052198036
N  N4  1  0.55650000  0.44350000  0.50000000  1.0 -0.4040956964
N  N5  1  0.11300000  0.55650000  0.00000000  1.0 -0.4052198036
N  N6  1  0.55650000  0.11300000  0.50000000  1.0 -0.4040956964
N  N7  1  0.55650000  0.44350000  0.00000000  1.0 -0.4040956964
N  N8  1  0.11300000  0.55650000  0.50000000  1.0 -0.4040956964
N  N9  1  0.55650000  0.11300000  0.00000000  1.0 -0.4040956964
N  N10  1  0.44350000  0.55650000  0.50000000  1.0 -0.4040956964
N  N11  1  0.88700000  0.44350000  0.00000000  1.0 -0.4040956964
N  N12  1  0.44350000  0.88700000  0.50000000  1.0 -0.4040956964
N  N13  1  0.44040000  0.44040000  0.05070000  1.0 -0.4577523722
N  N14  1  0.00000000  0.44040000  0.55070000  1.0 -0.4577523722
N  N15  1  0.55960000  0.00000000  0.05070000  1.0 -0.4577523722
N  N16  1  0.55960000  0.55960000  0.55070000  1.0 -0.4577523722
N  N17  1  0.00000000  0.55960000  0.05070000  1.0 -0.4577523722
N  N18  1  0.44040000  0.00000000  0.55070000  1.0 -0.4577523722
N  N19  1  0.55960000  0.55960000  0.94930000  1.0 -0.4577523722
N  N20  1  0.00000000  0.55960000  0.44930000  1.0 -0.4577523722
N  N21  1  0.44040000  0.00000000  0.94930000  1.0 -0.4577523722
N  N22  1  0.44040000  0.44040000  0.44930000  1.0 -0.4577523722
N  N23  1  0.00000000  0.44040000  0.94930000  1.0 -0.4577523722
N  N24  1  0.55960000  0.00000000  0.44930000  1.0 -0.4577523722
O  O1  1  0.22160000  0.54170000  0.20214000  1.0 -0.5724339588
O  O2  1  0.67990000  0.22160000  0.70214000  1.0 -0.5724339588
O  O3  1  0.45830000  0.67990000  0.20214000  1.0 -0.5724339588
O  O4  1  0.77840000  0.45830000  0.70214000  1.0 -0.5724339588
O  O5  1  0.32010000  0.77840000  0.20214000  1.0 -0.5724339588
O  O6  1  0.54170000  0.32010000  0.70214000  1.0 -0.5724339588
O  O7  1  0.45830000  0.77840000  0.79786000  1.0 -0.5724339588
O  O8  1  0.67990000  0.45830000  0.29786000  1.0 -0.5724339588
O  O9  1  0.22160000  0.67990000  0.79786000  1.0 -0.5724339588
O  O10  1  0.54170000  0.22160000  0.29786000  1.0 -0.5724339588
O  O11  1  0.32010000  0.54170000  0.79786000  1.0 -0.5724339588
O  O12  1  0.77840000  0.32010000  0.29786000  1.0 -0.5724339588
O  O13  1  0.77840000  0.45830000  0.79786000  1.0 -0.5724339588
O  O14  1  0.32010000  0.77840000  0.29786000  1.0 -0.5724339588
O  O15  1  0.54170000  0.32010000  0.79786000  1.0 -0.5724339588
O  O16  1  0.22160000  0.54170000  0.29786000  1.0 -0.5724339588
O  O17  1  0.67990000  0.22160000  0.79786000  1.0 -0.5724339588
O  O18  1  0.45830000  0.67990000  0.29786000  1.0 -0.5724339588
O  O19  1  0.54170000  0.22160000  0.20214000  1.0 -0.5724339588
O  O20  1  0.32010000  0.54170000  0.70214000  1.0 -0.5724339588
O  O21  1  0.77840000  0.32010000  0.20214000  1.0 -0.5724339588
O  O22  1  0.45830000  0.77840000  0.70214000  1.0 -0.5724339588
O  O23  1  0.67990000  0.45830000  0.20214000  1.0 -0.5724339588
O  O24  1  0.22160000  0.67990000  0.70214000  1.0 -0.5724339588
O  O25  1  0.33333333  0.66666667  0.25000000  1.0 -1.0822349293
O  O26  1  0.66666667  0.33333333  0.75000000  1.0 -1.0822349293
O  O27  1  0.33333333  0.66666667  0.75000000  1.0 -1.0822349293
O  O28  1  0.66666667  0.33333333  0.25000000  1.0 -1.0822349293
O  O29  1  0.32500000  0.54510000  0.20237000  1.0 -0.5600110395
O  O30  1  0.77990000  0.32500000  0.70237000  1.0 -0.5600110395
O  O31  1  0.45490000  0.77990000  0.20237000  1.0 -0.5600110395
O  O32  1  0.67500000  0.45490000  0.70237000  1.0 -0.5600110395
O  O33  1  0.22010000  0.67500000  0.20237000  1.0 -0.5600110395
O  O34  1  0.54510000  0.22010000  0.70237000  1.0 -0.5600110395
O  O35  1  0.45490000  0.67500000  0.79763000  1.0 -0.5600110395
O  O36  1  0.77990000  0.45490000  0.29763000  1.0 -0.5600110395
O  O37  1  0.32500000  0.77990000  0.79763000  1.0 -0.5600110395
O  O38  1  0.54510000  0.32500000  0.29763000  1.0 -0.5600110395
O  O39  1  0.22010000  0.54510000  0.79763000  1.0 -0.5600110395
O  O40  1  0.67500000  0.22010000  0.29763000  1.0 -0.5600110395
O  O41  1  0.67500000  0.45490000  0.79763000  1.0 -0.5600110395
O  O42  1  0.22010000  0.67500000  0.29763000  1.0 -0.5600110395
O  O43  1  0.54510000  0.22010000  0.79763000  1.0 -0.5600110395
O  O44  1  0.32500000  0.54510000  0.29763000  1.0 -0.5600110395
O  O45  1  0.77990000  0.32500000  0.79763000  1.0 -0.5600110395
O  O46  1  0.45490000  0.77990000  0.29763000  1.0 -0.5600110395
O  O47  1  0.54510000  0.32500000  0.20237000  1.0 -0.5600110395
O  O48  1  0.22010000  0.54510000  0.70237000  1.0 -0.5600110395
O  O49  1  0.67500000  0.22010000  0.20237000  1.0 -0.5600110395
O  O50  1  0.45490000  0.67500000  0.70237000  1.0 -0.5600110395
O  O51  1  0.77990000  0.45490000  0.20237000  1.0 -0.5600110395
O  O52  1  0.32500000  0.77990000  0.70237000  1.0 -0.5600110395
