# DDEC6 charges by PACMAN v1.1 (https://github.com/mtap-research/PACMAN-charge/)
data_PIFYOW_ASR_pacman
_symmetry_space_group_name_H-M   'P 1'
_cell_length_a   21.86280000
_cell_length_b   21.86280000
_cell_length_c   32.41110000
_cell_angle_alpha   90.00000000
_cell_angle_beta   90.00000000
_cell_angle_gamma   120.00000000
_symmetry_Int_Tables_number   1
_chemical_formula_structural   Fe9H72C144(N6O13)2
_chemical_formula_sum   'Fe18 H144 C288 N24 O52'
_cell_volume   13416.39902119
_cell_formula_units_Z   2
loop_
 _symmetry_equiv_pos_site_id
 _symmetry_equiv_pos_as_xyz
  1  'x, y, z'
loop_
 _atom_site_type_symbol
 _atom_site_label
 _atom_site_symmetry_multiplicity
 _atom_site_fract_x
 _atom_site_fract_y
 _atom_site_fract_z
 _atom_site_occupancy
 _atom_site_charge
Fe  Fe1  1  0.38065000  0.61265000  0.25000000  1.0 1.239102788
Fe  Fe2  1  0.76800000  0.38065000  0.75000000  1.0 1.239102788
Fe  Fe3  1  0.38735000  0.76800000  0.25000000  1.0 1.239102788
Fe  Fe4  1  0.61935000  0.38735000  0.75000000  1.0 1.239102788
Fe  Fe5  1  0.23200000  0.61935000  0.25000000  1.0 1.239102788
Fe  Fe6  1  0.61265000  0.23200000  0.75000000  1.0 1.239102788
Fe  Fe7  1  0.38735000  0.61935000  0.75000000  1.0 1.239102788
Fe  Fe8  1  0.76800000  0.38735000  0.25000000  1.0 1.239102788
Fe  Fe9  1  0.38065000  0.76800000  0.75000000  1.0 1.239102788
Fe  Fe10  1  0.61265000  0.38065000  0.25000000  1.0 1.239102788
Fe  Fe11  1  0.23200000  0.61265000  0.75000000  1.0 1.239102788
Fe  Fe12  1  0.61935000  0.23200000  0.25000000  1.0 1.239102788
Fe  Fe13  1  0.00000000  0.50000000  0.00000000  1.0 0.6594639294
Fe  Fe14  1  0.50000000  0.00000000  0.50000000  1.0 0.6594639294
Fe  Fe15  1  0.50000000  0.50000000  0.00000000  1.0 0.6594639294
Fe  Fe16  1  0.00000000  0.50000000  0.50000000  1.0 0.6594639294
Fe  Fe17  1  0.50000000  0.00000000  0.00000000  1.0 0.6594639294
Fe  Fe18  1  0.50000000  0.50000000  0.50000000  1.0 0.6594639294
H  H1  1  0.26130000  0.59610000  0.02980000  1.0 0.1198739097
H  H2  1  0.66520000  0.26130000  0.52980000  1.0 0.1198739097
H  H3  1  0.40390000  0.66520000  0.02980000  1.0 0.1198739097
H  H4  1  0.73870000  0.40390000  0.52980000  1.0 0.1198739097
H  H5  1  0.33480000  0.73870000  0.02980000  1.0 0.1198739097
H  H6  1  0.59610000  0.33480000  0.52980000  1.0 0.1198739097
H  H7  1  0.40390000  0.73870000  0.97020000  1.0 0.1198739097
H  H8  1  0.66520000  0.40390000  0.47020000  1.0 0.1198739097
H  H9  1  0.26130000  0.66520000  0.97020000  1.0 0.1198739097
H  H10  1  0.59610000  0.26130000  0.47020000  1.0 0.1198739097
H  H11  1  0.33480000  0.59610000  0.97020000  1.0 0.1198739097
H  H12  1  0.73870000  0.33480000  0.47020000  1.0 0.1198739097
H  H13  1  0.73870000  0.40390000  0.97020000  1.0 0.1198739097
H  H14  1  0.33480000  0.73870000  0.47020000  1.0 0.1198739097
H  H15  1  0.59610000  0.33480000  0.97020000  1.0 0.1198739097
H  H16  1  0.26130000  0.59610000  0.47020000  1.0 0.1198739097
H  H17  1  0.66520000  0.26130000  0.97020000  1.0 0.1198739097
H  H18  1  0.40390000  0.66520000  0.47020000  1.0 0.1198739097
H  H19  1  0.59610000  0.26130000  0.02980000  1.0 0.1198739097
H  H20  1  0.33480000  0.59610000  0.52980000  1.0 0.1198739097
H  H21  1  0.73870000  0.33480000  0.02980000  1.0 0.1198739097
H  H22  1  0.40390000  0.73870000  0.52980000  1.0 0.1198739097
H  H23  1  0.66520000  0.40390000  0.02980000  1.0 0.1198739097
H  H24  1  0.26130000  0.66520000  0.52980000  1.0 0.1198739097
H  H25  1  0.16760000  0.52630000  0.13520000  1.0 0.1286679709
H  H26  1  0.64130000  0.16760000  0.63520000  1.0 0.1286679709
H  H27  1  0.47370000  0.64130000  0.13520000  1.0 0.1286679709
H  H28  1  0.83240000  0.47370000  0.63520000  1.0 0.1286679709
H  H29  1  0.35870000  0.83240000  0.13520000  1.0 0.1286679709
H  H30  1  0.52630000  0.35870000  0.63520000  1.0 0.1286679709
H  H31  1  0.47370000  0.83240000  0.86480000  1.0 0.1286679709
H  H32  1  0.64130000  0.47370000  0.36480000  1.0 0.1286679709
H  H33  1  0.16760000  0.64130000  0.86480000  1.0 0.1286679709
H  H34  1  0.52630000  0.16760000  0.36480000  1.0 0.1286679709
H  H35  1  0.35870000  0.52630000  0.86480000  1.0 0.1286679709
H  H36  1  0.83240000  0.35870000  0.36480000  1.0 0.1286679709
H  H37  1  0.83240000  0.47370000  0.86480000  1.0 0.1286679709
H  H38  1  0.35870000  0.83240000  0.36480000  1.0 0.1286679709
H  H39  1  0.52630000  0.35870000  0.86480000  1.0 0.1286679709
H  H40  1  0.16760000  0.52630000  0.36480000  1.0 0.1286679709
H  H41  1  0.64130000  0.16760000  0.86480000  1.0 0.1286679709
H  H42  1  0.47370000  0.64130000  0.36480000  1.0 0.1286679709
H  H43  1  0.52630000  0.16760000  0.13520000  1.0 0.1286679709
H  H44  1  0.35870000  0.52630000  0.63520000  1.0 0.1286679709
H  H45  1  0.83240000  0.35870000  0.13520000  1.0 0.1286679709
H  H46  1  0.47370000  0.83240000  0.63520000  1.0 0.1286679709
H  H47  1  0.64130000  0.47370000  0.13520000  1.0 0.1286679709
H  H48  1  0.16760000  0.64130000  0.63520000  1.0 0.1286679709
H  H49  1  0.33300000  0.49440000  0.14100000  1.0 0.1286679709
H  H50  1  0.83860000  0.33300000  0.64100000  1.0 0.1286679709
H  H51  1  0.50560000  0.83860000  0.14100000  1.0 0.1286679709
H  H52  1  0.66700000  0.50560000  0.64100000  1.0 0.1286679709
H  H53  1  0.16140000  0.66700000  0.14100000  1.0 0.1286679709
H  H54  1  0.49440000  0.16140000  0.64100000  1.0 0.1286679709
H  H55  1  0.50560000  0.66700000  0.85900000  1.0 0.1286679709
H  H56  1  0.83860000  0.50560000  0.35900000  1.0 0.1286679709
H  H57  1  0.33300000  0.83860000  0.85900000  1.0 0.1286679709
H  H58  1  0.49440000  0.33300000  0.35900000  1.0 0.1286679709
H  H59  1  0.16140000  0.49440000  0.85900000  1.0 0.1286679709
H  H60  1  0.66700000  0.16140000  0.35900000  1.0 0.1286679709
H  H61  1  0.66700000  0.50560000  0.85900000  1.0 0.1286679709
H  H62  1  0.16140000  0.66700000  0.35900000  1.0 0.1286679709
H  H63  1  0.49440000  0.16140000  0.85900000  1.0 0.1286679709
H  H64  1  0.33300000  0.49440000  0.35900000  1.0 0.1286679709
H  H65  1  0.83860000  0.33300000  0.85900000  1.0 0.1286679709
H  H66  1  0.50560000  0.83860000  0.35900000  1.0 0.1286679709
H  H67  1  0.49440000  0.33300000  0.14100000  1.0 0.1286679709
H  H68  1  0.16140000  0.49440000  0.64100000  1.0 0.1286679709
H  H69  1  0.66700000  0.16140000  0.14100000  1.0 0.1286679709
H  H70  1  0.50560000  0.66700000  0.64100000  1.0 0.1286679709
H  H71  1  0.83860000  0.50560000  0.14100000  1.0 0.1286679709
H  H72  1  0.33300000  0.83860000  0.64100000  1.0 0.1286679709
H  H73  1  0.06450000  0.38360000  0.11590000  1.0 0.1286679709
H  H74  1  0.68090000  0.06450000  0.61590000  1.0 0.1286679709
H  H75  1  0.61640000  0.68090000  0.11590000  1.0 0.1286679709
H  H76  1  0.93550000  0.61640000  0.61590000  1.0 0.1286679709
H  H77  1  0.31910000  0.93550000  0.11590000  1.0 0.1286679709
H  H78  1  0.38360000  0.31910000  0.61590000  1.0 0.1286679709
H  H79  1  0.61640000  0.93550000  0.88410000  1.0 0.1286679709
H  H80  1  0.68090000  0.61640000  0.38410000  1.0 0.1286679709
H  H81  1  0.06450000  0.68090000  0.88410000  1.0 0.1286679709
H  H82  1  0.38360000  0.06450000  0.38410000  1.0 0.1286679709
H  H83  1  0.31910000  0.38360000  0.88410000  1.0 0.1286679709
H  H84  1  0.93550000  0.31910000  0.38410000  1.0 0.1286679709
H  H85  1  0.93550000  0.61640000  0.88410000  1.0 0.1286679709
H  H86  1  0.31910000  0.93550000  0.38410000  1.0 0.1286679709
H  H87  1  0.38360000  0.31910000  0.88410000  1.0 0.1286679709
H  H88  1  0.06450000  0.38360000  0.38410000  1.0 0.1286679709
H  H89  1  0.68090000  0.06450000  0.88410000  1.0 0.1286679709
H  H90  1  0.61640000  0.68090000  0.38410000  1.0 0.1286679709
H  H91  1  0.38360000  0.06450000  0.11590000  1.0 0.1286679709
H  H92  1  0.31910000  0.38360000  0.61590000  1.0 0.1286679709
H  H93  1  0.93550000  0.31910000  0.11590000  1.0 0.1286679709
H  H94  1  0.61640000  0.93550000  0.61590000  1.0 0.1286679709
H  H95  1  0.68090000  0.61640000  0.11590000  1.0 0.1286679709
H  H96  1  0.06450000  0.68090000  0.61590000  1.0 0.1286679709
H  H97  1  0.21980000  0.45150000  0.03670000  1.0 0.1198739097
H  H98  1  0.76830000  0.21980000  0.53670000  1.0 0.1198739097
H  H99  1  0.54850000  0.76830000  0.03670000  1.0 0.1198739097
H  H100  1  0.78020000  0.54850000  0.53670000  1.0 0.1198739097
H  H101  1  0.23170000  0.78020000  0.03670000  1.0 0.1198739097
H  H102  1  0.45150000  0.23170000  0.53670000  1.0 0.1198739097
H  H103  1  0.54850000  0.78020000  0.96330000  1.0 0.1198739097
H  H104  1  0.76830000  0.54850000  0.46330000  1.0 0.1198739097
H  H105  1  0.21980000  0.76830000  0.96330000  1.0 0.1198739097
H  H106  1  0.45150000  0.21980000  0.46330000  1.0 0.1198739097
H  H107  1  0.23170000  0.45150000  0.96330000  1.0 0.1198739097
H  H108  1  0.78020000  0.23170000  0.46330000  1.0 0.1198739097
H  H109  1  0.78020000  0.54850000  0.96330000  1.0 0.1198739097
H  H110  1  0.23170000  0.78020000  0.46330000  1.0 0.1198739097
H  H111  1  0.45150000  0.23170000  0.96330000  1.0 0.1198739097
H  H112  1  0.21980000  0.45150000  0.46330000  1.0 0.1198739097
H  H113  1  0.76830000  0.21980000  0.96330000  1.0 0.1198739097
H  H114  1  0.54850000  0.76830000  0.46330000  1.0 0.1198739097
H  H115  1  0.45150000  0.21980000  0.03670000  1.0 0.1198739097
H  H116  1  0.23170000  0.45150000  0.53670000  1.0 0.1198739097
H  H117  1  0.78020000  0.23170000  0.03670000  1.0 0.1198739097
H  H118  1  0.54850000  0.78020000  0.53670000  1.0 0.1198739097
H  H119  1  0.76830000  0.54850000  0.03670000  1.0 0.1198739097
H  H120  1  0.21980000  0.76830000  0.53670000  1.0 0.1198739097
H  H121  1  0.31370000  0.45720000  0.07230000  1.0 0.1198739097
H  H122  1  0.85650000  0.31370000  0.57230000  1.0 0.1198739097
H  H123  1  0.54280000  0.85650000  0.07230000  1.0 0.1198739097
H  H124  1  0.68630000  0.54280000  0.57230000  1.0 0.1198739097
H  H125  1  0.14350000  0.68630000  0.07230000  1.0 0.1198739097
H  H126  1  0.45720000  0.14350000  0.57230000  1.0 0.1198739097
H  H127  1  0.54280000  0.68630000  0.92770000  1.0 0.1198739097
H  H128  1  0.85650000  0.54280000  0.42770000  1.0 0.1198739097
H  H129  1  0.31370000  0.85650000  0.92770000  1.0 0.1198739097
H  H130  1  0.45720000  0.31370000  0.42770000  1.0 0.1198739097
H  H131  1  0.14350000  0.45720000  0.92770000  1.0 0.1198739097
H  H132  1  0.68630000  0.14350000  0.42770000  1.0 0.1198739097
H  H133  1  0.68630000  0.54280000  0.92770000  1.0 0.1198739097
H  H134  1  0.14350000  0.68630000  0.42770000  1.0 0.1198739097
H  H135  1  0.45720000  0.14350000  0.92770000  1.0 0.1198739097
H  H136  1  0.31370000  0.45720000  0.42770000  1.0 0.1198739097
H  H137  1  0.85650000  0.31370000  0.92770000  1.0 0.1198739097
H  H138  1  0.54280000  0.85650000  0.42770000  1.0 0.1198739097
H  H139  1  0.45720000  0.31370000  0.07230000  1.0 0.1198739097
H  H140  1  0.14350000  0.45720000  0.57230000  1.0 0.1198739097
H  H141  1  0.68630000  0.14350000  0.07230000  1.0 0.1198739097
H  H142  1  0.54280000  0.68630000  0.57230000  1.0 0.1198739097
H  H143  1  0.85650000  0.54280000  0.07230000  1.0 0.1198739097
H  H144  1  0.31370000  0.85650000  0.57230000  1.0 0.1198739097
C  C1  1  0.12760000  0.49260000  0.05753000  1.0 -0.0543210835
C  C2  1  0.63500000  0.12760000  0.55753000  1.0 -0.0543210835
C  C3  1  0.50740000  0.63500000  0.05753000  1.0 -0.0543210835
C  C4  1  0.87240000  0.50740000  0.55753000  1.0 -0.0543210835
C  C5  1  0.36500000  0.87240000  0.05753000  1.0 -0.0543210835
C  C6  1  0.49260000  0.36500000  0.55753000  1.0 -0.0543210835
C  C7  1  0.50740000  0.87240000  0.94247000  1.0 -0.0543210835
C  C8  1  0.63500000  0.50740000  0.44247000  1.0 -0.0543210835
C  C9  1  0.12760000  0.63500000  0.94247000  1.0 -0.0543210835
C  C10  1  0.49260000  0.12760000  0.44247000  1.0 -0.0543210835
C  C11  1  0.36500000  0.49260000  0.94247000  1.0 -0.0543210835
C  C12  1  0.87240000  0.36500000  0.44247000  1.0 -0.0543210835
C  C13  1  0.87240000  0.50740000  0.94247000  1.0 -0.0543210835
C  C14  1  0.36500000  0.87240000  0.44247000  1.0 -0.0543210835
C  C15  1  0.49260000  0.36500000  0.94247000  1.0 -0.0543210835
C  C16  1  0.12760000  0.49260000  0.44247000  1.0 -0.0543210835
C  C17  1  0.63500000  0.12760000  0.94247000  1.0 -0.0543210835
C  C18  1  0.50740000  0.63500000  0.44247000  1.0 -0.0543210835
C  C19  1  0.49260000  0.12760000  0.05753000  1.0 -0.0543210835
C  C20  1  0.36500000  0.49260000  0.55753000  1.0 -0.0543210835
C  C21  1  0.87240000  0.36500000  0.05753000  1.0 -0.0543210835
C  C22  1  0.50740000  0.87240000  0.55753000  1.0 -0.0543210835
C  C23  1  0.63500000  0.50740000  0.05753000  1.0 -0.0543210835
C  C24  1  0.12760000  0.63500000  0.55753000  1.0 -0.0543210835
C  C25  1  0.14974000  0.54280000  0.02578000  1.0 0.1666735641
C  C26  1  0.60694000  0.14974000  0.52578000  1.0 0.1666735641
C  C27  1  0.45720000  0.60694000  0.02578000  1.0 0.1666735641
C  C28  1  0.85026000  0.45720000  0.52578000  1.0 0.1666735641
C  C29  1  0.39306000  0.85026000  0.02578000  1.0 0.1666735641
C  C30  1  0.54280000  0.39306000  0.52578000  1.0 0.1666735641
C  C31  1  0.45720000  0.85026000  0.97422000  1.0 0.1666735641
C  C32  1  0.60694000  0.45720000  0.47422000  1.0 0.1666735641
C  C33  1  0.14974000  0.60694000  0.97422000  1.0 0.1666735641
C  C34  1  0.54280000  0.14974000  0.47422000  1.0 0.1666735641
C  C35  1  0.39306000  0.54280000  0.97422000  1.0 0.1666735641
C  C36  1  0.85026000  0.39306000  0.47422000  1.0 0.1666735641
C  C37  1  0.85026000  0.45720000  0.97422000  1.0 0.1666735641
C  C38  1  0.39306000  0.85026000  0.47422000  1.0 0.1666735641
C  C39  1  0.54280000  0.39306000  0.97422000  1.0 0.1666735641
C  C40  1  0.14974000  0.54280000  0.47422000  1.0 0.1666735641
C  C41  1  0.60694000  0.14974000  0.97422000  1.0 0.1666735641
C  C42  1  0.45720000  0.60694000  0.47422000  1.0 0.1666735641
C  C43  1  0.54280000  0.14974000  0.02578000  1.0 0.1666735641
C  C44  1  0.39306000  0.54280000  0.52578000  1.0 0.1666735641
C  C45  1  0.85026000  0.39306000  0.02578000  1.0 0.1666735641
C  C46  1  0.45720000  0.85026000  0.52578000  1.0 0.1666735641
C  C47  1  0.60694000  0.45720000  0.02578000  1.0 0.1666735641
C  C48  1  0.14974000  0.60694000  0.52578000  1.0 0.1666735641
C  C49  1  0.05820000  0.44490000  0.06746000  1.0 0.1666735641
C  C50  1  0.61330000  0.05820000  0.56746000  1.0 0.1666735641
C  C51  1  0.55510000  0.61330000  0.06746000  1.0 0.1666735641
C  C52  1  0.94180000  0.55510000  0.56746000  1.0 0.1666735641
C  C53  1  0.38670000  0.94180000  0.06746000  1.0 0.1666735641
C  C54  1  0.44490000  0.38670000  0.56746000  1.0 0.1666735641
C  C55  1  0.55510000  0.94180000  0.93254000  1.0 0.1666735641
C  C56  1  0.61330000  0.55510000  0.43254000  1.0 0.1666735641
C  C57  1  0.05820000  0.61330000  0.93254000  1.0 0.1666735641
C  C58  1  0.44490000  0.05820000  0.43254000  1.0 0.1666735641
C  C59  1  0.38670000  0.44490000  0.93254000  1.0 0.1666735641
C  C60  1  0.94180000  0.38670000  0.43254000  1.0 0.1666735641
C  C61  1  0.94180000  0.55510000  0.93254000  1.0 0.1666735641
C  C62  1  0.38670000  0.94180000  0.43254000  1.0 0.1666735641
C  C63  1  0.44490000  0.38670000  0.93254000  1.0 0.1666735641
C  C64  1  0.05820000  0.44490000  0.43254000  1.0 0.1666735641
C  C65  1  0.61330000  0.05820000  0.93254000  1.0 0.1666735641
C  C66  1  0.55510000  0.61330000  0.43254000  1.0 0.1666735641
C  C67  1  0.44490000  0.05820000  0.06746000  1.0 0.1666735641
C  C68  1  0.38670000  0.44490000  0.56746000  1.0 0.1666735641
C  C69  1  0.94180000  0.38670000  0.06746000  1.0 0.1666735641
C  C70  1  0.55510000  0.94180000  0.56746000  1.0 0.1666735641
C  C71  1  0.61330000  0.55510000  0.06746000  1.0 0.1666735641
C  C72  1  0.05820000  0.61330000  0.56746000  1.0 0.1666735641
C  C73  1  0.25159000  0.51260000  0.14471000  1.0 -0.0282179908
C  C74  1  0.73899000  0.25159000  0.64471000  1.0 -0.0282179908
C  C75  1  0.48740000  0.73899000  0.14471000  1.0 -0.0282179908
C  C76  1  0.74841000  0.48740000  0.64471000  1.0 -0.0282179908
C  C77  1  0.26101000  0.74841000  0.14471000  1.0 -0.0282179908
C  C78  1  0.51260000  0.26101000  0.64471000  1.0 -0.0282179908
C  C79  1  0.48740000  0.74841000  0.85529000  1.0 -0.0282179908
C  C80  1  0.73899000  0.48740000  0.35529000  1.0 -0.0282179908
C  C81  1  0.25159000  0.73899000  0.85529000  1.0 -0.0282179908
C  C82  1  0.51260000  0.25159000  0.35529000  1.0 -0.0282179908
C  C83  1  0.26101000  0.51260000  0.85529000  1.0 -0.0282179908
C  C84  1  0.74841000  0.26101000  0.35529000  1.0 -0.0282179908
C  C85  1  0.74841000  0.48740000  0.85529000  1.0 -0.0282179908
C  C86  1  0.26101000  0.74841000  0.35529000  1.0 -0.0282179908
C  C87  1  0.51260000  0.26101000  0.85529000  1.0 -0.0282179908
C  C88  1  0.25159000  0.51260000  0.35529000  1.0 -0.0282179908
C  C89  1  0.73899000  0.25159000  0.85529000  1.0 -0.0282179908
C  C90  1  0.48740000  0.73899000  0.35529000  1.0 -0.0282179908
C  C91  1  0.51260000  0.25159000  0.14471000  1.0 -0.0282179908
C  C92  1  0.26101000  0.51260000  0.64471000  1.0 -0.0282179908
C  C93  1  0.74841000  0.26101000  0.14471000  1.0 -0.0282179908
C  C94  1  0.48740000  0.74841000  0.64471000  1.0 -0.0282179908
C  C95  1  0.73899000  0.48740000  0.14471000  1.0 -0.0282179908
C  C96  1  0.25159000  0.73899000  0.64471000  1.0 -0.0282179908
C  C97  1  0.18540000  0.48950000  0.08177000  1.0 0.0798187856
C  C98  1  0.69590000  0.18540000  0.58177000  1.0 0.0798187856
C  C99  1  0.51050000  0.69590000  0.08177000  1.0 0.0798187856
C  C100  1  0.81460000  0.51050000  0.58177000  1.0 0.0798187856
C  C101  1  0.30410000  0.81460000  0.08177000  1.0 0.0798187856
C  C102  1  0.48950000  0.30410000  0.58177000  1.0 0.0798187856
C  C103  1  0.51050000  0.81460000  0.91823000  1.0 0.0798187856
C  C104  1  0.69590000  0.51050000  0.41823000  1.0 0.0798187856
C  C105  1  0.18540000  0.69590000  0.91823000  1.0 0.0798187856
C  C106  1  0.48950000  0.18540000  0.41823000  1.0 0.0798187856
C  C107  1  0.30410000  0.48950000  0.91823000  1.0 0.0798187856
C  C108  1  0.81460000  0.30410000  0.41823000  1.0 0.0798187856
C  C109  1  0.81460000  0.51050000  0.91823000  1.0 0.0798187856
C  C110  1  0.30410000  0.81460000  0.41823000  1.0 0.0798187856
C  C111  1  0.48950000  0.30410000  0.91823000  1.0 0.0798187856
C  C112  1  0.18540000  0.48950000  0.41823000  1.0 0.0798187856
C  C113  1  0.69590000  0.18540000  0.91823000  1.0 0.0798187856
C  C114  1  0.51050000  0.69590000  0.41823000  1.0 0.0798187856
C  C115  1  0.48950000  0.18540000  0.08177000  1.0 0.0798187856
C  C116  1  0.30410000  0.48950000  0.58177000  1.0 0.0798187856
C  C117  1  0.81460000  0.30410000  0.08177000  1.0 0.0798187856
C  C118  1  0.51050000  0.81460000  0.58177000  1.0 0.0798187856
C  C119  1  0.69590000  0.51050000  0.08177000  1.0 0.0798187856
C  C120  1  0.18540000  0.69590000  0.58177000  1.0 0.0798187856
C  C121  1  0.22180000  0.59170000  0.01623000  1.0 -0.1914989249
C  C122  1  0.63010000  0.22180000  0.51623000  1.0 -0.1914989249
C  C123  1  0.40830000  0.63010000  0.01623000  1.0 -0.1914989249
C  C124  1  0.77820000  0.40830000  0.51623000  1.0 -0.1914989249
C  C125  1  0.36990000  0.77820000  0.01623000  1.0 -0.1914989249
C  C126  1  0.59170000  0.36990000  0.51623000  1.0 -0.1914989249
C  C127  1  0.40830000  0.77820000  0.98377000  1.0 -0.1914989249
C  C128  1  0.63010000  0.40830000  0.48377000  1.0 -0.1914989249
C  C129  1  0.22180000  0.63010000  0.98377000  1.0 -0.1914989249
C  C130  1  0.59170000  0.22180000  0.48377000  1.0 -0.1914989249
C  C131  1  0.36990000  0.59170000  0.98377000  1.0 -0.1914989249
C  C132  1  0.77820000  0.36990000  0.48377000  1.0 -0.1914989249
C  C133  1  0.77820000  0.40830000  0.98377000  1.0 -0.1914989249
C  C134  1  0.36990000  0.77820000  0.48377000  1.0 -0.1914989249
C  C135  1  0.59170000  0.36990000  0.98377000  1.0 -0.1914989249
C  C136  1  0.22180000  0.59170000  0.48377000  1.0 -0.1914989249
C  C137  1  0.63010000  0.22180000  0.98377000  1.0 -0.1914989249
C  C138  1  0.40830000  0.63010000  0.48377000  1.0 -0.1914989249
C  C139  1  0.59170000  0.22180000  0.01623000  1.0 -0.1914989249
C  C140  1  0.36990000  0.59170000  0.51623000  1.0 -0.1914989249
C  C141  1  0.77820000  0.36990000  0.01623000  1.0 -0.1914989249
C  C142  1  0.40830000  0.77820000  0.51623000  1.0 -0.1914989249
C  C143  1  0.63010000  0.40830000  0.01623000  1.0 -0.1914989249
C  C144  1  0.22180000  0.63010000  0.51623000  1.0 -0.1914989249
C  C145  1  0.19658000  0.51190000  0.12269000  1.0 -0.1468443798
C  C146  1  0.68468000  0.19658000  0.62269000  1.0 -0.1468443798
C  C147  1  0.48810000  0.68468000  0.12269000  1.0 -0.1468443798
C  C148  1  0.80342000  0.48810000  0.62269000  1.0 -0.1468443798
C  C149  1  0.31532000  0.80342000  0.12269000  1.0 -0.1468443798
C  C150  1  0.51190000  0.31532000  0.62269000  1.0 -0.1468443798
C  C151  1  0.48810000  0.80342000  0.87731000  1.0 -0.1468443798
C  C152  1  0.68468000  0.48810000  0.37731000  1.0 -0.1468443798
C  C153  1  0.19658000  0.68468000  0.87731000  1.0 -0.1468443798
C  C154  1  0.51190000  0.19658000  0.37731000  1.0 -0.1468443798
C  C155  1  0.31532000  0.51190000  0.87731000  1.0 -0.1468443798
C  C156  1  0.80342000  0.31532000  0.37731000  1.0 -0.1468443798
C  C157  1  0.80342000  0.48810000  0.87731000  1.0 -0.1468443798
C  C158  1  0.31532000  0.80342000  0.37731000  1.0 -0.1468443798
C  C159  1  0.51190000  0.31532000  0.87731000  1.0 -0.1468443798
C  C160  1  0.19658000  0.51190000  0.37731000  1.0 -0.1468443798
C  C161  1  0.68468000  0.19658000  0.87731000  1.0 -0.1468443798
C  C162  1  0.48810000  0.68468000  0.37731000  1.0 -0.1468443798
C  C163  1  0.51190000  0.19658000  0.12269000  1.0 -0.1468443798
C  C164  1  0.31532000  0.51190000  0.62269000  1.0 -0.1468443798
C  C165  1  0.80342000  0.31532000  0.12269000  1.0 -0.1468443798
C  C166  1  0.48810000  0.80342000  0.62269000  1.0 -0.1468443798
C  C167  1  0.68468000  0.48810000  0.12269000  1.0 -0.1468443798
C  C168  1  0.19658000  0.68468000  0.62269000  1.0 -0.1468443798
C  C169  1  0.26560000  0.53900000  0.18799000  1.0 0.6050311399
C  C170  1  0.72660000  0.26560000  0.68799000  1.0 0.6050311399
C  C171  1  0.46100000  0.72660000  0.18799000  1.0 0.6050311399
C  C172  1  0.73440000  0.46100000  0.68799000  1.0 0.6050311399
C  C173  1  0.27340000  0.73440000  0.18799000  1.0 0.6050311399
C  C174  1  0.53900000  0.27340000  0.68799000  1.0 0.6050311399
C  C175  1  0.46100000  0.73440000  0.81201000  1.0 0.6050311399
C  C176  1  0.72660000  0.46100000  0.31201000  1.0 0.6050311399
C  C177  1  0.26560000  0.72660000  0.81201000  1.0 0.6050311399
C  C178  1  0.53900000  0.26560000  0.31201000  1.0 0.6050311399
C  C179  1  0.27340000  0.53900000  0.81201000  1.0 0.6050311399
C  C180  1  0.73440000  0.27340000  0.31201000  1.0 0.6050311399
C  C181  1  0.73440000  0.46100000  0.81201000  1.0 0.6050311399
C  C182  1  0.27340000  0.73440000  0.31201000  1.0 0.6050311399
C  C183  1  0.53900000  0.27340000  0.81201000  1.0 0.6050311399
C  C184  1  0.26560000  0.53900000  0.31201000  1.0 0.6050311399
C  C185  1  0.72660000  0.26560000  0.81201000  1.0 0.6050311399
C  C186  1  0.46100000  0.72660000  0.31201000  1.0 0.6050311399
C  C187  1  0.53900000  0.26560000  0.18799000  1.0 0.6050311399
C  C188  1  0.27340000  0.53900000  0.68799000  1.0 0.6050311399
C  C189  1  0.73440000  0.27340000  0.18799000  1.0 0.6050311399
C  C190  1  0.46100000  0.73440000  0.68799000  1.0 0.6050311399
C  C191  1  0.72660000  0.46100000  0.18799000  1.0 0.6050311399
C  C192  1  0.26560000  0.72660000  0.68799000  1.0 0.6050311399
C  C193  1  0.29570000  0.49280000  0.12625000  1.0 -0.1097766908
C  C194  1  0.80290000  0.29570000  0.62625000  1.0 -0.1097766908
C  C195  1  0.50720000  0.80290000  0.12625000  1.0 -0.1097766908
C  C196  1  0.70430000  0.50720000  0.62625000  1.0 -0.1097766908
C  C197  1  0.19710000  0.70430000  0.12625000  1.0 -0.1097766908
C  C198  1  0.49280000  0.19710000  0.62625000  1.0 -0.1097766908
C  C199  1  0.50720000  0.70430000  0.87375000  1.0 -0.1097766908
C  C200  1  0.80290000  0.50720000  0.37375000  1.0 -0.1097766908
C  C201  1  0.29570000  0.80290000  0.87375000  1.0 -0.1097766908
C  C202  1  0.49280000  0.29570000  0.37375000  1.0 -0.1097766908
C  C203  1  0.19710000  0.49280000  0.87375000  1.0 -0.1097766908
C  C204  1  0.70430000  0.19710000  0.37375000  1.0 -0.1097766908
C  C205  1  0.70430000  0.50720000  0.87375000  1.0 -0.1097766908
C  C206  1  0.19710000  0.70430000  0.37375000  1.0 -0.1097766908
C  C207  1  0.49280000  0.19710000  0.87375000  1.0 -0.1097766908
C  C208  1  0.29570000  0.49280000  0.37375000  1.0 -0.1097766908
C  C209  1  0.80290000  0.29570000  0.87375000  1.0 -0.1097766908
C  C210  1  0.50720000  0.80290000  0.37375000  1.0 -0.1097766908
C  C211  1  0.49280000  0.29570000  0.12625000  1.0 -0.1097766908
C  C212  1  0.19710000  0.49280000  0.62625000  1.0 -0.1097766908
C  C213  1  0.70430000  0.19710000  0.12625000  1.0 -0.1097766908
C  C214  1  0.50720000  0.70430000  0.62625000  1.0 -0.1097766908
C  C215  1  0.80290000  0.50720000  0.12625000  1.0 -0.1097766908
C  C216  1  0.29570000  0.80290000  0.62625000  1.0 -0.1097766908
C  C217  1  0.03550000  0.39200000  0.09865000  1.0 -0.183835298
C  C218  1  0.64350000  0.03550000  0.59865000  1.0 -0.183835298
C  C219  1  0.60800000  0.64350000  0.09865000  1.0 -0.183835298
C  C220  1  0.96450000  0.60800000  0.59865000  1.0 -0.183835298
C  C221  1  0.35650000  0.96450000  0.09865000  1.0 -0.183835298
C  C222  1  0.39200000  0.35650000  0.59865000  1.0 -0.183835298
C  C223  1  0.60800000  0.96450000  0.90135000  1.0 -0.183835298
C  C224  1  0.64350000  0.60800000  0.40135000  1.0 -0.183835298
C  C225  1  0.03550000  0.64350000  0.90135000  1.0 -0.183835298
C  C226  1  0.39200000  0.03550000  0.40135000  1.0 -0.183835298
C  C227  1  0.35650000  0.39200000  0.90135000  1.0 -0.183835298
C  C228  1  0.96450000  0.35650000  0.40135000  1.0 -0.183835298
C  C229  1  0.96450000  0.60800000  0.90135000  1.0 -0.183835298
C  C230  1  0.35650000  0.96450000  0.40135000  1.0 -0.183835298
C  C231  1  0.39200000  0.35650000  0.90135000  1.0 -0.183835298
C  C232  1  0.03550000  0.39200000  0.40135000  1.0 -0.183835298
C  C233  1  0.64350000  0.03550000  0.90135000  1.0 -0.183835298
C  C234  1  0.60800000  0.64350000  0.40135000  1.0 -0.183835298
C  C235  1  0.39200000  0.03550000  0.09865000  1.0 -0.183835298
C  C236  1  0.35650000  0.39200000  0.59865000  1.0 -0.183835298
C  C237  1  0.96450000  0.35650000  0.09865000  1.0 -0.183835298
C  C238  1  0.60800000  0.96450000  0.59865000  1.0 -0.183835298
C  C239  1  0.64350000  0.60800000  0.09865000  1.0 -0.183835298
C  C240  1  0.03550000  0.64350000  0.59865000  1.0 -0.183835298
C  C241  1  0.22840000  0.46800000  0.06375000  1.0 -0.1423341454
C  C242  1  0.76040000  0.22840000  0.56375000  1.0 -0.1423341454
C  C243  1  0.53200000  0.76040000  0.06375000  1.0 -0.1423341454
C  C244  1  0.77160000  0.53200000  0.56375000  1.0 -0.1423341454
C  C245  1  0.23960000  0.77160000  0.06375000  1.0 -0.1423341454
C  C246  1  0.46800000  0.23960000  0.56375000  1.0 -0.1423341454
C  C247  1  0.53200000  0.77160000  0.93625000  1.0 -0.1423341454
C  C248  1  0.76040000  0.53200000  0.43625000  1.0 -0.1423341454
C  C249  1  0.22840000  0.76040000  0.93625000  1.0 -0.1423341454
C  C250  1  0.46800000  0.22840000  0.43625000  1.0 -0.1423341454
C  C251  1  0.23960000  0.46800000  0.93625000  1.0 -0.1423341454
C  C252  1  0.77160000  0.23960000  0.43625000  1.0 -0.1423341454
C  C253  1  0.77160000  0.53200000  0.93625000  1.0 -0.1423341454
C  C254  1  0.23960000  0.77160000  0.43625000  1.0 -0.1423341454
C  C255  1  0.46800000  0.23960000  0.93625000  1.0 -0.1423341454
C  C256  1  0.22840000  0.46800000  0.43625000  1.0 -0.1423341454
C  C257  1  0.76040000  0.22840000  0.93625000  1.0 -0.1423341454
C  C258  1  0.53200000  0.76040000  0.43625000  1.0 -0.1423341454
C  C259  1  0.46800000  0.22840000  0.06375000  1.0 -0.1423341454
C  C260  1  0.23960000  0.46800000  0.56375000  1.0 -0.1423341454
C  C261  1  0.77160000  0.23960000  0.06375000  1.0 -0.1423341454
C  C262  1  0.53200000  0.77160000  0.56375000  1.0 -0.1423341454
C  C263  1  0.76040000  0.53200000  0.06375000  1.0 -0.1423341454
C  C264  1  0.22840000  0.76040000  0.56375000  1.0 -0.1423341454
C  C265  1  0.28400000  0.47040000  0.08515000  1.0 -0.0874388034
C  C266  1  0.81360000  0.28400000  0.58515000  1.0 -0.0874388034
C  C267  1  0.52960000  0.81360000  0.08515000  1.0 -0.0874388034
C  C268  1  0.71600000  0.52960000  0.58515000  1.0 -0.0874388034
C  C269  1  0.18640000  0.71600000  0.08515000  1.0 -0.0874388034
C  C270  1  0.47040000  0.18640000  0.58515000  1.0 -0.0874388034
C  C271  1  0.52960000  0.71600000  0.91485000  1.0 -0.0874388034
C  C272  1  0.81360000  0.52960000  0.41485000  1.0 -0.0874388034
C  C273  1  0.28400000  0.81360000  0.91485000  1.0 -0.0874388034
C  C274  1  0.47040000  0.28400000  0.41485000  1.0 -0.0874388034
C  C275  1  0.18640000  0.47040000  0.91485000  1.0 -0.0874388034
C  C276  1  0.71600000  0.18640000  0.41485000  1.0 -0.0874388034
C  C277  1  0.71600000  0.52960000  0.91485000  1.0 -0.0874388034
C  C278  1  0.18640000  0.71600000  0.41485000  1.0 -0.0874388034
C  C279  1  0.47040000  0.18640000  0.91485000  1.0 -0.0874388034
C  C280  1  0.28400000  0.47040000  0.41485000  1.0 -0.0874388034
C  C281  1  0.81360000  0.28400000  0.91485000  1.0 -0.0874388034
C  C282  1  0.52960000  0.81360000  0.41485000  1.0 -0.0874388034
C  C283  1  0.47040000  0.28400000  0.08515000  1.0 -0.0874388034
C  C284  1  0.18640000  0.47040000  0.58515000  1.0 -0.0874388034
C  C285  1  0.71600000  0.18640000  0.08515000  1.0 -0.0874388034
C  C286  1  0.52960000  0.71600000  0.58515000  1.0 -0.0874388034
C  C287  1  0.81360000  0.52960000  0.08515000  1.0 -0.0874388034
C  C288  1  0.28400000  0.81360000  0.58515000  1.0 -0.0874388034
N  N1  1  0.10610000  0.55305000  0.00000000  1.0 -0.3545108564
N  N2  1  0.55305000  0.10610000  0.50000000  1.0 -0.3545108564
N  N3  1  0.44695000  0.55305000  0.00000000  1.0 -0.3545108564
N  N4  1  0.89390000  0.44695000  0.50000000  1.0 -0.3545108564
N  N5  1  0.44695000  0.89390000  0.00000000  1.0 -0.3545108564
N  N6  1  0.55305000  0.44695000  0.50000000  1.0 -0.3545108564
N  N7  1  0.89390000  0.44695000  0.00000000  1.0 -0.3545108564
N  N8  1  0.44695000  0.89390000  0.50000000  1.0 -0.3545108564
N  N9  1  0.55305000  0.44695000  0.00000000  1.0 -0.3545108564
N  N10  1  0.10610000  0.55305000  0.50000000  1.0 -0.3545108564
N  N11  1  0.55305000  0.10610000  0.00000000  1.0 -0.3545108564
N  N12  1  0.44695000  0.55305000  0.50000000  1.0 -0.3545108564
N  N13  1  0.00000000  0.44110000  0.04830000  1.0 -0.3718251216
N  N14  1  0.55890000  0.00000000  0.54830000  1.0 -0.3718251216
N  N15  1  0.55890000  0.55890000  0.04830000  1.0 -0.3718251216
N  N16  1  0.00000000  0.55890000  0.54830000  1.0 -0.3718251216
N  N17  1  0.44110000  0.00000000  0.04830000  1.0 -0.3718251216
N  N18  1  0.44110000  0.44110000  0.54830000  1.0 -0.3718251216
N  N19  1  0.55890000  0.00000000  0.95170000  1.0 -0.3718251216
N  N20  1  0.55890000  0.55890000  0.45170000  1.0 -0.3718251216
N  N21  1  0.00000000  0.55890000  0.95170000  1.0 -0.3718251216
N  N22  1  0.44110000  0.00000000  0.45170000  1.0 -0.3718251216
N  N23  1  0.44110000  0.44110000  0.95170000  1.0 -0.3718251216
N  N24  1  0.00000000  0.44110000  0.45170000  1.0 -0.3718251216
O  O1  1  0.33333333  0.66666667  0.25000000  1.0 -0.917883687
O  O2  1  0.66666667  0.33333333  0.75000000  1.0 -0.917883687
O  O3  1  0.33333333  0.66666667  0.75000000  1.0 -0.917883687
O  O4  1  0.66666667  0.33333333  0.25000000  1.0 -0.917883687
O  O5  1  0.32048000  0.54720000  0.20508000  1.0 -0.5349506664
O  O6  1  0.77328000  0.32048000  0.70508000  1.0 -0.5349506664
O  O7  1  0.45280000  0.77328000  0.20508000  1.0 -0.5349506664
O  O8  1  0.67952000  0.45280000  0.70508000  1.0 -0.5349506664
O  O9  1  0.22672000  0.67952000  0.20508000  1.0 -0.5349506664
O  O10  1  0.54720000  0.22672000  0.70508000  1.0 -0.5349506664
O  O11  1  0.45280000  0.67952000  0.79492000  1.0 -0.5349506664
O  O12  1  0.77328000  0.45280000  0.29492000  1.0 -0.5349506664
O  O13  1  0.32048000  0.77328000  0.79492000  1.0 -0.5349506664
O  O14  1  0.54720000  0.32048000  0.29492000  1.0 -0.5349506664
O  O15  1  0.22672000  0.54720000  0.79492000  1.0 -0.5349506664
O  O16  1  0.67952000  0.22672000  0.29492000  1.0 -0.5349506664
O  O17  1  0.67952000  0.45280000  0.79492000  1.0 -0.5349506664
O  O18  1  0.22672000  0.67952000  0.29492000  1.0 -0.5349506664
O  O19  1  0.54720000  0.22672000  0.79492000  1.0 -0.5349506664
O  O20  1  0.32048000  0.54720000  0.29492000  1.0 -0.5349506664
O  O21  1  0.77328000  0.32048000  0.79492000  1.0 -0.5349506664
O  O22  1  0.45280000  0.77328000  0.29492000  1.0 -0.5349506664
O  O23  1  0.54720000  0.32048000  0.20508000  1.0 -0.5349506664
O  O24  1  0.22672000  0.54720000  0.70508000  1.0 -0.5349506664
O  O25  1  0.67952000  0.22672000  0.20508000  1.0 -0.5349506664
O  O26  1  0.45280000  0.67952000  0.70508000  1.0 -0.5349506664
O  O27  1  0.77328000  0.45280000  0.20508000  1.0 -0.5349506664
O  O28  1  0.32048000  0.77328000  0.70508000  1.0 -0.5349506664
O  O29  1  0.22106000  0.55235000  0.20467000  1.0 -0.552873485
O  O30  1  0.66871000  0.22106000  0.70467000  1.0 -0.552873485
O  O31  1  0.44765000  0.66871000  0.20467000  1.0 -0.552873485
O  O32  1  0.77894000  0.44765000  0.70467000  1.0 -0.552873485
O  O33  1  0.33129000  0.77894000  0.20467000  1.0 -0.552873485
O  O34  1  0.55235000  0.33129000  0.70467000  1.0 -0.552873485
O  O35  1  0.44765000  0.77894000  0.79533000  1.0 -0.552873485
O  O36  1  0.66871000  0.44765000  0.29533000  1.0 -0.552873485
O  O37  1  0.22106000  0.66871000  0.79533000  1.0 -0.552873485
O  O38  1  0.55235000  0.22106000  0.29533000  1.0 -0.552873485
O  O39  1  0.33129000  0.55235000  0.79533000  1.0 -0.552873485
O  O40  1  0.77894000  0.33129000  0.29533000  1.0 -0.552873485
O  O41  1  0.77894000  0.44765000  0.79533000  1.0 -0.552873485
O  O42  1  0.33129000  0.77894000  0.29533000  1.0 -0.552873485
O  O43  1  0.55235000  0.33129000  0.79533000  1.0 -0.552873485
O  O44  1  0.22106000  0.55235000  0.29533000  1.0 -0.552873485
O  O45  1  0.66871000  0.22106000  0.79533000  1.0 -0.552873485
O  O46  1  0.44765000  0.66871000  0.29533000  1.0 -0.552873485
O  O47  1  0.55235000  0.22106000  0.20467000  1.0 -0.552873485
O  O48  1  0.33129000  0.55235000  0.70467000  1.0 -0.552873485
O  O49  1  0.77894000  0.33129000  0.20467000  1.0 -0.552873485
O  O50  1  0.44765000  0.77894000  0.70467000  1.0 -0.552873485
O  O51  1  0.66871000  0.44765000  0.20467000  1.0 -0.552873485
O  O52  1  0.22106000  0.66871000  0.70467000  1.0 -0.552873485
