# DDEC6 charges by PACMAN v1.1 (https://github.com/mtap-research/PACMAN-charge/)
data_PIMGEB_ASR_pacman
_symmetry_space_group_name_H-M   'P 1'
_cell_length_a   14.36580000
_cell_length_b   20.06440000
_cell_length_c   15.13920000
_cell_angle_alpha   90.00000000
_cell_angle_beta   100.62200000
_cell_angle_gamma   90.00000000
_symmetry_Int_Tables_number   1
_chemical_formula_structural   CdH26C38(NO)4
_chemical_formula_sum   'Cd4 H104 C152 N16 O16'
_cell_volume   4288.96628636
_cell_formula_units_Z   4
loop_
 _symmetry_equiv_pos_site_id
 _symmetry_equiv_pos_as_xyz
  1  'x, y, z'
loop_
 _atom_site_type_symbol
 _atom_site_label
 _atom_site_symmetry_multiplicity
 _atom_site_fract_x
 _atom_site_fract_y
 _atom_site_fract_z
 _atom_site_occupancy
 _atom_site_charge
Cd  Cd1  1  0.94962000  0.82053000  0.12259000  1.0 0.8304876035
Cd  Cd2  1  0.05038000  0.82053000  0.37741000  1.0 0.8304876035
Cd  Cd3  1  0.05038000  0.17947000  0.87741000  1.0 0.8304876035
Cd  Cd4  1  0.94962000  0.17947000  0.62259000  1.0 0.8304876035
H  H1  1  0.26000000  0.80290000  0.32250000  1.0 0.1286865485
H  H2  1  0.74000000  0.80290000  0.17750000  1.0 0.1286865485
H  H3  1  0.42250000  0.80070000  0.35760000  1.0 0.108346973
H  H4  1  0.57750000  0.80070000  0.14240000  1.0 0.108346973
H  H5  1  0.43780000  0.84360000  0.10770000  1.0 0.108346973
H  H6  1  0.56220000  0.84360000  0.39230000  1.0 0.108346973
H  H7  1  0.27490000  0.84320000  0.07050000  1.0 0.1205923553
H  H8  1  0.72510000  0.84320000  0.42950000  1.0 0.1205923553
H  H9  1  0.63480000  0.84890000  0.69910000  1.0 0.1014586431
H  H10  1  0.36520000  0.84890000  0.80090000  1.0 0.1014586431
H  H11  1  0.77160000  0.84370000  0.80180000  1.0 0.1205923553
H  H12  1  0.22840000  0.84370000  0.69820000  1.0 0.1205923553
H  H13  1  0.62520000  0.81250000  0.99400000  1.0 0.1205923553
H  H14  1  0.37480000  0.81250000  0.50600000  1.0 0.1205923553
H  H15  1  0.48800000  0.82050000  0.89270000  1.0 0.108346973
H  H16  1  0.51200000  0.82050000  0.60730000  1.0 0.108346973
H  H17  1  0.82070000  0.69770000  0.13820000  1.0 0.108346973
H  H18  1  0.17930000  0.69770000  0.36180000  1.0 0.108346973
H  H19  1  0.81090000  0.58330000  0.14060000  1.0 0.1394233576
H  H20  1  0.18910000  0.58330000  0.35940000  1.0 0.1394233576
H  H21  1  0.07130000  0.57340000  0.11010000  1.0 0.1286865485
H  H22  1  0.92870000  0.57340000  0.38990000  1.0 0.1286865485
H  H23  1  0.07640000  0.68810000  0.11000000  1.0 0.0900380591
H  H24  1  0.92360000  0.68810000  0.39000000  1.0 0.0900380591
H  H25  1  0.99520000  0.46920000  0.11990000  1.0 0.0900380591
H  H26  1  0.00480000  0.46920000  0.38010000  1.0 0.0900380591
H  H27  1  0.81490000  0.94160000  0.15910000  1.0 0.108346973
H  H28  1  0.18510000  0.94160000  0.34090000  1.0 0.108346973
H  H29  1  0.80060000  0.05490000  0.15770000  1.0 0.1286865485
H  H30  1  0.19940000  0.05490000  0.34230000  1.0 0.1286865485
H  H31  1  0.06020000  0.06670000  0.10420000  1.0 0.1394233576
H  H32  1  0.93980000  0.06670000  0.39580000  1.0 0.1394233576
H  H33  1  0.06750000  0.95430000  0.10650000  1.0 0.108346973
H  H34  1  0.93250000  0.95430000  0.39350000  1.0 0.108346973
H  H35  1  0.97640000  0.17000000  0.11490000  1.0 0.1014586431
H  H36  1  0.02360000  0.17000000  0.38510000  1.0 0.1014586431
H  H37  1  0.83600000  0.26580000  0.28290000  1.0 0.1014586431
H  H38  1  0.16400000  0.26580000  0.21710000  1.0 0.1014586431
H  H39  1  0.83820000  0.38140000  0.27940000  1.0 0.1014586431
H  H40  1  0.16180000  0.38140000  0.22060000  1.0 0.1014586431
H  H41  1  0.91500000  0.37580000  0.03740000  1.0 0.1014586431
H  H42  1  0.08500000  0.37580000  0.46260000  1.0 0.1014586431
H  H43  1  0.91270000  0.26020000  0.04090000  1.0 0.1286865485
H  H44  1  0.08730000  0.26020000  0.45910000  1.0 0.1286865485
H  H45  1  0.72040000  0.26690000  0.10220000  1.0 0.108346973
H  H46  1  0.27960000  0.26690000  0.39780000  1.0 0.108346973
H  H47  1  0.72760000  0.38220000  0.09430000  1.0 0.108346973
H  H48  1  0.27240000  0.38220000  0.40570000  1.0 0.108346973
H  H49  1  0.01180000  0.37390000  0.15360000  1.0 0.0900380591
H  H50  1  0.98820000  0.37390000  0.34640000  1.0 0.0900380591
H  H51  1  0.00460000  0.25860000  0.16140000  1.0 0.108346973
H  H52  1  0.99540000  0.25860000  0.33860000  1.0 0.108346973
H  H53  1  0.74000000  0.19710000  0.67750000  1.0 0.1286865485
H  H54  1  0.26000000  0.19710000  0.82250000  1.0 0.1286865485
H  H55  1  0.57750000  0.19930000  0.64240000  1.0 0.108346973
H  H56  1  0.42250000  0.19930000  0.85760000  1.0 0.108346973
H  H57  1  0.56220000  0.15640000  0.89230000  1.0 0.108346973
H  H58  1  0.43780000  0.15640000  0.60770000  1.0 0.108346973
H  H59  1  0.72510000  0.15680000  0.92950000  1.0 0.1205923553
H  H60  1  0.27490000  0.15680000  0.57050000  1.0 0.1205923553
H  H61  1  0.36520000  0.15110000  0.30090000  1.0 0.1014586431
H  H62  1  0.63480000  0.15110000  0.19910000  1.0 0.1014586431
H  H63  1  0.22840000  0.15630000  0.19820000  1.0 0.1205923553
H  H64  1  0.77160000  0.15630000  0.30180000  1.0 0.1205923553
H  H65  1  0.37480000  0.18750000  0.00600000  1.0 0.1205923553
H  H66  1  0.62520000  0.18750000  0.49400000  1.0 0.1205923553
H  H67  1  0.51200000  0.17950000  0.10730000  1.0 0.108346973
H  H68  1  0.48800000  0.17950000  0.39270000  1.0 0.108346973
H  H69  1  0.17930000  0.30230000  0.86180000  1.0 0.108346973
H  H70  1  0.82070000  0.30230000  0.63820000  1.0 0.108346973
H  H71  1  0.18910000  0.41670000  0.85940000  1.0 0.1394233576
H  H72  1  0.81090000  0.41670000  0.64060000  1.0 0.1394233576
H  H73  1  0.92870000  0.42660000  0.88990000  1.0 0.1286865485
H  H74  1  0.07130000  0.42660000  0.61010000  1.0 0.1286865485
H  H75  1  0.92360000  0.31190000  0.89000000  1.0 0.0900380591
H  H76  1  0.07640000  0.31190000  0.61000000  1.0 0.0900380591
H  H77  1  0.00480000  0.53080000  0.88010000  1.0 0.0900380591
H  H78  1  0.99520000  0.53080000  0.61990000  1.0 0.0900380591
H  H79  1  0.18510000  0.05840000  0.84090000  1.0 0.108346973
H  H80  1  0.81490000  0.05840000  0.65910000  1.0 0.108346973
H  H81  1  0.19940000  0.94510000  0.84230000  1.0 0.1286865485
H  H82  1  0.80060000  0.94510000  0.65770000  1.0 0.1286865485
H  H83  1  0.93980000  0.93330000  0.89580000  1.0 0.1394233576
H  H84  1  0.06020000  0.93330000  0.60420000  1.0 0.1394233576
H  H85  1  0.93250000  0.04570000  0.89350000  1.0 0.108346973
H  H86  1  0.06750000  0.04570000  0.60650000  1.0 0.108346973
H  H87  1  0.02360000  0.83000000  0.88510000  1.0 0.1014586431
H  H88  1  0.97640000  0.83000000  0.61490000  1.0 0.1014586431
H  H89  1  0.16400000  0.73420000  0.71710000  1.0 0.1014586431
H  H90  1  0.83600000  0.73420000  0.78290000  1.0 0.1014586431
H  H91  1  0.16180000  0.61860000  0.72060000  1.0 0.1014586431
H  H92  1  0.83820000  0.61860000  0.77940000  1.0 0.1014586431
H  H93  1  0.08500000  0.62420000  0.96260000  1.0 0.1014586431
H  H94  1  0.91500000  0.62420000  0.53740000  1.0 0.1014586431
H  H95  1  0.08730000  0.73980000  0.95910000  1.0 0.1286865485
H  H96  1  0.91270000  0.73980000  0.54090000  1.0 0.1286865485
H  H97  1  0.27960000  0.73310000  0.89780000  1.0 0.108346973
H  H98  1  0.72040000  0.73310000  0.60220000  1.0 0.108346973
H  H99  1  0.27240000  0.61780000  0.90570000  1.0 0.108346973
H  H100  1  0.72760000  0.61780000  0.59430000  1.0 0.108346973
H  H101  1  0.98820000  0.62610000  0.84640000  1.0 0.0900380591
H  H102  1  0.01180000  0.62610000  0.65360000  1.0 0.0900380591
H  H103  1  0.99540000  0.74140000  0.83860000  1.0 0.108346973
H  H104  1  0.00460000  0.74140000  0.66140000  1.0 0.108346973
C  C1  1  0.14330000  0.82050000  0.16910000  1.0 0.5335644579
C  C2  1  0.85670000  0.82050000  0.33090000  1.0 0.5335644579
C  C3  1  0.24920000  0.82090000  0.19270000  1.0 -0.0290926842
C  C4  1  0.75080000  0.82090000  0.30730000  1.0 -0.0290926842
C  C5  1  0.29490000  0.81020000  0.27740000  1.0 -0.1144585142
C  C6  1  0.70510000  0.81020000  0.22260000  1.0 -0.1144585142
C  C7  1  0.39340000  0.80970000  0.29870000  1.0 -0.1433544809
C  C8  1  0.60660000  0.80970000  0.20130000  1.0 -0.1433544809
C  C9  1  0.44770000  0.82180000  0.23790000  1.0 0.0731037379
C  C10  1  0.55230000  0.82180000  0.26210000  1.0 0.0731037379
C  C11  1  0.40230000  0.83450000  0.15180000  1.0 -0.1576822305
C  C12  1  0.59770000  0.83450000  0.34820000  1.0 -0.1576822305
C  C13  1  0.30400000  0.83420000  0.12940000  1.0 -0.1170202249
C  C14  1  0.69600000  0.83420000  0.37060000  1.0 -0.1170202249
C  C15  1  0.54340000  0.83330000  0.78310000  1.0 0.0731037379
C  C16  1  0.45660000  0.83330000  0.71690000  1.0 0.0731037379
C  C17  1  0.63170000  0.84130000  0.75910000  1.0 -0.1494961752
C  C18  1  0.36830000  0.84130000  0.74090000  1.0 -0.1494961752
C  C19  1  0.71410000  0.83850000  0.82100000  1.0 -0.1170202249
C  C20  1  0.28590000  0.83850000  0.67900000  1.0 -0.1144585142
C  C21  1  0.71410000  0.82820000  0.90950000  1.0 -0.0211244824
C  C22  1  0.28590000  0.82820000  0.59050000  1.0 -0.0211244824
C  C23  1  0.62780000  0.82050000  0.93400000  1.0 -0.1170202249
C  C24  1  0.37220000  0.82050000  0.56600000  1.0 -0.1170202249
C  C25  1  0.54510000  0.82430000  0.87260000  1.0 -0.1494961752
C  C26  1  0.45490000  0.82430000  0.62740000  1.0 -0.1494961752
C  C27  1  0.80260000  0.82450000  0.97850000  1.0 0.5335644579
C  C28  1  0.19740000  0.82450000  0.52150000  1.0 0.5335644579
C  C29  1  0.87380000  0.67290000  0.13180000  1.0 0.1014586431
C  C30  1  0.12620000  0.67290000  0.36820000  1.0 0.1014586431
C  C31  1  0.86760000  0.60320000  0.13380000  1.0 -0.2207136601
C  C32  1  0.13240000  0.60320000  0.36620000  1.0 -0.2207136601
C  C33  1  0.94120000  0.56520000  0.12620000  1.0 0.0900380591
C  C34  1  0.05880000  0.56520000  0.37380000  1.0 0.0900380591
C  C35  1  0.01750000  0.59730000  0.11650000  1.0 -0.2284961657
C  C36  1  0.98250000  0.59730000  0.38350000  1.0 -0.2284961657
C  C37  1  0.02000000  0.66720000  0.11550000  1.0 0.0509698486
C  C38  1  0.98000000  0.66720000  0.38450000  1.0 0.0509698486
C  C39  1  0.94120000  0.49160000  0.12920000  1.0 -0.0211244824
C  C40  1  0.05880000  0.49160000  0.37080000  1.0 -0.0211244824
C  C41  1  0.86540000  0.96710000  0.14770000  1.0 0.0612568839
C  C42  1  0.13460000  0.96710000  0.35230000  1.0 0.0612568839
C  C43  1  0.85650000  0.03550000  0.14730000  1.0 -0.1801287064
C  C44  1  0.14350000  0.03550000  0.35270000  1.0 -0.1801287064
C  C45  1  0.92970000  0.07520000  0.13180000  1.0 0.108346973
C  C46  1  0.07030000  0.07520000  0.36820000  1.0 0.108346973
C  C47  1  0.00870000  0.04240000  0.11590000  1.0 -0.1860720737
C  C48  1  0.99130000  0.04240000  0.38410000  1.0 -0.1860720737
C  C49  1  0.01250000  0.97460000  0.11710000  1.0 0.0612568839
C  C50  1  0.98750000  0.97460000  0.38290000  1.0 0.0612568839
C  C51  1  0.92590000  0.14730000  0.13160000  1.0 0.0065309229
C  C52  1  0.07410000  0.14730000  0.36840000  1.0 0.0065309229
C  C53  1  0.87410000  0.25150000  0.16220000  1.0 0.0791192299
C  C54  1  0.12590000  0.25150000  0.33780000  1.0 0.0791192299
C  C55  1  0.85180000  0.28790000  0.23370000  1.0 -0.1860720737
C  C56  1  0.14820000  0.28790000  0.26630000  1.0 -0.1860720737
C  C57  1  0.85310000  0.35710000  0.23160000  1.0 -0.2207136601
C  C58  1  0.14690000  0.35710000  0.26840000  1.0 -0.2207136601
C  C59  1  0.87680000  0.39000000  0.15810000  1.0 0.1014586431
C  C60  1  0.12320000  0.39000000  0.34190000  1.0 0.1014586431
C  C61  1  0.89910000  0.35370000  0.08660000  1.0 -0.0474037563
C  C62  1  0.10090000  0.35370000  0.41340000  1.0 -0.0474037563
C  C63  1  0.89780000  0.28450000  0.08870000  1.0 -0.0211244824
C  C64  1  0.10220000  0.28450000  0.41130000  1.0 -0.0211244824
C  C65  1  0.86180000  0.25130000  0.13260000  1.0 0.0900380591
C  C66  1  0.13820000  0.25130000  0.36740000  1.0 0.0900380591
C  C67  1  0.77880000  0.28830000  0.11250000  1.0 -0.1262218838
C  C68  1  0.22120000  0.28830000  0.38750000  1.0 -0.1262218838
C  C69  1  0.78310000  0.35740000  0.10780000  1.0 -0.1170202249
C  C70  1  0.21690000  0.35740000  0.39220000  1.0 -0.1170202249
C  C71  1  0.87040000  0.38950000  0.12320000  1.0 0.0791192299
C  C72  1  0.12960000  0.38950000  0.37680000  1.0 0.0791192299
C  C73  1  0.95340000  0.35240000  0.14330000  1.0 -0.0988196002
C  C74  1  0.04660000  0.35240000  0.35670000  1.0 -0.0988196002
C  C75  1  0.94910000  0.28340000  0.14800000  1.0 -0.0874209011
C  C76  1  0.05090000  0.28340000  0.35200000  1.0 -0.0874209011
C  C77  1  0.85670000  0.17950000  0.83090000  1.0 0.5335644579
C  C78  1  0.14330000  0.17950000  0.66910000  1.0 0.5335644579
C  C79  1  0.75080000  0.17910000  0.80730000  1.0 -0.0290926842
C  C80  1  0.24920000  0.17910000  0.69270000  1.0 -0.0290926842
C  C81  1  0.70510000  0.18980000  0.72260000  1.0 -0.1144585142
C  C82  1  0.29490000  0.18980000  0.77740000  1.0 -0.1144585142
C  C83  1  0.60660000  0.19030000  0.70130000  1.0 -0.1433544809
C  C84  1  0.39340000  0.19030000  0.79870000  1.0 -0.1433544809
C  C85  1  0.55230000  0.17820000  0.76210000  1.0 0.0791192299
C  C86  1  0.44770000  0.17820000  0.73790000  1.0 0.0791192299
C  C87  1  0.59770000  0.16550000  0.84820000  1.0 -0.1576822305
C  C88  1  0.40230000  0.16550000  0.65180000  1.0 -0.1576822305
C  C89  1  0.69600000  0.16580000  0.87060000  1.0 -0.1170202249
C  C90  1  0.30400000  0.16580000  0.62940000  1.0 -0.1170202249
C  C91  1  0.45660000  0.16670000  0.21690000  1.0 0.0731037379
C  C92  1  0.54340000  0.16670000  0.28310000  1.0 0.0731037379
C  C93  1  0.36830000  0.15870000  0.24090000  1.0 -0.1494961752
C  C94  1  0.63170000  0.15870000  0.25910000  1.0 -0.1494961752
C  C95  1  0.28590000  0.16150000  0.17900000  1.0 -0.1144585142
C  C96  1  0.71410000  0.16150000  0.32100000  1.0 -0.1170202249
C  C97  1  0.28590000  0.17180000  0.09050000  1.0 -0.0211244824
C  C98  1  0.71410000  0.17180000  0.40950000  1.0 -0.0211244824
C  C99  1  0.37220000  0.17950000  0.06600000  1.0 -0.1170202249
C  C100  1  0.62780000  0.17950000  0.43400000  1.0 -0.1170202249
C  C101  1  0.45490000  0.17570000  0.12740000  1.0 -0.1494961752
C  C102  1  0.54510000  0.17570000  0.37260000  1.0 -0.1494961752
C  C103  1  0.19740000  0.17550000  0.02150000  1.0 0.5335644579
C  C104  1  0.80260000  0.17550000  0.47850000  1.0 0.5335644579
C  C105  1  0.12620000  0.32710000  0.86820000  1.0 0.1014586431
C  C106  1  0.87380000  0.32710000  0.63180000  1.0 0.1014586431
C  C107  1  0.13240000  0.39680000  0.86620000  1.0 -0.2108662838
C  C108  1  0.86760000  0.39680000  0.63380000  1.0 -0.2207136601
C  C109  1  0.05880000  0.43480000  0.87380000  1.0 0.0900380591
C  C110  1  0.94120000  0.43480000  0.62620000  1.0 0.0900380591
C  C111  1  0.98250000  0.40270000  0.88350000  1.0 -0.2284961657
C  C112  1  0.01750000  0.40270000  0.61650000  1.0 -0.2284961657
C  C113  1  0.98000000  0.33280000  0.88450000  1.0 0.0509698486
C  C114  1  0.02000000  0.33280000  0.61550000  1.0 0.0509698486
C  C115  1  0.05880000  0.50840000  0.87080000  1.0 -0.0211244824
C  C116  1  0.94120000  0.50840000  0.62920000  1.0 -0.0211244824
C  C117  1  0.13460000  0.03290000  0.85230000  1.0 0.0612568839
C  C118  1  0.86540000  0.03290000  0.64770000  1.0 0.0612568839
C  C119  1  0.14350000  0.96450000  0.85270000  1.0 -0.1801287064
C  C120  1  0.85650000  0.96450000  0.64730000  1.0 -0.1801287064
C  C121  1  0.07030000  0.92480000  0.86820000  1.0 0.108346973
C  C122  1  0.92970000  0.92480000  0.63180000  1.0 0.108346973
C  C123  1  0.99130000  0.95760000  0.88410000  1.0 -0.1860720737
C  C124  1  0.00870000  0.95760000  0.61590000  1.0 -0.1860720737
C  C125  1  0.98750000  0.02540000  0.88290000  1.0 0.0612568839
C  C126  1  0.01250000  0.02540000  0.61710000  1.0 0.0612568839
C  C127  1  0.07410000  0.85270000  0.86840000  1.0 0.0065309229
C  C128  1  0.92590000  0.85270000  0.63160000  1.0 0.0065309229
C  C129  1  0.12590000  0.74850000  0.83780000  1.0 0.0791192299
C  C130  1  0.87410000  0.74850000  0.66220000  1.0 0.0791192299
C  C131  1  0.14820000  0.71210000  0.76630000  1.0 -0.1860720737
C  C132  1  0.85180000  0.71210000  0.73370000  1.0 -0.1860720737
C  C133  1  0.14690000  0.64290000  0.76840000  1.0 -0.2207136601
C  C134  1  0.85310000  0.64290000  0.73160000  1.0 -0.2207136601
C  C135  1  0.12320000  0.61000000  0.84190000  1.0 0.1014586431
C  C136  1  0.87680000  0.61000000  0.65810000  1.0 0.1014586431
C  C137  1  0.10090000  0.64630000  0.91340000  1.0 -0.0474037563
C  C138  1  0.89910000  0.64630000  0.58660000  1.0 -0.0474037563
C  C139  1  0.10220000  0.71550000  0.91130000  1.0 -0.0211244824
C  C140  1  0.89780000  0.71550000  0.58870000  1.0 -0.0211244824
C  C141  1  0.13820000  0.74870000  0.86740000  1.0 0.0900380591
C  C142  1  0.86180000  0.74870000  0.63260000  1.0 0.0900380591
C  C143  1  0.22120000  0.71170000  0.88750000  1.0 -0.1262218838
C  C144  1  0.77880000  0.71170000  0.61250000  1.0 -0.1262218838
C  C145  1  0.21690000  0.64260000  0.89220000  1.0 -0.1170202249
C  C146  1  0.78310000  0.64260000  0.60780000  1.0 -0.1170202249
C  C147  1  0.12960000  0.61050000  0.87680000  1.0 0.0791192299
C  C148  1  0.87040000  0.61050000  0.62320000  1.0 0.0791192299
C  C149  1  0.04660000  0.64760000  0.85670000  1.0 -0.0988196002
C  C150  1  0.95340000  0.64760000  0.64330000  1.0 -0.0988196002
C  C151  1  0.05090000  0.71660000  0.85200000  1.0 -0.0874209011
C  C152  1  0.94910000  0.71660000  0.64800000  1.0 -0.0874209011
N  N1  1  0.94800000  0.70370000  0.12180000  1.0 -0.2207136601
N  N2  1  0.05200000  0.70370000  0.37820000  1.0 -0.2207136601
N  N3  1  0.94260000  0.93566000  0.13250000  1.0 -0.2284961657
N  N4  1  0.05740000  0.93566000  0.36750000  1.0 -0.2284961657
N  N5  1  0.86140000  0.18100000  0.15180000  1.0 -0.2108662838
N  N6  1  0.13860000  0.18100000  0.34820000  1.0 -0.2108662838
N  N7  1  0.87900000  0.46130000  0.14230000  1.0 -0.0988196002
N  N8  1  0.12100000  0.46130000  0.35770000  1.0 -0.0988196002
N  N9  1  0.05200000  0.29630000  0.87820000  1.0 -0.2207136601
N  N10  1  0.94800000  0.29630000  0.62180000  1.0 -0.2207136601
N  N11  1  0.05740000  0.06434000  0.86750000  1.0 -0.2284961657
N  N12  1  0.94260000  0.06434000  0.63250000  1.0 -0.2284961657
N  N13  1  0.13860000  0.81900000  0.84820000  1.0 -0.2108662838
N  N14  1  0.86140000  0.81900000  0.65180000  1.0 -0.2108662838
N  N15  1  0.12100000  0.53870000  0.85770000  1.0 -0.0988196002
N  N16  1  0.87900000  0.53870000  0.64230000  1.0 -0.0988196002
O  O1  1  0.10348000  0.82562000  0.08890000  1.0 -0.5363971049
O  O2  1  0.89652000  0.82562000  0.41110000  1.0 -0.5363971049
O  O3  1  0.09629000  0.81532000  0.23060000  1.0 -0.5558468753
O  O4  1  0.90371000  0.81532000  0.26940000  1.0 -0.5558468753
O  O5  1  0.88190000  0.82799000  0.95580000  1.0 -0.546714639
O  O6  1  0.11810000  0.82799000  0.54420000  1.0 -0.546714639
O  O7  1  0.79440000  0.81882000  0.05850000  1.0 -0.5331165248
O  O8  1  0.20560000  0.81882000  0.44150000  1.0 -0.5331165248
O  O9  1  0.89652000  0.17438000  0.91110000  1.0 -0.5363971049
O  O10  1  0.10348000  0.17438000  0.58890000  1.0 -0.5363971049
O  O11  1  0.90371000  0.18468000  0.76940000  1.0 -0.5558468753
O  O12  1  0.09629000  0.18468000  0.73060000  1.0 -0.5558468753
O  O13  1  0.11810000  0.17201000  0.04420000  1.0 -0.546714639
O  O14  1  0.88190000  0.17201000  0.45580000  1.0 -0.546714639
O  O15  1  0.20560000  0.18118000  0.94150000  1.0 -0.5331165248
O  O16  1  0.79440000  0.18118000  0.55850000  1.0 -0.5331165248
