# DDEC6 charges by PACMAN v1.1 (https://github.com/mtap-research/PACMAN-charge/)
data_PIMKIJ_FSR_pacman
_symmetry_space_group_name_H-M   'P 1'
_cell_length_a   18.06240000
_cell_length_b   6.23320000
_cell_length_c   20.99010000
_cell_angle_alpha   90.00000000
_cell_angle_beta   125.27600000
_cell_angle_gamma   90.00000000
_symmetry_Int_Tables_number   1
_chemical_formula_structural   CdH22C18(SO3)2
_chemical_formula_sum   'Cd4 H88 C72 S8 O24'
_cell_volume   1929.27063349
_cell_formula_units_Z   4
loop_
 _symmetry_equiv_pos_site_id
 _symmetry_equiv_pos_as_xyz
  1  'x, y, z'
loop_
 _atom_site_type_symbol
 _atom_site_label
 _atom_site_symmetry_multiplicity
 _atom_site_fract_x
 _atom_site_fract_y
 _atom_site_fract_z
 _atom_site_occupancy
 _atom_site_charge
Cd  Cd1  1  0.55374000  0.85614000  0.95083000  1.0 0.9722753737
Cd  Cd2  1  0.44626000  0.35614000  0.54917000  1.0 0.9722753737
Cd  Cd3  1  0.44626000  0.14386000  0.04917000  1.0 0.9722753737
Cd  Cd4  1  0.55374000  0.64386000  0.45083000  1.0 0.9722753737
H  H1  1  0.87460000  0.78760000  0.09570000  1.0 0.1188999377
H  H2  1  0.12540000  0.28760000  0.40430000  1.0 0.1188999377
H  H3  1  0.12540000  0.21240000  0.90430000  1.0 0.1188999377
H  H4  1  0.87460000  0.71240000  0.59570000  1.0 0.1188999377
H  H5  1  0.02420000  0.88640000  0.17160000  1.0 0.1188999377
H  H6  1  0.97580000  0.38640000  0.32840000  1.0 0.1188999377
H  H7  1  0.97580000  0.11360000  0.82840000  1.0 0.1188999377
H  H8  1  0.02420000  0.61360000  0.67160000  1.0 0.1188999377
H  H9  1  0.95110000  0.49900000  0.15150000  1.0 0.1110283188
H  H10  1  0.04890000  0.99900000  0.34850000  1.0 0.1110283188
H  H11  1  0.04890000  0.50100000  0.84850000  1.0 0.1110283188
H  H12  1  0.95110000  0.00100000  0.65150000  1.0 0.1110283188
H  H13  1  0.80120000  0.39920000  0.07500000  1.0 0.1290871028
H  H14  1  0.19880000  0.89920000  0.42500000  1.0 0.1290871028
H  H15  1  0.19880000  0.60080000  0.92500000  1.0 0.1290871028
H  H16  1  0.80120000  0.10080000  0.57500000  1.0 0.1290871028
H  H17  1  0.23450000  0.67440000  0.25620000  1.0 0.1188999377
H  H18  1  0.76550000  0.17440000  0.24380000  1.0 0.1188999377
H  H19  1  0.76550000  0.32560000  0.74380000  1.0 0.1188999377
H  H20  1  0.23450000  0.82560000  0.75620000  1.0 0.1188999377
H  H21  1  0.08670000  0.56490000  0.17520000  1.0 0.1188999377
H  H22  1  0.91330000  0.06490000  0.32480000  1.0 0.1188999377
H  H23  1  0.91330000  0.43510000  0.82480000  1.0 0.1188999377
H  H24  1  0.08670000  0.93510000  0.67520000  1.0 0.1188999377
H  H25  1  0.15350000  0.99370000  0.28080000  1.0 0.1110283188
H  H26  1  0.84650000  0.49370000  0.21920000  1.0 0.1110283188
H  H27  1  0.84650000  0.00630000  0.71920000  1.0 0.1110283188
H  H28  1  0.15350000  0.50630000  0.78080000  1.0 0.1110283188
H  H29  1  0.30100000  0.10110000  0.36280000  1.0 0.1188999377
H  H30  1  0.69900000  0.60110000  0.13720000  1.0 0.1188999377
H  H31  1  0.69900000  0.89890000  0.63720000  1.0 0.1188999377
H  H32  1  0.30100000  0.39890000  0.86280000  1.0 0.1188999377
H  H33  1  0.61180000  0.53260000  0.80090000  1.0 0.1110283188
H  H34  1  0.38820000  0.03260000  0.69910000  1.0 0.1110283188
H  H35  1  0.38820000  0.46740000  0.19910000  1.0 0.1110283188
H  H36  1  0.61180000  0.96740000  0.30090000  1.0 0.1110283188
H  H37  1  0.71320000  0.59830000  0.84000000  1.0 0.1110283188
H  H38  1  0.28680000  0.09830000  0.66000000  1.0 0.1110283188
H  H39  1  0.28680000  0.40170000  0.16000000  1.0 0.1110283188
H  H40  1  0.71320000  0.90170000  0.34000000  1.0 0.1110283188
H  H41  1  0.67870000  0.54890000  0.89200000  1.0 0.1188999377
H  H42  1  0.32130000  0.04890000  0.60800000  1.0 0.1188999377
H  H43  1  0.32130000  0.45110000  0.10800000  1.0 0.1188999377
H  H44  1  0.67870000  0.95110000  0.39200000  1.0 0.1188999377
H  H45  1  0.56690000  0.07230000  0.72510000  1.0 0.1110283188
H  H46  1  0.43310000  0.57230000  0.77490000  1.0 0.1110283188
H  H47  1  0.43310000  0.92770000  0.27490000  1.0 0.1110283188
H  H48  1  0.56690000  0.42770000  0.22510000  1.0 0.1110283188
H  H49  1  0.64160000  0.91920000  0.73480000  1.0 0.1110283188
H  H50  1  0.35840000  0.41920000  0.76520000  1.0 0.1110283188
H  H51  1  0.35840000  0.08080000  0.26520000  1.0 0.1110283188
H  H52  1  0.64160000  0.58080000  0.23480000  1.0 0.1110283188
H  H53  1  0.54660000  0.82690000  0.70690000  1.0 0.071737095
H  H54  1  0.45340000  0.32690000  0.79310000  1.0 0.071737095
H  H55  1  0.45340000  0.17310000  0.29310000  1.0 0.071737095
H  H56  1  0.54660000  0.67310000  0.20690000  1.0 0.071737095
H  H57  1  0.60100000  0.41400000  0.97800000  1.0 0.3771502052
H  H58  1  0.39900000  0.91400000  0.52200000  1.0 0.3771502052
H  H59  1  0.39900000  0.58600000  0.02200000  1.0 0.3771502052
H  H60  1  0.60100000  0.08600000  0.47800000  1.0 0.3771502052
H  H61  1  0.50450000  0.42300000  0.94600000  1.0 0.3699160192
H  H62  1  0.49550000  0.92300000  0.55400000  1.0 0.3699160192
H  H63  1  0.49550000  0.57700000  0.05400000  1.0 0.3699160192
H  H64  1  0.50450000  0.07700000  0.44600000  1.0 0.3699160192
H  H65  1  0.71520000  0.68270000  0.88630000  1.0 0.0993390617
H  H66  1  0.28480000  0.18270000  0.61370000  1.0 0.0993390617
H  H67  1  0.28480000  0.31730000  0.11370000  1.0 0.0993390617
H  H68  1  0.71520000  0.81730000  0.38630000  1.0 0.0993390617
H  H69  1  0.63830000  0.51300000  0.85860000  1.0 0.1188999377
H  H70  1  0.36170000  0.01300000  0.64140000  1.0 0.1188999377
H  H71  1  0.36170000  0.48700000  0.14140000  1.0 0.1188999377
H  H72  1  0.63830000  0.98700000  0.35860000  1.0 0.1188999377
H  H73  1  0.68040000  0.54480000  0.81160000  1.0 0.1110283188
H  H74  1  0.31960000  0.04480000  0.68840000  1.0 0.1110283188
H  H75  1  0.31960000  0.45520000  0.18840000  1.0 0.1110283188
H  H76  1  0.68040000  0.95520000  0.31160000  1.0 0.1110283188
H  H77  1  0.70090000  0.96820000  0.79400000  1.0 0.0993390617
H  H78  1  0.29910000  0.46820000  0.70600000  1.0 0.0993390617
H  H79  1  0.29910000  0.03180000  0.20600000  1.0 0.0993390617
H  H80  1  0.70090000  0.53180000  0.29400000  1.0 0.0993390617
H  H81  1  0.62170000  0.13430000  0.76120000  1.0 0.1188999377
H  H82  1  0.37830000  0.63430000  0.73880000  1.0 0.1188999377
H  H83  1  0.37830000  0.86570000  0.23880000  1.0 0.1188999377
H  H84  1  0.62170000  0.36570000  0.26120000  1.0 0.1188999377
H  H85  1  0.68280000  0.08060000  0.85060000  1.0 0.071737095
H  H86  1  0.31720000  0.58060000  0.64940000  1.0 0.071737095
H  H87  1  0.31720000  0.91940000  0.14940000  1.0 0.071737095
H  H88  1  0.68280000  0.41940000  0.35060000  1.0 0.071737095
C  C1  1  0.72499000  0.01050000  0.02893000  1.0 0.538241816
C  C2  1  0.27501000  0.51050000  0.47107000  1.0 0.538241816
C  C3  1  0.27501000  0.98950000  0.97107000  1.0 0.538241816
C  C4  1  0.72499000  0.48950000  0.52893000  1.0 0.538241816
C  C5  1  0.82150000  0.08160000  0.07650000  1.0 -0.0133821953
C  C6  1  0.17850000  0.58160000  0.42350000  1.0 -0.0133821953
C  C7  1  0.17850000  0.91840000  0.92350000  1.0 -0.0133821953
C  C8  1  0.82150000  0.41840000  0.57650000  1.0 -0.0133821953
C  C9  1  0.88950000  0.93210000  0.10650000  1.0 -0.090501321
C  C10  1  0.11050000  0.43210000  0.39350000  1.0 -0.090501321
C  C11  1  0.11050000  0.06790000  0.89350000  1.0 -0.090501321
C  C12  1  0.88950000  0.56790000  0.60650000  1.0 -0.090501321
C  C13  1  0.97980000  0.99180000  0.15240000  1.0 -0.1499494917
C  C14  1  0.02020000  0.49180000  0.34760000  1.0 -0.1499494917
C  C15  1  0.02020000  0.00820000  0.84760000  1.0 -0.1499494917
C  C16  1  0.97980000  0.50820000  0.65240000  1.0 -0.1499494917
C  C17  1  0.00580000  0.20560000  0.17060000  1.0 0.071737095
C  C18  1  0.99420000  0.70560000  0.32940000  1.0 0.071737095
C  C19  1  0.99420000  0.79440000  0.82940000  1.0 0.071737095
C  C20  1  0.00580000  0.29440000  0.67060000  1.0 0.071737095
C  C21  1  0.93660000  0.35440000  0.14050000  1.0 -0.1499494917
C  C22  1  0.06340000  0.85440000  0.35950000  1.0 -0.1499494917
C  C23  1  0.06340000  0.64560000  0.85950000  1.0 -0.1499494917
C  C24  1  0.93660000  0.14560000  0.64050000  1.0 -0.1499494917
C  C25  1  0.84600000  0.29460000  0.09430000  1.0 -0.095726392
C  C26  1  0.15400000  0.79460000  0.40570000  1.0 -0.090501321
C  C27  1  0.15400000  0.70540000  0.90570000  1.0 -0.090501321
C  C28  1  0.84600000  0.20540000  0.59430000  1.0 -0.095726392
C  C29  1  0.38003000  0.47580000  0.37340000  1.0 0.5471705321
C  C30  1  0.61997000  0.97580000  0.12660000  1.0 0.5471705321
C  C31  1  0.61997000  0.52420000  0.62660000  1.0 0.5471705321
C  C32  1  0.38003000  0.02420000  0.87340000  1.0 0.5471705321
C  C33  1  0.28386000  0.40120000  0.32001000  1.0 -0.0242636993
C  C34  1  0.71614000  0.90120000  0.17999000  1.0 -0.0242636993
C  C35  1  0.71614000  0.59880000  0.67999000  1.0 -0.0242636993
C  C36  1  0.28386000  0.09880000  0.82001000  1.0 -0.0242636993
C  C37  1  0.21830000  0.53810000  0.26210000  1.0 -0.1230318982
C  C38  1  0.78170000  0.03810000  0.23790000  1.0 -0.1230318982
C  C39  1  0.78170000  0.46190000  0.73790000  1.0 -0.1230318982
C  C40  1  0.21830000  0.96190000  0.76210000  1.0 -0.1230318982
C  C41  1  0.12960000  0.47170000  0.21360000  1.0 -0.1499494917
C  C42  1  0.87040000  0.97170000  0.28640000  1.0 -0.1499494917
C  C43  1  0.87040000  0.52830000  0.78640000  1.0 -0.1499494917
C  C44  1  0.12960000  0.02830000  0.71360000  1.0 -0.1499494917
C  C45  1  0.10180000  0.27040000  0.22000000  1.0 0.071737095
C  C46  1  0.89820000  0.77040000  0.28000000  1.0 0.071737095
C  C47  1  0.89820000  0.72960000  0.78000000  1.0 0.071737095
C  C48  1  0.10180000  0.22960000  0.72000000  1.0 0.071737095
C  C49  1  0.16930000  0.13220000  0.27650000  1.0 -0.1499494917
C  C50  1  0.83070000  0.63220000  0.22350000  1.0 -0.1499494917
C  C51  1  0.83070000  0.86780000  0.72350000  1.0 -0.1499494917
C  C52  1  0.16930000  0.36780000  0.77650000  1.0 -0.1499494917
C  C53  1  0.25780000  0.19590000  0.32550000  1.0 -0.095726392
C  C54  1  0.74220000  0.69590000  0.17450000  1.0 -0.095726392
C  C55  1  0.74220000  0.80410000  0.67450000  1.0 -0.095726392
C  C56  1  0.25780000  0.30410000  0.82550000  1.0 -0.095726392
C  C57  1  0.66250000  0.60930000  0.84340000  1.0 -0.4091976609
C  C58  1  0.33750000  0.10930000  0.65660000  1.0 -0.4091976609
C  C59  1  0.33750000  0.39070000  0.15660000  1.0 -0.4091976609
C  C60  1  0.66250000  0.89070000  0.34340000  1.0 -0.4091976609
C  C61  1  0.59240000  0.93080000  0.74010000  1.0 -0.2226541142
C  C62  1  0.40760000  0.43080000  0.75990000  1.0 -0.2226541142
C  C63  1  0.40760000  0.06920000  0.25990000  1.0 -0.2226541142
C  C64  1  0.59240000  0.56920000  0.24010000  1.0 -0.2226541142
C  C65  1  0.66300000  0.61600000  0.84200000  1.0 -0.4160910573
C  C66  1  0.33700000  0.11600000  0.65800000  1.0 -0.4160910573
C  C67  1  0.33700000  0.38400000  0.15800000  1.0 -0.4160910573
C  C68  1  0.66300000  0.88400000  0.34200000  1.0 -0.4160910573
C  C69  1  0.65500000  0.02300000  0.79900000  1.0 -0.2270414259
C  C70  1  0.34500000  0.52300000  0.70100000  1.0 -0.2270414259
C  C71  1  0.34500000  0.97700000  0.20100000  1.0 -0.2270414259
C  C72  1  0.65500000  0.47700000  0.29900000  1.0 -0.2270414259
S  S1  1  0.63317000  0.88250000  0.83881000  1.0 0.2947669301
S  S2  1  0.36683000  0.38250000  0.66119000  1.0 0.2947669301
S  S3  1  0.36683000  0.11750000  0.16119000  1.0 0.2957320187
S  S4  1  0.63317000  0.61750000  0.33881000  1.0 0.2957320187
S  S5  1  0.58030000  0.81400000  0.78340000  1.0 0.1866726104
S  S6  1  0.41970000  0.31400000  0.71660000  1.0 0.1866726104
S  S7  1  0.41970000  0.18600000  0.21660000  1.0 0.1866726104
S  S8  1  0.58030000  0.68600000  0.28340000  1.0 0.1866726104
O  O1  1  0.70842000  0.81390000  0.01241000  1.0 -0.5291830029
O  O2  1  0.29158000  0.31390000  0.48759000  1.0 -0.5291830029
O  O3  1  0.29158000  0.18610000  0.98759000  1.0 -0.5291830029
O  O4  1  0.70842000  0.68610000  0.51241000  1.0 -0.5291830029
O  O5  1  0.66244000  0.14300000  0.00748000  1.0 -0.5291830029
O  O6  1  0.33756000  0.64300000  0.49252000  1.0 -0.5291830029
O  O7  1  0.33756000  0.85700000  0.99252000  1.0 -0.5291830029
O  O8  1  0.66244000  0.35700000  0.50748000  1.0 -0.5291830029
O  O9  1  0.43815000  0.35530000  0.43011000  1.0 -0.583974513
O  O10  1  0.56185000  0.85530000  0.06989000  1.0 -0.583974513
O  O11  1  0.56185000  0.64470000  0.56989000  1.0 -0.583974513
O  O12  1  0.43815000  0.14470000  0.93011000  1.0 -0.583974513
O  O13  1  0.40153000  0.65440000  0.36141000  1.0 -0.5099428471
O  O14  1  0.59847000  0.15440000  0.13859000  1.0 -0.5099428471
O  O15  1  0.59847000  0.34560000  0.63859000  1.0 -0.5099428471
O  O16  1  0.40153000  0.84560000  0.86141000  1.0 -0.5099428471
O  O17  1  0.54863000  0.88320000  0.83735000  1.0 -0.4442991044
O  O18  1  0.45137000  0.38320000  0.66265000  1.0 -0.4442991044
O  O19  1  0.45137000  0.11680000  0.16265000  1.0 -0.4442991044
O  O20  1  0.54863000  0.61680000  0.33735000  1.0 -0.4442991044
O  O21  1  0.55218000  0.48940000  0.95633000  1.0 -0.7184033122
O  O22  1  0.44782000  0.98940000  0.54367000  1.0 -0.7184033122
O  O23  1  0.44782000  0.51060000  0.04367000  1.0 -0.7184033122
O  O24  1  0.55218000  0.01060000  0.45633000  1.0 -0.7184033122
