# DDEC6 charges by PACMAN v1.1 (https://github.com/mtap-research/PACMAN-charge/)
data_PIQQIR_FSR_pacman
_symmetry_space_group_name_H-M   'P 1'
_cell_length_a   15.87000000
_cell_length_b   20.43300000
_cell_length_c   19.22000000
_cell_angle_alpha   90.00000000
_cell_angle_beta   98.40900000
_cell_angle_gamma   90.00000000
_symmetry_Int_Tables_number   1
_chemical_formula_structural   Cd3H38(C29O10)2
_chemical_formula_sum   'Cd12 H152 C232 O80'
_cell_volume   6165.49896585
_cell_formula_units_Z   4
loop_
 _symmetry_equiv_pos_site_id
 _symmetry_equiv_pos_as_xyz
  1  'x, y, z'
loop_
 _atom_site_type_symbol
 _atom_site_label
 _atom_site_symmetry_multiplicity
 _atom_site_fract_x
 _atom_site_fract_y
 _atom_site_fract_z
 _atom_site_occupancy
 _atom_site_charge
Cd  Cd1  1  0.55580000  0.77771000  0.44865000  1.0 1.0246005598
Cd  Cd2  1  0.44420000  0.27771000  0.05135000  1.0 1.0246005598
Cd  Cd3  1  0.44420000  0.22229000  0.55135000  1.0 1.0246005598
Cd  Cd4  1  0.55580000  0.72229000  0.94865000  1.0 1.0246005598
Cd  Cd5  1  0.49182000  0.23255000  0.22805000  1.0 1.1164498571
Cd  Cd6  1  0.50818000  0.73255000  0.27195000  1.0 1.1164498571
Cd  Cd7  1  0.50818000  0.76745000  0.77195000  1.0 1.1164498571
Cd  Cd8  1  0.49182000  0.26745000  0.72805000  1.0 1.1164498571
Cd  Cd9  1  0.46528000  0.79237000  0.09759000  1.0 0.9579349104
Cd  Cd10  1  0.53472000  0.29237000  0.40241000  1.0 0.9579349104
Cd  Cd11  1  0.53472000  0.20763000  0.90241000  1.0 0.9579349104
Cd  Cd12  1  0.46528000  0.70763000  0.59759000  1.0 0.9579349104
H  H1  1  0.62800000  0.86770000  0.22400000  1.0 0.1202107377
H  H2  1  0.37200000  0.36770000  0.27600000  1.0 0.1202107377
H  H3  1  0.37200000  0.13230000  0.77600000  1.0 0.1202107377
H  H4  1  0.62800000  0.63230000  0.72400000  1.0 0.1202107377
H  H5  1  0.72480000  0.87980000  0.14440000  1.0 0.1278035176
H  H6  1  0.27520000  0.37980000  0.35560000  1.0 0.1278035176
H  H7  1  0.27520000  0.12020000  0.85560000  1.0 0.1278035176
H  H8  1  0.72480000  0.62020000  0.64440000  1.0 0.1278035176
H  H9  1  0.91500000  0.83680000  0.29680000  1.0 0.1389413739
H  H10  1  0.08500000  0.33680000  0.20320000  1.0 0.1389413739
H  H11  1  0.08500000  0.16320000  0.70320000  1.0 0.1468828181
H  H12  1  0.91500000  0.66320000  0.79680000  1.0 0.1389413739
H  H13  1  0.82220000  0.82960000  0.37680000  1.0 0.1278035176
H  H14  1  0.17780000  0.32960000  0.12320000  1.0 0.1278035176
H  H15  1  0.17780000  0.17040000  0.62320000  1.0 0.1278035176
H  H16  1  0.82220000  0.67040000  0.87680000  1.0 0.1278035176
H  H17  1  0.01250000  0.87030000  0.10480000  1.0 0.165508436
H  H18  1  0.98750000  0.37030000  0.39520000  1.0 0.165508436
H  H19  1  0.98750000  0.12970000  0.89520000  1.0 0.165508436
H  H20  1  0.01250000  0.62970000  0.60480000  1.0 0.165508436
H  H21  1  0.04480000  0.06660000  0.11350000  1.0 0.1576784346
H  H22  1  0.95520000  0.56660000  0.38650000  1.0 0.1576784346
H  H23  1  0.95520000  0.93340000  0.88650000  1.0 0.1576784346
H  H24  1  0.04480000  0.43340000  0.61350000  1.0 0.1576784346
H  H25  1  0.84730000  0.98400000  0.18920000  1.0 0.1576784346
H  H26  1  0.15270000  0.48400000  0.31080000  1.0 0.1576784346
H  H27  1  0.15270000  0.01600000  0.81080000  1.0 0.1576784346
H  H28  1  0.84730000  0.51600000  0.68920000  1.0 0.1576784346
H  H29  1  0.15040000  0.04360000  0.98790000  1.0 0.1389413739
H  H30  1  0.84960000  0.54360000  0.51210000  1.0 0.1389413739
H  H31  1  0.84960000  0.95640000  0.01210000  1.0 0.1389413739
H  H32  1  0.15040000  0.45640000  0.48790000  1.0 0.1389413739
H  H33  1  0.25380000  0.12190000  0.00300000  1.0 0.1202107377
H  H34  1  0.74620000  0.62190000  0.49700000  1.0 0.1202107377
H  H35  1  0.74620000  0.87810000  0.99700000  1.0 0.1202107377
H  H36  1  0.25380000  0.37810000  0.50300000  1.0 0.1202107377
H  H37  1  0.32420000  0.05910000  0.19980000  1.0 0.1278035176
H  H38  1  0.67580000  0.55910000  0.30020000  1.0 0.1278035176
H  H39  1  0.67580000  0.94090000  0.80020000  1.0 0.1278035176
H  H40  1  0.32420000  0.44090000  0.69980000  1.0 0.1278035176
H  H41  1  0.21770000  0.97950000  0.18320000  1.0 0.1389413739
H  H42  1  0.78230000  0.47950000  0.31680000  1.0 0.1389413739
H  H43  1  0.78230000  0.02050000  0.81680000  1.0 0.1389413739
H  H44  1  0.21770000  0.52050000  0.68320000  1.0 0.1389413739
H  H45  1  0.83040000  0.08770000  0.05080000  1.0 0.1278035176
H  H46  1  0.16960000  0.58770000  0.44920000  1.0 0.1278035176
H  H47  1  0.16960000  0.91230000  0.94920000  1.0 0.1389413739
H  H48  1  0.83040000  0.41230000  0.55080000  1.0 0.1278035176
H  H49  1  0.69800000  0.13630000  0.01220000  1.0 0.1202107377
H  H50  1  0.30200000  0.63630000  0.48780000  1.0 0.1202107377
H  H51  1  0.30200000  0.86370000  0.98780000  1.0 0.1202107377
H  H52  1  0.69800000  0.36370000  0.51220000  1.0 0.1202107377
H  H53  1  0.69450000  0.20600000  0.20680000  1.0 0.1202107377
H  H54  1  0.30550000  0.70600000  0.29320000  1.0 0.1202107377
H  H55  1  0.30550000  0.79400000  0.79320000  1.0 0.1202107377
H  H56  1  0.69450000  0.29400000  0.70680000  1.0 0.1202107377
H  H57  1  0.82890000  0.16220000  0.24460000  1.0 0.1468828181
H  H58  1  0.17110000  0.66220000  0.25540000  1.0 0.1468828181
H  H59  1  0.17110000  0.83780000  0.75540000  1.0 0.1468828181
H  H60  1  0.82890000  0.33780000  0.74460000  1.0 0.1468828181
H  H61  1  0.71330000  0.66430000  0.04620000  1.0 0.1202107377
H  H62  1  0.28670000  0.16430000  0.45380000  1.0 0.1202107377
H  H63  1  0.28670000  0.33570000  0.95380000  1.0 0.1202107377
H  H64  1  0.71330000  0.83570000  0.54620000  1.0 0.1202107377
H  H65  1  0.83900000  0.60520000  0.07130000  1.0 0.1468828181
H  H66  1  0.16100000  0.10520000  0.42870000  1.0 0.1468828181
H  H67  1  0.16100000  0.39480000  0.92870000  1.0 0.1468828181
H  H68  1  0.83900000  0.89480000  0.57130000  1.0 0.1468828181
H  H69  1  0.85030000  0.65670000  0.27800000  1.0 0.1389413739
H  H70  1  0.14970000  0.15670000  0.22200000  1.0 0.1389413739
H  H71  1  0.14970000  0.34330000  0.72200000  1.0 0.1389413739
H  H72  1  0.85030000  0.84330000  0.77800000  1.0 0.1389413739
H  H73  1  0.72260000  0.71090000  0.24930000  1.0 0.1202107377
H  H74  1  0.27740000  0.21090000  0.25070000  1.0 0.1202107377
H  H75  1  0.27740000  0.28910000  0.75070000  1.0 0.1202107377
H  H76  1  0.72260000  0.78910000  0.74930000  1.0 0.1202107377
H  H77  1  0.85360000  0.48340000  0.18190000  1.0 0.1576784346
H  H78  1  0.14640000  0.98340000  0.31810000  1.0 0.1576784346
H  H79  1  0.14640000  0.51660000  0.81810000  1.0 0.1576784346
H  H80  1  0.85360000  0.01660000  0.68190000  1.0 0.1576784346
H  H81  1  0.01580000  0.38780000  0.07900000  1.0 0.165508436
H  H82  1  0.98420000  0.88780000  0.42100000  1.0 0.165508436
H  H83  1  0.98420000  0.61220000  0.92100000  1.0 0.165508436
H  H84  1  0.01580000  0.11220000  0.57900000  1.0 0.165508436
H  H85  1  0.05880000  0.57710000  0.13270000  1.0 0.1576784346
H  H86  1  0.94120000  0.07710000  0.36730000  1.0 0.1576784346
H  H87  1  0.94120000  0.42290000  0.86730000  1.0 0.1576784346
H  H88  1  0.05880000  0.92290000  0.63270000  1.0 0.1576784346
H  H89  1  0.71780000  0.37270000  0.10210000  1.0 0.1389413739
H  H90  1  0.28220000  0.87270000  0.39790000  1.0 0.1389413739
H  H91  1  0.28220000  0.62730000  0.89790000  1.0 0.1389413739
H  H92  1  0.71780000  0.12730000  0.60210000  1.0 0.1389413739
H  H93  1  0.62240000  0.35060000  0.17740000  1.0 0.1278035176
H  H94  1  0.37760000  0.85060000  0.32260000  1.0 0.1278035176
H  H95  1  0.37760000  0.64940000  0.82260000  1.0 0.1278035176
H  H96  1  0.62240000  0.14940000  0.67740000  1.0 0.1278035176
H  H97  1  0.81520000  0.33230000  0.33750000  1.0 0.1202107377
H  H98  1  0.18480000  0.83230000  0.16250000  1.0 0.1202107377
H  H99  1  0.18480000  0.66770000  0.66250000  1.0 0.1202107377
H  H100  1  0.81520000  0.16770000  0.83750000  1.0 0.1202107377
H  H101  1  0.90920000  0.34490000  0.25560000  1.0 0.1389413739
H  H102  1  0.09080000  0.84490000  0.24440000  1.0 0.1389413739
H  H103  1  0.09080000  0.65510000  0.74440000  1.0 0.1389413739
H  H104  1  0.90920000  0.15510000  0.75560000  1.0 0.1389413739
H  H105  1  0.17890000  0.56740000  0.99490000  1.0 0.1389413739
H  H106  1  0.82110000  0.06740000  0.50510000  1.0 0.1389413739
H  H107  1  0.82110000  0.43260000  0.00510000  1.0 0.1389413739
H  H108  1  0.17890000  0.93260000  0.49490000  1.0 0.1389413739
H  H109  1  0.29050000  0.63640000  0.02800000  1.0 0.1202107377
H  H110  1  0.70950000  0.13640000  0.47200000  1.0 0.1202107377
H  H111  1  0.70950000  0.36360000  0.97200000  1.0 0.1202107377
H  H112  1  0.29050000  0.86360000  0.52800000  1.0 0.1202107377
H  H113  1  0.32470000  0.56340000  0.22140000  1.0 0.1202107377
H  H114  1  0.67530000  0.06340000  0.27860000  1.0 0.1202107377
H  H115  1  0.67530000  0.43660000  0.77860000  1.0 0.1202107377
H  H116  1  0.32470000  0.93660000  0.72140000  1.0 0.1202107377
H  H117  1  0.21510000  0.48920000  0.18830000  1.0 0.1202107377
H  H118  1  0.78490000  0.98920000  0.31170000  1.0 0.1202107377
H  H119  1  0.78490000  0.51080000  0.81170000  1.0 0.1202107377
H  H120  1  0.21510000  0.01080000  0.68830000  1.0 0.1202107377
H  H121  1  0.43180000  0.96670000  0.10110000  1.0 0.1010644491
H  H122  1  0.56820000  0.46670000  0.39890000  1.0 0.1010644491
H  H123  1  0.56820000  0.03330000  0.89890000  1.0 0.1010644491
H  H124  1  0.43180000  0.53330000  0.60110000  1.0 0.1010644491
H  H125  1  0.47690000  0.94450000  0.17570000  1.0 0.111191878
H  H126  1  0.52310000  0.44450000  0.32430000  1.0 0.111191878
H  H127  1  0.52310000  0.05550000  0.82430000  1.0 0.111191878
H  H128  1  0.47690000  0.55550000  0.67570000  1.0 0.111191878
H  H129  1  0.51930000  0.04980000  0.11620000  1.0 0.1202107377
H  H130  1  0.48070000  0.54980000  0.38380000  1.0 0.1202107377
H  H131  1  0.48070000  0.95020000  0.88380000  1.0 0.1202107377
H  H132  1  0.51930000  0.45020000  0.61620000  1.0 0.1202107377
H  H133  1  0.58250000  0.01300000  0.17410000  1.0 0.1202107377
H  H134  1  0.41750000  0.51300000  0.32590000  1.0 0.1202107377
H  H135  1  0.41750000  0.98700000  0.82590000  1.0 0.1202107377
H  H136  1  0.58250000  0.48700000  0.67410000  1.0 0.1202107377
H  H137  1  0.66230000  0.98830000  0.09510000  1.0 0.1202107377
H  H138  1  0.33770000  0.48830000  0.40490000  1.0 0.1202107377
H  H139  1  0.33770000  0.01170000  0.90490000  1.0 0.1202107377
H  H140  1  0.66230000  0.51170000  0.59510000  1.0 0.1202107377
H  H141  1  0.59670000  0.02240000  0.03620000  1.0 0.111191878
H  H142  1  0.40330000  0.52240000  0.46380000  1.0 0.111191878
H  H143  1  0.40330000  0.97760000  0.96380000  1.0 0.111191878
H  H144  1  0.59670000  0.47760000  0.53620000  1.0 0.111191878
H  H145  1  0.52780000  0.92570000  0.00520000  1.0 0.0943757649
H  H146  1  0.47220000  0.42570000  0.49480000  1.0 0.0943757649
H  H147  1  0.47220000  0.07430000  0.99480000  1.0 0.0943757649
H  H148  1  0.52780000  0.57430000  0.50520000  1.0 0.0943757649
H  H149  1  0.61070000  0.89190000  0.04320000  1.0 0.1010644491
H  H150  1  0.38930000  0.39190000  0.45680000  1.0 0.1010644491
H  H151  1  0.38930000  0.10810000  0.95680000  1.0 0.1010644491
H  H152  1  0.61070000  0.60810000  0.54320000  1.0 0.1010644491
C  C1  1  0.65560000  0.83200000  0.36080000  1.0 0.5532708112
C  C2  1  0.34440000  0.33200000  0.13920000  1.0 0.5532708112
C  C3  1  0.34440000  0.16800000  0.63920000  1.0 0.5532708112
C  C4  1  0.65560000  0.66800000  0.86080000  1.0 0.5532708112
C  C5  1  0.71520000  0.84600000  0.30750000  1.0 -0.0287480679
C  C6  1  0.28480000  0.34600000  0.19250000  1.0 -0.0287480679
C  C7  1  0.28480000  0.15400000  0.69250000  1.0 -0.0287480679
C  C8  1  0.71520000  0.65400000  0.80750000  1.0 -0.0287480679
C  C9  1  0.68600000  0.86180000  0.23860000  1.0 -0.0797271088
C  C10  1  0.31400000  0.36180000  0.26140000  1.0 -0.0797271088
C  C11  1  0.31400000  0.13820000  0.76140000  1.0 -0.0797271088
C  C12  1  0.68600000  0.63820000  0.73860000  1.0 -0.0797271088
C  C13  1  0.74340000  0.86900000  0.19120000  1.0 -0.2121106741
C  C14  1  0.25660000  0.36900000  0.30880000  1.0 -0.2121106741
C  C15  1  0.25660000  0.13100000  0.80880000  1.0 -0.2121106741
C  C16  1  0.74340000  0.63100000  0.69120000  1.0 -0.2121106741
C  C17  1  0.83010000  0.85950000  0.21560000  1.0 0.2324924636
C  C18  1  0.16990000  0.35950000  0.28440000  1.0 0.2324924636
C  C19  1  0.16990000  0.14050000  0.78440000  1.0 0.2324924636
C  C20  1  0.83010000  0.64050000  0.71560000  1.0 0.2324924636
C  C21  1  0.85720000  0.84400000  0.28240000  1.0 -0.1830635244
C  C22  1  0.14280000  0.34400000  0.21760000  1.0 -0.1830635244
C  C23  1  0.14280000  0.15600000  0.71760000  1.0 -0.1830635244
C  C24  1  0.85720000  0.65600000  0.78240000  1.0 -0.1830635244
C  C25  1  0.80210000  0.83840000  0.32990000  1.0 -0.0867991876
C  C26  1  0.19790000  0.33840000  0.17010000  1.0 -0.0867991876
C  C27  1  0.19790000  0.16160000  0.67010000  1.0 -0.0867991876
C  C28  1  0.80210000  0.66160000  0.82990000  1.0 -0.0867991876
C  C29  1  0.92370000  0.91880000  0.14980000  1.0 0.2794576529
C  C30  1  0.07630000  0.41880000  0.35020000  1.0 0.2794576529
C  C31  1  0.07630000  0.08120000  0.85020000  1.0 0.2794576529
C  C32  1  0.92370000  0.58120000  0.64980000  1.0 0.2794576529
C  C33  1  0.99530000  0.91150000  0.11770000  1.0 -0.341414201
C  C34  1  0.00470000  0.41150000  0.38230000  1.0 -0.341414201
C  C35  1  0.00470000  0.08850000  0.88230000  1.0 -0.341414201
C  C36  1  0.99530000  0.58850000  0.61770000  1.0 -0.341414201
C  C37  1  0.04080000  0.96650000  0.10530000  1.0 0.3043944034
C  C38  1  0.95920000  0.46650000  0.39470000  1.0 0.3043944034
C  C39  1  0.95920000  0.03350000  0.89470000  1.0 0.3043944034
C  C40  1  0.04080000  0.53350000  0.60530000  1.0 0.3043944034
C  C41  1  0.01510000  0.02930000  0.12330000  1.0 -0.3502107543
C  C42  1  0.98490000  0.52930000  0.37670000  1.0 -0.3502107543
C  C43  1  0.98490000  0.97070000  0.87670000  1.0 -0.3502107543
C  C44  1  0.01510000  0.47070000  0.62330000  1.0 -0.3502107543
C  C45  1  0.94310000  0.03280000  0.15630000  1.0 0.2794576529
C  C46  1  0.05690000  0.53280000  0.34370000  1.0 0.2794576529
C  C47  1  0.05690000  0.96720000  0.84370000  1.0 0.2794576529
C  C48  1  0.94310000  0.46720000  0.65630000  1.0 0.2794576529
C  C49  1  0.89650000  0.97960000  0.16860000  1.0 -0.3502107543
C  C50  1  0.10350000  0.47960000  0.33140000  1.0 -0.3502107543
C  C51  1  0.10350000  0.02040000  0.83140000  1.0 -0.3502107543
C  C52  1  0.89650000  0.52040000  0.66860000  1.0 -0.3502107543
C  C53  1  0.17390000  0.00500000  0.08150000  1.0 0.2324924636
C  C54  1  0.82610000  0.50500000  0.41850000  1.0 0.2324924636
C  C55  1  0.82610000  0.99500000  0.91850000  1.0 0.2324924636
C  C56  1  0.17390000  0.49500000  0.58150000  1.0 0.2324924636
C  C57  1  0.18540000  0.04670000  0.03100000  1.0 -0.1830635244
C  C58  1  0.81460000  0.54670000  0.46900000  1.0 -0.1916668174
C  C59  1  0.81460000  0.95330000  0.96900000  1.0 -0.1830635244
C  C60  1  0.18540000  0.45330000  0.53100000  1.0 -0.1916668174
C  C61  1  0.24660000  0.09380000  0.03980000  1.0 -0.0867991876
C  C62  1  0.75340000  0.59380000  0.46020000  1.0 -0.0867991876
C  C63  1  0.75340000  0.90620000  0.96020000  1.0 -0.0867991876
C  C64  1  0.24660000  0.40620000  0.53980000  1.0 -0.0867991876
C  C65  1  0.29800000  0.09950000  0.10430000  1.0 -0.051678475
C  C66  1  0.70200000  0.59950000  0.39570000  1.0 -0.051678475
C  C67  1  0.70200000  0.90050000  0.89570000  1.0 -0.051678475
C  C68  1  0.29800000  0.40050000  0.60430000  1.0 -0.051678475
C  C69  1  0.36390000  0.15170000  0.11370000  1.0 0.574385995
C  C70  1  0.63610000  0.65170000  0.38630000  1.0 0.574385995
C  C71  1  0.63610000  0.84830000  0.88630000  1.0 0.574385995
C  C72  1  0.36390000  0.34830000  0.61370000  1.0 0.574385995
C  C73  1  0.28840000  0.05630000  0.15710000  1.0 -0.0797271088
C  C74  1  0.71160000  0.55630000  0.34290000  1.0 -0.0797271088
C  C75  1  0.71160000  0.94370000  0.84290000  1.0 -0.0797271088
C  C76  1  0.28840000  0.44370000  0.65710000  1.0 -0.0797271088
C  C77  1  0.22540000  0.00840000  0.14730000  1.0 -0.2014298756
C  C78  1  0.77460000  0.50840000  0.35270000  1.0 -0.2014298756
C  C79  1  0.77460000  0.99160000  0.85270000  1.0 -0.2014298756
C  C80  1  0.22540000  0.49160000  0.64730000  1.0 -0.2014298756
C  C81  1  0.84060000  0.11860000  0.15310000  1.0 0.2704322282
C  C82  1  0.15940000  0.61860000  0.34690000  1.0 0.2704322282
C  C83  1  0.15940000  0.88140000  0.84690000  1.0 0.2704322282
C  C84  1  0.84060000  0.38140000  0.65310000  1.0 0.2704322282
C  C85  1  0.80280000  0.11150000  0.08200000  1.0 -0.2370236125
C  C86  1  0.19720000  0.61150000  0.41800000  1.0 -0.2370236125
C  C87  1  0.19720000  0.88850000  0.91800000  1.0 -0.2370236125
C  C88  1  0.80280000  0.38850000  0.58200000  1.0 -0.2370236125
C  C89  1  0.72310000  0.14080000  0.05870000  1.0 -0.0797271088
C  C90  1  0.27690000  0.64080000  0.44130000  1.0 -0.0797271088
C  C91  1  0.27690000  0.85920000  0.94130000  1.0 -0.0797271088
C  C92  1  0.72310000  0.35920000  0.55870000  1.0 -0.0797271088
C  C93  1  0.68240000  0.17640000  0.10550000  1.0 -0.0589851049
C  C94  1  0.31760000  0.67640000  0.39450000  1.0 -0.0589851049
C  C95  1  0.31760000  0.82360000  0.89450000  1.0 -0.0589851049
C  C96  1  0.68240000  0.32360000  0.60550000  1.0 -0.0589851049
C  C97  1  0.59880000  0.20790000  0.08160000  1.0 0.5428783837
C  C98  1  0.40120000  0.70790000  0.41840000  1.0 0.5428783837
C  C99  1  0.40120000  0.79210000  0.91840000  1.0 0.5428783837
C  C100  1  0.59880000  0.29210000  0.58160000  1.0 0.5428783837
C  C101  1  0.72220000  0.18280000  0.17520000  1.0 -0.0589851049
C  C102  1  0.27780000  0.68280000  0.32480000  1.0 -0.0589851049
C  C103  1  0.27780000  0.81720000  0.82480000  1.0 -0.0589851049
C  C104  1  0.72220000  0.31720000  0.67520000  1.0 -0.0589851049
C  C105  1  0.80230000  0.15540000  0.19870000  1.0 -0.2223269889
C  C106  1  0.19770000  0.65540000  0.30130000  1.0 -0.2223269889
C  C107  1  0.19770000  0.84460000  0.80130000  1.0 -0.2223269889
C  C108  1  0.80230000  0.34460000  0.69870000  1.0 -0.2223269889
C  C109  1  0.62360000  0.72910000  0.13090000  1.0 0.5950840655
C  C110  1  0.37640000  0.22910000  0.36910000  1.0 0.5950840655
C  C111  1  0.37640000  0.27090000  0.86910000  1.0 0.5950840655
C  C112  1  0.62360000  0.77090000  0.63090000  1.0 0.5950840655
C  C113  1  0.70600000  0.69350000  0.14600000  1.0 -0.051678475
C  C114  1  0.29400000  0.19350000  0.35400000  1.0 -0.051678475
C  C115  1  0.29400000  0.30650000  0.85400000  1.0 -0.051678475
C  C116  1  0.70600000  0.80650000  0.64600000  1.0 -0.051678475
C  C117  1  0.74100000  0.66170000  0.09220000  1.0 -0.0691551408
C  C118  1  0.25900000  0.16170000  0.40780000  1.0 -0.0691551408
C  C119  1  0.25900000  0.33830000  0.90780000  1.0 -0.0691551408
C  C120  1  0.74100000  0.83830000  0.59220000  1.0 -0.0691551408
C  C121  1  0.81570000  0.62670000  0.10660000  1.0 -0.2305316683
C  C122  1  0.18430000  0.12670000  0.39340000  1.0 -0.2305316683
C  C123  1  0.18430000  0.37330000  0.89340000  1.0 -0.2305316683
C  C124  1  0.81570000  0.87330000  0.60660000  1.0 -0.2305316683
C  C125  1  0.85520000  0.62490000  0.17740000  1.0 0.2704322282
C  C126  1  0.14480000  0.12490000  0.32260000  1.0 0.2704322282
C  C127  1  0.14480000  0.37510000  0.82260000  1.0 0.2704322282
C  C128  1  0.85520000  0.87510000  0.67740000  1.0 0.2704322282
C  C129  1  0.82230000  0.65740000  0.23200000  1.0 -0.2223269889
C  C130  1  0.17770000  0.15740000  0.26800000  1.0 -0.2223269889
C  C131  1  0.17770000  0.34260000  0.76800000  1.0 -0.2223269889
C  C132  1  0.82230000  0.84260000  0.73200000  1.0 -0.2223269889
C  C133  1  0.74700000  0.69010000  0.21410000  1.0 -0.0691551408
C  C134  1  0.25300000  0.19010000  0.28590000  1.0 -0.0691551408
C  C135  1  0.25300000  0.30990000  0.78590000  1.0 -0.0691551408
C  C136  1  0.74700000  0.80990000  0.71410000  1.0 -0.0691551408
C  C137  1  0.95170000  0.53740000  0.16220000  1.0 0.2794576529
C  C138  1  0.04830000  0.03740000  0.33780000  1.0 0.2794576529
C  C139  1  0.04830000  0.46260000  0.83780000  1.0 0.2794576529
C  C140  1  0.95170000  0.96260000  0.66220000  1.0 0.2794576529
C  C141  1  0.90320000  0.48310000  0.16150000  1.0 -0.3201530036
C  C142  1  0.09680000  0.98310000  0.33850000  1.0 -0.3201530036
C  C143  1  0.09680000  0.51690000  0.83850000  1.0 -0.3201530036
C  C144  1  0.90320000  0.01690000  0.66150000  1.0 -0.3201530036
C  C145  1  0.92750000  0.42830000  0.13070000  1.0 0.2616142127
C  C146  1  0.07250000  0.92830000  0.36930000  1.0 0.2616142127
C  C147  1  0.07250000  0.57170000  0.86930000  1.0 0.2616142127
C  C148  1  0.92750000  0.07170000  0.63070000  1.0 0.2616142127
C  C149  1  0.00020000  0.42600000  0.10030000  1.0 -0.3296338873
C  C150  1  0.99980000  0.92600000  0.39970000  1.0 -0.3296338873
C  C151  1  0.99980000  0.57400000  0.89970000  1.0 -0.3296338873
C  C152  1  0.00020000  0.07400000  0.60030000  1.0 -0.3296338873
C  C153  1  0.04980000  0.48150000  0.10210000  1.0 0.2931326869
C  C154  1  0.95020000  0.98150000  0.39790000  1.0 0.2931326869
C  C155  1  0.95020000  0.51850000  0.89790000  1.0 0.2931326869
C  C156  1  0.04980000  0.01850000  0.60210000  1.0 0.2931326869
C  C157  1  0.02630000  0.53930000  0.13240000  1.0 -0.341414201
C  C158  1  0.97370000  0.03930000  0.36760000  1.0 -0.341414201
C  C159  1  0.97370000  0.46070000  0.86760000  1.0 -0.341414201
C  C160  1  0.02630000  0.96070000  0.63240000  1.0 -0.341414201
C  C161  1  0.82170000  0.36260000  0.17170000  1.0 0.2389489058
C  C162  1  0.17830000  0.86260000  0.32830000  1.0 0.2389489058
C  C163  1  0.17830000  0.63740000  0.82830000  1.0 0.2389489058
C  C164  1  0.82170000  0.13740000  0.67170000  1.0 0.2389489058
C  C165  1  0.73750000  0.36360000  0.14910000  1.0 -0.1916668174
C  C166  1  0.26250000  0.86360000  0.35090000  1.0 -0.1916668174
C  C167  1  0.26250000  0.63640000  0.85090000  1.0 -0.1916668174
C  C168  1  0.73750000  0.13640000  0.64910000  1.0 -0.1916668174
C  C169  1  0.68030000  0.35160000  0.19430000  1.0 -0.0797271088
C  C170  1  0.31970000  0.85160000  0.30570000  1.0 -0.0797271088
C  C171  1  0.31970000  0.64840000  0.80570000  1.0 -0.0797271088
C  C172  1  0.68030000  0.14840000  0.69430000  1.0 -0.0797271088
C  C173  1  0.70790000  0.34070000  0.26540000  1.0 -0.0589851049
C  C174  1  0.29210000  0.84070000  0.23460000  1.0 -0.0589851049
C  C175  1  0.29210000  0.65930000  0.73460000  1.0 -0.0589851049
C  C176  1  0.70790000  0.15930000  0.76540000  1.0 -0.0589851049
C  C177  1  0.64360000  0.32890000  0.31230000  1.0 0.5572392884
C  C178  1  0.35640000  0.82890000  0.18770000  1.0 0.5572392884
C  C179  1  0.35640000  0.67110000  0.68770000  1.0 0.5572392884
C  C180  1  0.64360000  0.17110000  0.81230000  1.0 0.5572392884
C  C181  1  0.79500000  0.33920000  0.29020000  1.0 -0.0867991876
C  C182  1  0.20500000  0.83920000  0.20980000  1.0 -0.0867991876
C  C183  1  0.20500000  0.66080000  0.70980000  1.0 -0.0867991876
C  C184  1  0.79500000  0.16080000  0.79020000  1.0 -0.0867991876
C  C185  1  0.85090000  0.34840000  0.24100000  1.0 -0.2223269889
C  C186  1  0.14910000  0.84840000  0.25900000  1.0 -0.2223269889
C  C187  1  0.14910000  0.65160000  0.75900000  1.0 -0.2223269889
C  C188  1  0.85090000  0.15160000  0.74100000  1.0 -0.2223269889
C  C189  1  0.18460000  0.52170000  0.08550000  1.0 0.2517733815
C  C190  1  0.81540000  0.02170000  0.41450000  1.0 0.2517733815
C  C191  1  0.81540000  0.47830000  0.91450000  1.0 0.2517733815
C  C192  1  0.18460000  0.97830000  0.58550000  1.0 0.2517733815
C  C193  1  0.20790000  0.56540000  0.04060000  1.0 -0.2014298756
C  C194  1  0.79210000  0.06540000  0.45940000  1.0 -0.2014298756
C  C195  1  0.79210000  0.43460000  0.95940000  1.0 -0.2014298756
C  C196  1  0.20790000  0.93460000  0.54060000  1.0 -0.2014298756
C  C197  1  0.27430000  0.60750000  0.06100000  1.0 -0.0797271088
C  C198  1  0.72570000  0.10750000  0.43900000  1.0 -0.0797271088
C  C199  1  0.72570000  0.39250000  0.93900000  1.0 -0.0797271088
C  C200  1  0.27430000  0.89250000  0.56100000  1.0 -0.0797271088
C  C201  1  0.31800000  0.60870000  0.12860000  1.0 -0.0287480679
C  C202  1  0.68200000  0.10870000  0.37140000  1.0 -0.0287480679
C  C203  1  0.68200000  0.39130000  0.87140000  1.0 -0.0287480679
C  C204  1  0.31800000  0.89130000  0.62860000  1.0 -0.0287480679
C  C205  1  0.29560000  0.56410000  0.17580000  1.0 -0.0962256995
C  C206  1  0.70440000  0.06410000  0.32420000  1.0 -0.0962256995
C  C207  1  0.70440000  0.43590000  0.82420000  1.0 -0.0962256995
C  C208  1  0.29560000  0.93590000  0.67580000  1.0 -0.0962256995
C  C209  1  0.22970000  0.51970000  0.15620000  1.0 -0.2121106741
C  C210  1  0.77030000  0.01970000  0.34380000  1.0 -0.2121106741
C  C211  1  0.77030000  0.48030000  0.84380000  1.0 -0.2121106741
C  C212  1  0.22970000  0.98030000  0.65620000  1.0 -0.2121106741
C  C213  1  0.38830000  0.65800000  0.15100000  1.0 0.5818694774
C  C214  1  0.61170000  0.15800000  0.34900000  1.0 0.5818694774
C  C215  1  0.61170000  0.34200000  0.84900000  1.0 0.5818694774
C  C216  1  0.38830000  0.84200000  0.65100000  1.0 0.5818694774
C  C217  1  0.48600000  0.95430000  0.12800000  1.0 -0.0589851049
C  C218  1  0.51400000  0.45430000  0.37200000  1.0 -0.0589851049
C  C219  1  0.51400000  0.04570000  0.87200000  1.0 -0.0589851049
C  C220  1  0.48600000  0.54570000  0.62800000  1.0 -0.0589851049
C  C221  1  0.54800000  0.00870000  0.12800000  1.0 -0.1830635244
C  C222  1  0.45200000  0.50870000  0.37200000  1.0 -0.1830635244
C  C223  1  0.45200000  0.99130000  0.87200000  1.0 -0.1830635244
C  C224  1  0.54800000  0.49130000  0.62800000  1.0 -0.1830635244
C  C225  1  0.60300000  0.99130000  0.07500000  1.0 -0.2223269889
C  C226  1  0.39700000  0.49130000  0.42500000  1.0 -0.2223269889
C  C227  1  0.39700000  0.00870000  0.92500000  1.0 -0.2223269889
C  C228  1  0.60300000  0.50870000  0.57500000  1.0 -0.2223269889
C  C229  1  0.56400000  0.92110000  0.05000000  1.0 0.0243332535
C  C230  1  0.43600000  0.42110000  0.45000000  1.0 0.0243332535
C  C231  1  0.43600000  0.07890000  0.95000000  1.0 0.0243332535
C  C232  1  0.56400000  0.57890000  0.55000000  1.0 0.0243332535
O  O1  1  0.57770000  0.81770000  0.33333333  1.0 -0.609114131
O  O2  1  0.42230000  0.31770000  0.16667000  1.0 -0.609114131
O  O3  1  0.42230000  0.18230000  0.66666667  1.0 -0.609114131
O  O4  1  0.57770000  0.68230000  0.83333000  1.0 -0.609114131
O  O5  1  0.67870000  0.83290000  0.42310000  1.0 -0.4935469386
O  O6  1  0.32130000  0.33290000  0.07690000  1.0 -0.4935469386
O  O7  1  0.32130000  0.16710000  0.57690000  1.0 -0.4935469386
O  O8  1  0.67870000  0.66710000  0.92310000  1.0 -0.4935469386
O  O9  1  0.37490000  0.18670000  0.06440000  1.0 -0.5354799685
O  O10  1  0.62510000  0.68670000  0.43560000  1.0 -0.5354799685
O  O11  1  0.62510000  0.81330000  0.93560000  1.0 -0.5354799685
O  O12  1  0.37490000  0.31330000  0.56440000  1.0 -0.5354799685
O  O13  1  0.47700000  0.85810000  0.48550000  1.0 -0.3296338873
O  O14  1  0.52300000  0.35810000  0.01450000  1.0 -0.341414201
O  O15  1  0.52300000  0.14190000  0.51450000  1.0 -0.341414201
O  O16  1  0.47700000  0.64190000  0.98550000  1.0 -0.3296338873
O  O17  1  0.56820000  0.20640000  0.02590000  1.0 -0.4142371473
O  O18  1  0.43180000  0.70640000  0.47410000  1.0 -0.4142371473
O  O19  1  0.43180000  0.79360000  0.97410000  1.0 -0.4142371473
O  O20  1  0.56820000  0.29360000  0.52590000  1.0 -0.4142371473
O  O21  1  0.58980000  0.74140000  0.06360000  1.0 -0.5978857335
O  O22  1  0.41020000  0.24140000  0.43640000  1.0 -0.5978857335
O  O23  1  0.41020000  0.25860000  0.93640000  1.0 -0.5978857335
O  O24  1  0.58980000  0.75860000  0.56360000  1.0 -0.5978857335
O  O25  1  0.58360000  0.74690000  0.17950000  1.0 -0.5790975204
O  O26  1  0.41640000  0.24690000  0.32050000  1.0 -0.5790975204
O  O27  1  0.41640000  0.25310000  0.82050000  1.0 -0.5790975204
O  O28  1  0.58360000  0.75310000  0.67950000  1.0 -0.5790975204
O  O29  1  0.66666667  0.32950000  0.37800000  1.0 -0.5259695109
O  O30  1  0.33340000  0.82950000  0.12200000  1.0 -0.5259695109
O  O31  1  0.33340000  0.67050000  0.62200000  1.0 -0.5259695109
O  O32  1  0.66666667  0.17050000  0.87800000  1.0 -0.5259695109
O  O33  1  0.41360000  0.68870000  0.09960000  1.0 -0.5227751789
O  O34  1  0.58640000  0.18870000  0.40040000  1.0 -0.5227751789
O  O35  1  0.58640000  0.31130000  0.90040000  1.0 -0.5227751789
O  O36  1  0.41360000  0.81130000  0.59960000  1.0 -0.5227751789
O  O37  1  0.88270000  0.86070000  0.16150000  1.0 -0.2305316683
O  O38  1  0.11730000  0.36070000  0.33850000  1.0 -0.2305316683
O  O39  1  0.11730000  0.13930000  0.83850000  1.0 -0.2305316683
O  O40  1  0.88270000  0.63930000  0.66150000  1.0 -0.2305316683
O  O41  1  0.11080000  0.95700000  0.07160000  1.0 -0.2223269889
O  O42  1  0.88920000  0.45700000  0.42840000  1.0 -0.2223269889
O  O43  1  0.88920000  0.04300000  0.92840000  1.0 -0.2223269889
O  O44  1  0.11080000  0.54300000  0.57160000  1.0 -0.2223269889
O  O45  1  0.92100000  0.09480000  0.17660000  1.0 -0.2121106741
O  O46  1  0.07900000  0.59480000  0.32340000  1.0 -0.2121106741
O  O47  1  0.07900000  0.90520000  0.82340000  1.0 -0.2121106741
O  O48  1  0.92100000  0.40520000  0.67660000  1.0 -0.2121106741
O  O49  1  0.93440000  0.59530000  0.19710000  1.0 -0.2223269889
O  O50  1  0.06560000  0.09530000  0.30290000  1.0 -0.2223269889
O  O51  1  0.06560000  0.40470000  0.80290000  1.0 -0.2223269889
O  O52  1  0.93440000  0.90470000  0.69710000  1.0 -0.2223269889
O  O53  1  0.12020000  0.47680000  0.06740000  1.0 -0.2223269889
O  O54  1  0.87980000  0.97680000  0.43260000  1.0 -0.2223269889
O  O55  1  0.87980000  0.52320000  0.93260000  1.0 -0.2223269889
O  O56  1  0.12020000  0.02320000  0.56740000  1.0 -0.2223269889
O  O57  1  0.88160000  0.36950000  0.12700000  1.0 -0.2305316683
O  O58  1  0.11840000  0.86950000  0.37300000  1.0 -0.2305316683
O  O59  1  0.11840000  0.63050000  0.87300000  1.0 -0.2305316683
O  O60  1  0.88160000  0.13050000  0.62700000  1.0 -0.2305316683
O  O61  1  0.56790000  0.31600000  0.28870000  1.0 -0.5641663131
O  O62  1  0.43210000  0.81600000  0.21130000  1.0 -0.5641663131
O  O63  1  0.43210000  0.68400000  0.71130000  1.0 -0.5641663131
O  O64  1  0.56790000  0.18400000  0.78870000  1.0 -0.5641663131
O  O65  1  0.56250000  0.23700000  0.13070000  1.0 -0.5669563231
O  O66  1  0.43750000  0.73700000  0.36930000  1.0 -0.5790975204
O  O67  1  0.43750000  0.76300000  0.86930000  1.0 -0.5790975204
O  O68  1  0.56250000  0.26300000  0.63070000  1.0 -0.5790975204
O  O69  1  0.40240000  0.15930000  0.17670000  1.0 -0.5790975204
O  O70  1  0.59760000  0.65930000  0.32330000  1.0 -0.5790975204
O  O71  1  0.59760000  0.84070000  0.82330000  1.0 -0.5790975204
O  O72  1  0.40240000  0.34070000  0.67670000  1.0 -0.5790975204
O  O73  1  0.41450000  0.66390000  0.21430000  1.0 -0.5669563231
O  O74  1  0.58550000  0.16390000  0.28570000  1.0 -0.5669563231
O  O75  1  0.58550000  0.33610000  0.78570000  1.0 -0.5669563231
O  O76  1  0.41450000  0.83610000  0.71430000  1.0 -0.5669563231
O  O77  1  0.52090000  0.89560000  0.09570000  1.0 -0.1830635244
O  O78  1  0.47910000  0.39560000  0.40430000  1.0 -0.1830635244
O  O79  1  0.47910000  0.10440000  0.90430000  1.0 -0.1830635244
O  O80  1  0.52090000  0.60440000  0.59570000  1.0 -0.1830635244
