# DDEC6 charges by PACMAN v1.1 (https://github.com/mtap-research/PACMAN-charge/)
data_PIRQOZ_ASR_pacman
_symmetry_space_group_name_H-M   'P 1'
_cell_length_a   40.84960000
_cell_length_b   40.84960000
_cell_length_c   40.84960000
_cell_angle_alpha   60.00000000
_cell_angle_beta   60.00000000
_cell_angle_gamma   60.00000000
_symmetry_Int_Tables_number   1
_chemical_formula_structural   U4Co3H72C144(NO2)12
_chemical_formula_sum   'U8 Co6 H144 C288 N24 O48'
_cell_volume   48200.15412893
_cell_formula_units_Z   2
loop_
 _symmetry_equiv_pos_site_id
 _symmetry_equiv_pos_as_xyz
  1  'x, y, z'
loop_
 _atom_site_type_symbol
 _atom_site_label
 _atom_site_symmetry_multiplicity
 _atom_site_fract_x
 _atom_site_fract_y
 _atom_site_fract_z
 _atom_site_occupancy
 _atom_site_charge
U  U1  1  0.34812000  0.34812000  0.34812000  1.0 2.2301308306
U  U2  1  0.34812000  0.95564000  0.34812000  1.0 2.2301308306
U  U3  1  0.34812000  0.34812000  0.95564000  1.0 2.2301308306
U  U4  1  0.95564000  0.34812000  0.34812000  1.0 2.2301308306
U  U5  1  0.65188000  0.04436000  0.65188000  1.0 2.2301308306
U  U6  1  0.65188000  0.65188000  0.65188000  1.0 2.2301308306
U  U7  1  0.65188000  0.65188000  0.04436000  1.0 2.2301308306
U  U8  1  0.04436000  0.65188000  0.65188000  1.0 2.2301308306
Co  Co1  1  0.50000000  0.50000000  0.00000000  1.0 0.6532980652
Co  Co2  1  0.00000000  0.00000000  0.50000000  1.0 0.6532980652
Co  Co3  1  0.50000000  0.00000000  0.50000000  1.0 0.6532980652
Co  Co4  1  0.00000000  0.50000000  0.00000000  1.0 0.6532980652
Co  Co5  1  0.00000000  0.50000000  0.50000000  1.0 0.6532980652
Co  Co6  1  0.50000000  0.00000000  0.00000000  1.0 0.6558343859
H  H1  1  0.45730000  0.36090000  0.21790000  1.0 0.1229954746
H  H2  1  0.48410000  0.38590000  0.14890000  1.0 0.1252807043
H  H3  1  0.21790000  0.96390000  0.45730000  1.0 0.1229954746
H  H4  1  0.14890000  0.98110000  0.48410000  1.0 0.1252807043
H  H5  1  0.36090000  0.45730000  0.96390000  1.0 0.1229954746
H  H6  1  0.38590000  0.48410000  0.98110000  1.0 0.1252807043
H  H7  1  0.96390000  0.21790000  0.36090000  1.0 0.1229954746
H  H8  1  0.98110000  0.14890000  0.38590000  1.0 0.1229954746
H  H9  1  0.36090000  0.21790000  0.45730000  1.0 0.1229954746
H  H10  1  0.38590000  0.14890000  0.48410000  1.0 0.1252807043
H  H11  1  0.96390000  0.45730000  0.21790000  1.0 0.1229954746
H  H12  1  0.98110000  0.48410000  0.14890000  1.0 0.1229954746
H  H13  1  0.45730000  0.96390000  0.36090000  1.0 0.1229954746
H  H14  1  0.48410000  0.98110000  0.38590000  1.0 0.1229954746
H  H15  1  0.21790000  0.36090000  0.96390000  1.0 0.1229954746
H  H16  1  0.14890000  0.38590000  0.98110000  1.0 0.1252807043
H  H17  1  0.21790000  0.45730000  0.36090000  1.0 0.1229954746
H  H18  1  0.14890000  0.48410000  0.38590000  1.0 0.1252807043
H  H19  1  0.45730000  0.21790000  0.96390000  1.0 0.1229954746
H  H20  1  0.48410000  0.14890000  0.98110000  1.0 0.1252807043
H  H21  1  0.96390000  0.36090000  0.45730000  1.0 0.1229954746
H  H22  1  0.98110000  0.38590000  0.48410000  1.0 0.1252807043
H  H23  1  0.36090000  0.96390000  0.21790000  1.0 0.1229954746
H  H24  1  0.38590000  0.98110000  0.14890000  1.0 0.1252807043
H  H25  1  0.54270000  0.03610000  0.78210000  1.0 0.1229954746
H  H26  1  0.51590000  0.01890000  0.85110000  1.0 0.1229954746
H  H27  1  0.78210000  0.63910000  0.54270000  1.0 0.1229954746
H  H28  1  0.85110000  0.61410000  0.51590000  1.0 0.1252807043
H  H29  1  0.63910000  0.78210000  0.03610000  1.0 0.1229954746
H  H30  1  0.61410000  0.85110000  0.01890000  1.0 0.1252807043
H  H31  1  0.03610000  0.54270000  0.63910000  1.0 0.1229954746
H  H32  1  0.01890000  0.51590000  0.61410000  1.0 0.1252807043
H  H33  1  0.63910000  0.03610000  0.54270000  1.0 0.1229954746
H  H34  1  0.61410000  0.01890000  0.51590000  1.0 0.1252807043
H  H35  1  0.03610000  0.63910000  0.78210000  1.0 0.1229954746
H  H36  1  0.01890000  0.61410000  0.85110000  1.0 0.1252807043
H  H37  1  0.54270000  0.78210000  0.63910000  1.0 0.1229954746
H  H38  1  0.51590000  0.85110000  0.61410000  1.0 0.1252807043
H  H39  1  0.78210000  0.54270000  0.03610000  1.0 0.1229954746
H  H40  1  0.85110000  0.51590000  0.01890000  1.0 0.1229954746
H  H41  1  0.78210000  0.03610000  0.63910000  1.0 0.1229954746
H  H42  1  0.85110000  0.01890000  0.61410000  1.0 0.1252807043
H  H43  1  0.54270000  0.63910000  0.03610000  1.0 0.1229954746
H  H44  1  0.51590000  0.61410000  0.01890000  1.0 0.1252807043
H  H45  1  0.03610000  0.78210000  0.54270000  1.0 0.1229954746
H  H46  1  0.01890000  0.85110000  0.51590000  1.0 0.1252807043
H  H47  1  0.63910000  0.54270000  0.78210000  1.0 0.1229954746
H  H48  1  0.61410000  0.51590000  0.85110000  1.0 0.1229954746
H  H49  1  0.54270000  0.63910000  0.78210000  1.0 0.1229954746
H  H50  1  0.51590000  0.61410000  0.85110000  1.0 0.1252807043
H  H51  1  0.78210000  0.03610000  0.54270000  1.0 0.1229954746
H  H52  1  0.85110000  0.01890000  0.51590000  1.0 0.1252807043
H  H53  1  0.63910000  0.54270000  0.03610000  1.0 0.1229954746
H  H54  1  0.61410000  0.51590000  0.01890000  1.0 0.1252807043
H  H55  1  0.03610000  0.78210000  0.63910000  1.0 0.1229954746
H  H56  1  0.01890000  0.85110000  0.61410000  1.0 0.1252807043
H  H57  1  0.63910000  0.78210000  0.54270000  1.0 0.1229954746
H  H58  1  0.61410000  0.85110000  0.51590000  1.0 0.1229954746
H  H59  1  0.03610000  0.54270000  0.78210000  1.0 0.1229954746
H  H60  1  0.01890000  0.51590000  0.85110000  1.0 0.1252807043
H  H61  1  0.54270000  0.03610000  0.63910000  1.0 0.1229954746
H  H62  1  0.51590000  0.01890000  0.61410000  1.0 0.1252807043
H  H63  1  0.78210000  0.63910000  0.03610000  1.0 0.1229954746
H  H64  1  0.85110000  0.61410000  0.01890000  1.0 0.1229954746
H  H65  1  0.78210000  0.54270000  0.63910000  1.0 0.1229954746
H  H66  1  0.85110000  0.51590000  0.61410000  1.0 0.1252807043
H  H67  1  0.54270000  0.78210000  0.03610000  1.0 0.1229954746
H  H68  1  0.51590000  0.85110000  0.01890000  1.0 0.1229954746
H  H69  1  0.03610000  0.63910000  0.54270000  1.0 0.1229954746
H  H70  1  0.01890000  0.61410000  0.51590000  1.0 0.1252807043
H  H71  1  0.63910000  0.03610000  0.78210000  1.0 0.1229954746
H  H72  1  0.61410000  0.01890000  0.85110000  1.0 0.1252807043
H  H73  1  0.45730000  0.96390000  0.21790000  1.0 0.1229954746
H  H74  1  0.48410000  0.98110000  0.14890000  1.0 0.1229954746
H  H75  1  0.21790000  0.36090000  0.45730000  1.0 0.1229954746
H  H76  1  0.14890000  0.38590000  0.48410000  1.0 0.1252807043
H  H77  1  0.36090000  0.21790000  0.96390000  1.0 0.1229954746
H  H78  1  0.38590000  0.14890000  0.98110000  1.0 0.1252807043
H  H79  1  0.96390000  0.45730000  0.36090000  1.0 0.1229954746
H  H80  1  0.98110000  0.48410000  0.38590000  1.0 0.1229954746
H  H81  1  0.36090000  0.96390000  0.45730000  1.0 0.1229954746
H  H82  1  0.38590000  0.98110000  0.48410000  1.0 0.1252807043
H  H83  1  0.96390000  0.36090000  0.21790000  1.0 0.1229954746
H  H84  1  0.98110000  0.38590000  0.14890000  1.0 0.1252807043
H  H85  1  0.45730000  0.21790000  0.36090000  1.0 0.1229954746
H  H86  1  0.48410000  0.14890000  0.38590000  1.0 0.1252807043
H  H87  1  0.21790000  0.45730000  0.96390000  1.0 0.1229954746
H  H88  1  0.14890000  0.48410000  0.98110000  1.0 0.1252807043
H  H89  1  0.21790000  0.96390000  0.36090000  1.0 0.1229954746
H  H90  1  0.14890000  0.98110000  0.38590000  1.0 0.1229954746
H  H91  1  0.45730000  0.36090000  0.96390000  1.0 0.1229954746
H  H92  1  0.48410000  0.38590000  0.98110000  1.0 0.1252807043
H  H93  1  0.96390000  0.21790000  0.45730000  1.0 0.1229954746
H  H94  1  0.98110000  0.14890000  0.48410000  1.0 0.1229954746
H  H95  1  0.36090000  0.45730000  0.21790000  1.0 0.1229954746
H  H96  1  0.38590000  0.48410000  0.14890000  1.0 0.1229954746
H  H97  1  0.41510000  0.41510000  0.11530000  1.0 0.1229954746
H  H98  1  0.47920000  0.47920000  0.14140000  1.0 0.1229954746
H  H99  1  0.11530000  0.05450000  0.41510000  1.0 0.1229954746
H  H100  1  0.14140000  0.90020000  0.47920000  1.0 0.1229954746
H  H101  1  0.41510000  0.41510000  0.05450000  1.0 0.1252807043
H  H102  1  0.47920000  0.47920000  0.90020000  1.0 0.1229954746
H  H103  1  0.05450000  0.11530000  0.41510000  1.0 0.1229954746
H  H104  1  0.90020000  0.14140000  0.47920000  1.0 0.1229954746
H  H105  1  0.41510000  0.11530000  0.41510000  1.0 0.1229954746
H  H106  1  0.47920000  0.14140000  0.47920000  1.0 0.1229954746
H  H107  1  0.05450000  0.41510000  0.11530000  1.0 0.1229954746
H  H108  1  0.90020000  0.47920000  0.14140000  1.0 0.1229954746
H  H109  1  0.41510000  0.05450000  0.41510000  1.0 0.1229954746
H  H110  1  0.47920000  0.90020000  0.47920000  1.0 0.1229954746
H  H111  1  0.11530000  0.41510000  0.05450000  1.0 0.1229954746
H  H112  1  0.14140000  0.47920000  0.90020000  1.0 0.1229954746
H  H113  1  0.11530000  0.41510000  0.41510000  1.0 0.1229954746
H  H114  1  0.14140000  0.47920000  0.47920000  1.0 0.1229954746
H  H115  1  0.41510000  0.11530000  0.05450000  1.0 0.1252807043
H  H116  1  0.47920000  0.14140000  0.90020000  1.0 0.1229954746
H  H117  1  0.05450000  0.41510000  0.41510000  1.0 0.1229954746
H  H118  1  0.90020000  0.47920000  0.47920000  1.0 0.1229954746
H  H119  1  0.41510000  0.05450000  0.11530000  1.0 0.1252807043
H  H120  1  0.47920000  0.90020000  0.14140000  1.0 0.1229954746
H  H121  1  0.58490000  0.94550000  0.88470000  1.0 0.1229954746
H  H122  1  0.52080000  0.09980000  0.85860000  1.0 0.1229954746
H  H123  1  0.88470000  0.58490000  0.58490000  1.0 0.1229954746
H  H124  1  0.85860000  0.52080000  0.52080000  1.0 0.1229954746
H  H125  1  0.58490000  0.88470000  0.94550000  1.0 0.1229954746
H  H126  1  0.52080000  0.85860000  0.09980000  1.0 0.1229954746
H  H127  1  0.94550000  0.58490000  0.58490000  1.0 0.1229954746
H  H128  1  0.09980000  0.52080000  0.52080000  1.0 0.1229954746
H  H129  1  0.58490000  0.94550000  0.58490000  1.0 0.1229954746
H  H130  1  0.52080000  0.09980000  0.52080000  1.0 0.1229954746
H  H131  1  0.94550000  0.58490000  0.88470000  1.0 0.1229954746
H  H132  1  0.09980000  0.52080000  0.85860000  1.0 0.1229954746
H  H133  1  0.58490000  0.88470000  0.58490000  1.0 0.1229954746
H  H134  1  0.52080000  0.85860000  0.52080000  1.0 0.1229954746
H  H135  1  0.88470000  0.58490000  0.94550000  1.0 0.1229954746
H  H136  1  0.85860000  0.52080000  0.09980000  1.0 0.1229954746
H  H137  1  0.88470000  0.94550000  0.58490000  1.0 0.1229954746
H  H138  1  0.85860000  0.09980000  0.52080000  1.0 0.1229954746
H  H139  1  0.58490000  0.58490000  0.94550000  1.0 0.1229954746
H  H140  1  0.52080000  0.52080000  0.09980000  1.0 0.1229954746
H  H141  1  0.94550000  0.88470000  0.58490000  1.0 0.1229954746
H  H142  1  0.09980000  0.85860000  0.52080000  1.0 0.1229954746
H  H143  1  0.58490000  0.58490000  0.88470000  1.0 0.1229954746
H  H144  1  0.52080000  0.52080000  0.85860000  1.0 0.1229954746
C  C1  1  0.44250000  0.38650000  0.20350000  1.0 -0.1015295742
C  C2  1  0.45960000  0.40180000  0.16320000  1.0 -0.1518734546
C  C3  1  0.20350000  0.96750000  0.44250000  1.0 -0.1015295742
C  C4  1  0.16320000  0.97540000  0.45960000  1.0 -0.1518734546
C  C5  1  0.38650000  0.44250000  0.96750000  1.0 -0.1015295742
C  C6  1  0.40180000  0.45960000  0.97540000  1.0 -0.1518734546
C  C7  1  0.96750000  0.20350000  0.38650000  1.0 -0.1015295742
C  C8  1  0.97540000  0.16320000  0.40180000  1.0 -0.1518734546
C  C9  1  0.38650000  0.20350000  0.44250000  1.0 -0.1015295742
C  C10  1  0.40180000  0.16320000  0.45960000  1.0 -0.1518734546
C  C11  1  0.96750000  0.44250000  0.20350000  1.0 -0.1015295742
C  C12  1  0.97540000  0.45960000  0.16320000  1.0 -0.1518734546
C  C13  1  0.44250000  0.96750000  0.38650000  1.0 -0.1015295742
C  C14  1  0.45960000  0.97540000  0.40180000  1.0 -0.1518734546
C  C15  1  0.20350000  0.38650000  0.96750000  1.0 -0.1015295742
C  C16  1  0.16320000  0.40180000  0.97540000  1.0 -0.1518734546
C  C17  1  0.20350000  0.44250000  0.38650000  1.0 -0.1015295742
C  C18  1  0.16320000  0.45960000  0.40180000  1.0 -0.1518734546
C  C19  1  0.44250000  0.20350000  0.96750000  1.0 -0.1015295742
C  C20  1  0.45960000  0.16320000  0.97540000  1.0 -0.1518734546
C  C21  1  0.96750000  0.38650000  0.44250000  1.0 -0.1015295742
C  C22  1  0.97540000  0.40180000  0.45960000  1.0 -0.1518734546
C  C23  1  0.38650000  0.96750000  0.20350000  1.0 -0.1015295742
C  C24  1  0.40180000  0.97540000  0.16320000  1.0 -0.1518734546
C  C25  1  0.55750000  0.03250000  0.79650000  1.0 -0.1015295742
C  C26  1  0.54040000  0.02460000  0.83680000  1.0 -0.1518734546
C  C27  1  0.79650000  0.61350000  0.55750000  1.0 -0.1015295742
C  C28  1  0.83680000  0.59820000  0.54040000  1.0 -0.1518734546
C  C29  1  0.61350000  0.79650000  0.03250000  1.0 -0.1015295742
C  C30  1  0.59820000  0.83680000  0.02460000  1.0 -0.1518734546
C  C31  1  0.03250000  0.55750000  0.61350000  1.0 -0.1015295742
C  C32  1  0.02460000  0.54040000  0.59820000  1.0 -0.1518734546
C  C33  1  0.61350000  0.03250000  0.55750000  1.0 -0.1015295742
C  C34  1  0.59820000  0.02460000  0.54040000  1.0 -0.1518734546
C  C35  1  0.03250000  0.61350000  0.79650000  1.0 -0.1015295742
C  C36  1  0.02460000  0.59820000  0.83680000  1.0 -0.1518734546
C  C37  1  0.55750000  0.79650000  0.61350000  1.0 -0.1015295742
C  C38  1  0.54040000  0.83680000  0.59820000  1.0 -0.1518734546
C  C39  1  0.79650000  0.55750000  0.03250000  1.0 -0.1015295742
C  C40  1  0.83680000  0.54040000  0.02460000  1.0 -0.1518734546
C  C41  1  0.79650000  0.03250000  0.61350000  1.0 -0.1015295742
C  C42  1  0.83680000  0.02460000  0.59820000  1.0 -0.1518734546
C  C43  1  0.55750000  0.61350000  0.03250000  1.0 -0.1015295742
C  C44  1  0.54040000  0.59820000  0.02460000  1.0 -0.1518734546
C  C45  1  0.03250000  0.79650000  0.55750000  1.0 -0.1015295742
C  C46  1  0.02460000  0.83680000  0.54040000  1.0 -0.1518734546
C  C47  1  0.61350000  0.55750000  0.79650000  1.0 -0.1015295742
C  C48  1  0.59820000  0.54040000  0.83680000  1.0 -0.1518734546
C  C49  1  0.55750000  0.61350000  0.79650000  1.0 -0.1015295742
C  C50  1  0.54040000  0.59820000  0.83680000  1.0 -0.1518734546
C  C51  1  0.79650000  0.03250000  0.55750000  1.0 -0.1015295742
C  C52  1  0.83680000  0.02460000  0.54040000  1.0 -0.1518734546
C  C53  1  0.61350000  0.55750000  0.03250000  1.0 -0.1015295742
C  C54  1  0.59820000  0.54040000  0.02460000  1.0 -0.1518734546
C  C55  1  0.03250000  0.79650000  0.61350000  1.0 -0.1015295742
C  C56  1  0.02460000  0.83680000  0.59820000  1.0 -0.1518734546
C  C57  1  0.61350000  0.79650000  0.55750000  1.0 -0.1015295742
C  C58  1  0.59820000  0.83680000  0.54040000  1.0 -0.1518734546
C  C59  1  0.03250000  0.55750000  0.79650000  1.0 -0.1015295742
C  C60  1  0.02460000  0.54040000  0.83680000  1.0 -0.1518734546
C  C61  1  0.55750000  0.03250000  0.61350000  1.0 -0.1015295742
C  C62  1  0.54040000  0.02460000  0.59820000  1.0 -0.1518734546
C  C63  1  0.79650000  0.61350000  0.03250000  1.0 -0.1015295742
C  C64  1  0.83680000  0.59820000  0.02460000  1.0 -0.1518734546
C  C65  1  0.79650000  0.55750000  0.61350000  1.0 -0.1015295742
C  C66  1  0.83680000  0.54040000  0.59820000  1.0 -0.1518734546
C  C67  1  0.55750000  0.79650000  0.03250000  1.0 -0.1015295742
C  C68  1  0.54040000  0.83680000  0.02460000  1.0 -0.1518734546
C  C69  1  0.03250000  0.61350000  0.55750000  1.0 -0.1015295742
C  C70  1  0.02460000  0.59820000  0.54040000  1.0 -0.1518734546
C  C71  1  0.61350000  0.03250000  0.79650000  1.0 -0.1015295742
C  C72  1  0.59820000  0.02460000  0.83680000  1.0 -0.1518734546
C  C73  1  0.44250000  0.96750000  0.20350000  1.0 -0.1015295742
C  C74  1  0.45960000  0.97540000  0.16320000  1.0 -0.1518734546
C  C75  1  0.20350000  0.38650000  0.44250000  1.0 -0.1015295742
C  C76  1  0.16320000  0.40180000  0.45960000  1.0 -0.1518734546
C  C77  1  0.38650000  0.20350000  0.96750000  1.0 -0.1015295742
C  C78  1  0.40180000  0.16320000  0.97540000  1.0 -0.1518734546
C  C79  1  0.96750000  0.44250000  0.38650000  1.0 -0.1015295742
C  C80  1  0.97540000  0.45960000  0.40180000  1.0 -0.1518734546
C  C81  1  0.38650000  0.96750000  0.44250000  1.0 -0.1015295742
C  C82  1  0.40180000  0.97540000  0.45960000  1.0 -0.1518734546
C  C83  1  0.96750000  0.38650000  0.20350000  1.0 -0.1015295742
C  C84  1  0.97540000  0.40180000  0.16320000  1.0 -0.1518734546
C  C85  1  0.44250000  0.20350000  0.38650000  1.0 -0.1015295742
C  C86  1  0.45960000  0.16320000  0.40180000  1.0 -0.1518734546
C  C87  1  0.20350000  0.44250000  0.96750000  1.0 -0.1015295742
C  C88  1  0.16320000  0.45960000  0.97540000  1.0 -0.1518734546
C  C89  1  0.20350000  0.96750000  0.38650000  1.0 -0.1015295742
C  C90  1  0.16320000  0.97540000  0.40180000  1.0 -0.1518734546
C  C91  1  0.44250000  0.38650000  0.96750000  1.0 -0.1015295742
C  C92  1  0.45960000  0.40180000  0.97540000  1.0 -0.1518734546
C  C93  1  0.96750000  0.20350000  0.44250000  1.0 -0.1015295742
C  C94  1  0.97540000  0.16320000  0.45960000  1.0 -0.1518734546
C  C95  1  0.38650000  0.44250000  0.20350000  1.0 -0.1015295742
C  C96  1  0.40180000  0.45960000  0.16320000  1.0 -0.1518734546
C  C97  1  0.38740000  0.38740000  0.26640000  1.0 0.5656918804
C  C98  1  0.40580000  0.40580000  0.22360000  1.0 -0.0673392282
C  C99  1  0.45200000  0.45200000  0.07600000  1.0 0.1913693508
C  C100  1  0.46010000  0.46010000  0.09810000  1.0 -0.0879760256
C  C101  1  0.44090000  0.44090000  0.14330000  1.0 0.09122994
C  C102  1  0.42850000  0.42850000  0.08830000  1.0 -0.200627601
C  C103  1  0.48100000  0.48100000  0.08960000  1.0 0.136641694
C  C104  1  0.48870000  0.48870000  0.11290000  1.0 -0.1766015281
C  C105  1  0.26640000  0.95880000  0.38740000  1.0 0.5628123129
C  C106  1  0.22360000  0.96480000  0.40580000  1.0 -0.0673392282
C  C107  1  0.07600000  0.02000000  0.45200000  1.0 0.1913693508
C  C108  1  0.09810000  0.98170000  0.46010000  1.0 -0.0879760256
C  C109  1  0.14330000  0.97490000  0.44090000  1.0 0.09122994
C  C110  1  0.08830000  0.05470000  0.42850000  1.0 -0.200627601
C  C111  1  0.08960000  0.94840000  0.48100000  1.0 0.136641694
C  C112  1  0.11290000  0.90970000  0.48870000  1.0 -0.1766015281
C  C113  1  0.38740000  0.38740000  0.95880000  1.0 0.5628123129
C  C114  1  0.40580000  0.40580000  0.96480000  1.0 -0.0673392282
C  C115  1  0.45200000  0.45200000  0.02000000  1.0 0.1913693508
C  C116  1  0.46010000  0.46010000  0.98170000  1.0 -0.0879760256
C  C117  1  0.44090000  0.44090000  0.97490000  1.0 0.09122994
C  C118  1  0.42850000  0.42850000  0.05470000  1.0 -0.200627601
C  C119  1  0.48100000  0.48100000  0.94840000  1.0 0.136641694
C  C120  1  0.48870000  0.48870000  0.90970000  1.0 -0.1766015281
C  C121  1  0.95880000  0.26640000  0.38740000  1.0 0.5628123129
C  C122  1  0.96480000  0.22360000  0.40580000  1.0 -0.0673392282
C  C123  1  0.02000000  0.07600000  0.45200000  1.0 0.1913693508
C  C124  1  0.98170000  0.09810000  0.46010000  1.0 -0.0879760256
C  C125  1  0.97490000  0.14330000  0.44090000  1.0 0.09122994
C  C126  1  0.05470000  0.08830000  0.42850000  1.0 -0.200627601
C  C127  1  0.94840000  0.08960000  0.48100000  1.0 0.136641694
C  C128  1  0.90970000  0.11290000  0.48870000  1.0 -0.1766015281
C  C129  1  0.38740000  0.26640000  0.38740000  1.0 0.5656918804
C  C130  1  0.40580000  0.22360000  0.40580000  1.0 -0.0673392282
C  C131  1  0.45200000  0.07600000  0.45200000  1.0 0.1913693508
C  C132  1  0.46010000  0.09810000  0.46010000  1.0 -0.0879760256
C  C133  1  0.44090000  0.14330000  0.44090000  1.0 0.09122994
C  C134  1  0.42850000  0.08830000  0.42850000  1.0 -0.200627601
C  C135  1  0.48100000  0.08960000  0.48100000  1.0 0.136641694
C  C136  1  0.48870000  0.11290000  0.48870000  1.0 -0.1766015281
C  C137  1  0.95880000  0.38740000  0.26640000  1.0 0.5628123129
C  C138  1  0.96480000  0.40580000  0.22360000  1.0 -0.0673392282
C  C139  1  0.02000000  0.45200000  0.07600000  1.0 0.1913693508
C  C140  1  0.98170000  0.46010000  0.09810000  1.0 -0.0879760256
C  C141  1  0.97490000  0.44090000  0.14330000  1.0 0.09122994
C  C142  1  0.05470000  0.42850000  0.08830000  1.0 -0.200627601
C  C143  1  0.94840000  0.48100000  0.08960000  1.0 0.136641694
C  C144  1  0.90970000  0.48870000  0.11290000  1.0 -0.1766015281
C  C145  1  0.38740000  0.95880000  0.38740000  1.0 0.5656918804
C  C146  1  0.40580000  0.96480000  0.40580000  1.0 -0.0673392282
C  C147  1  0.45200000  0.02000000  0.45200000  1.0 0.1913693508
C  C148  1  0.46010000  0.98170000  0.46010000  1.0 -0.0879760256
C  C149  1  0.44090000  0.97490000  0.44090000  1.0 0.09122994
C  C150  1  0.42850000  0.05470000  0.42850000  1.0 -0.200627601
C  C151  1  0.48100000  0.94840000  0.48100000  1.0 0.136641694
C  C152  1  0.48870000  0.90970000  0.48870000  1.0 -0.1766015281
C  C153  1  0.26640000  0.38740000  0.95880000  1.0 0.5628123129
C  C154  1  0.22360000  0.40580000  0.96480000  1.0 -0.0623650199
C  C155  1  0.07600000  0.45200000  0.02000000  1.0 0.1913693508
C  C156  1  0.09810000  0.46010000  0.98170000  1.0 -0.0879760256
C  C157  1  0.14330000  0.44090000  0.97490000  1.0 0.09122994
C  C158  1  0.08830000  0.42850000  0.05470000  1.0 -0.200627601
C  C159  1  0.08960000  0.48100000  0.94840000  1.0 0.136641694
C  C160  1  0.11290000  0.48870000  0.90970000  1.0 -0.1766015281
C  C161  1  0.26640000  0.38740000  0.38740000  1.0 0.5656918804
C  C162  1  0.22360000  0.40580000  0.40580000  1.0 -0.0673392282
C  C163  1  0.07600000  0.45200000  0.45200000  1.0 0.1913693508
C  C164  1  0.09810000  0.46010000  0.46010000  1.0 -0.0879760256
C  C165  1  0.14330000  0.44090000  0.44090000  1.0 0.09122994
C  C166  1  0.08830000  0.42850000  0.42850000  1.0 -0.200627601
C  C167  1  0.08960000  0.48100000  0.48100000  1.0 0.136641694
C  C168  1  0.11290000  0.48870000  0.48870000  1.0 -0.1766015281
C  C169  1  0.38740000  0.26640000  0.95880000  1.0 0.5628123129
C  C170  1  0.40580000  0.22360000  0.96480000  1.0 -0.0623650199
C  C171  1  0.45200000  0.07600000  0.02000000  1.0 0.1913693508
C  C172  1  0.46010000  0.09810000  0.98170000  1.0 -0.0879760256
C  C173  1  0.44090000  0.14330000  0.97490000  1.0 0.09122994
C  C174  1  0.42850000  0.08830000  0.05470000  1.0 -0.200627601
C  C175  1  0.48100000  0.08960000  0.94840000  1.0 0.136641694
C  C176  1  0.48870000  0.11290000  0.90970000  1.0 -0.1766015281
C  C177  1  0.95880000  0.38740000  0.38740000  1.0 0.5628123129
C  C178  1  0.96480000  0.40580000  0.40580000  1.0 -0.0673392282
C  C179  1  0.02000000  0.45200000  0.45200000  1.0 0.1913693508
C  C180  1  0.98170000  0.46010000  0.46010000  1.0 -0.0879760256
C  C181  1  0.97490000  0.44090000  0.44090000  1.0 0.09122994
C  C182  1  0.05470000  0.42850000  0.42850000  1.0 -0.200627601
C  C183  1  0.94840000  0.48100000  0.48100000  1.0 0.136641694
C  C184  1  0.90970000  0.48870000  0.48870000  1.0 -0.1766015281
C  C185  1  0.38740000  0.95880000  0.26640000  1.0 0.5628123129
C  C186  1  0.40580000  0.96480000  0.22360000  1.0 -0.0673392282
C  C187  1  0.45200000  0.02000000  0.07600000  1.0 0.1913693508
C  C188  1  0.46010000  0.98170000  0.09810000  1.0 -0.0879760256
C  C189  1  0.44090000  0.97490000  0.14330000  1.0 0.09122994
C  C190  1  0.42850000  0.05470000  0.08830000  1.0 -0.200627601
C  C191  1  0.48100000  0.94840000  0.08960000  1.0 0.136641694
C  C192  1  0.48870000  0.90970000  0.11290000  1.0 -0.1766015281
C  C193  1  0.61260000  0.04120000  0.73360000  1.0 0.5656918804
C  C194  1  0.59420000  0.03520000  0.77640000  1.0 -0.0623650199
C  C195  1  0.54800000  0.98000000  0.92400000  1.0 0.1913693508
C  C196  1  0.53990000  0.01830000  0.90190000  1.0 -0.0879760256
C  C197  1  0.55910000  0.02510000  0.85670000  1.0 0.09122994
C  C198  1  0.57150000  0.94530000  0.91170000  1.0 -0.200627601
C  C199  1  0.51900000  0.05160000  0.91040000  1.0 0.136641694
C  C200  1  0.51130000  0.09030000  0.88710000  1.0 -0.1766015281
C  C201  1  0.73360000  0.61260000  0.61260000  1.0 0.5628123129
C  C202  1  0.77640000  0.59420000  0.59420000  1.0 -0.0623650199
C  C203  1  0.92400000  0.54800000  0.54800000  1.0 0.1913693508
C  C204  1  0.90190000  0.53990000  0.53990000  1.0 -0.0879760256
C  C205  1  0.85670000  0.55910000  0.55910000  1.0 0.09122994
C  C206  1  0.91170000  0.57150000  0.57150000  1.0 -0.200627601
C  C207  1  0.91040000  0.51900000  0.51900000  1.0 0.136641694
C  C208  1  0.88710000  0.51130000  0.51130000  1.0 -0.1766015281
C  C209  1  0.61260000  0.73360000  0.04120000  1.0 0.5628123129
C  C210  1  0.59420000  0.77640000  0.03520000  1.0 -0.0623650199
C  C211  1  0.54800000  0.92400000  0.98000000  1.0 0.1913693508
C  C212  1  0.53990000  0.90190000  0.01830000  1.0 -0.0879760256
C  C213  1  0.55910000  0.85670000  0.02510000  1.0 0.09122994
C  C214  1  0.57150000  0.91170000  0.94530000  1.0 -0.200627601
C  C215  1  0.51900000  0.91040000  0.05160000  1.0 0.136641694
C  C216  1  0.51130000  0.88710000  0.09030000  1.0 -0.1766015281
C  C217  1  0.04120000  0.61260000  0.61260000  1.0 0.5656918804
C  C218  1  0.03520000  0.59420000  0.59420000  1.0 -0.0673392282
C  C219  1  0.98000000  0.54800000  0.54800000  1.0 0.1913693508
C  C220  1  0.01830000  0.53990000  0.53990000  1.0 -0.0879760256
C  C221  1  0.02510000  0.55910000  0.55910000  1.0 0.09122994
C  C222  1  0.94530000  0.57150000  0.57150000  1.0 -0.200627601
C  C223  1  0.05160000  0.51900000  0.51900000  1.0 0.136641694
C  C224  1  0.09030000  0.51130000  0.51130000  1.0 -0.1766015281
C  C225  1  0.61260000  0.04120000  0.61260000  1.0 0.5628123129
C  C226  1  0.59420000  0.03520000  0.59420000  1.0 -0.0673392282
C  C227  1  0.54800000  0.98000000  0.54800000  1.0 0.1913693508
C  C228  1  0.53990000  0.01830000  0.53990000  1.0 -0.0879760256
C  C229  1  0.55910000  0.02510000  0.55910000  1.0 0.09122994
C  C230  1  0.57150000  0.94530000  0.57150000  1.0 -0.200627601
C  C231  1  0.51900000  0.05160000  0.51900000  1.0 0.136641694
C  C232  1  0.51130000  0.09030000  0.51130000  1.0 -0.1766015281
C  C233  1  0.04120000  0.61260000  0.73360000  1.0 0.5628123129
C  C234  1  0.03520000  0.59420000  0.77640000  1.0 -0.0673392282
C  C235  1  0.98000000  0.54800000  0.92400000  1.0 0.1913693508
C  C236  1  0.01830000  0.53990000  0.90190000  1.0 -0.0879760256
C  C237  1  0.02510000  0.55910000  0.85670000  1.0 0.09122994
C  C238  1  0.94530000  0.57150000  0.91170000  1.0 -0.200627601
C  C239  1  0.05160000  0.51900000  0.91040000  1.0 0.136641694
C  C240  1  0.09030000  0.51130000  0.88710000  1.0 -0.1766015281
C  C241  1  0.61260000  0.73360000  0.61260000  1.0 0.5628123129
C  C242  1  0.59420000  0.77640000  0.59420000  1.0 -0.0673392282
C  C243  1  0.54800000  0.92400000  0.54800000  1.0 0.1913693508
C  C244  1  0.53990000  0.90190000  0.53990000  1.0 -0.0879760256
C  C245  1  0.55910000  0.85670000  0.55910000  1.0 0.09122994
C  C246  1  0.57150000  0.91170000  0.57150000  1.0 -0.200627601
C  C247  1  0.51900000  0.91040000  0.51900000  1.0 0.136641694
C  C248  1  0.51130000  0.88710000  0.51130000  1.0 -0.1766015281
C  C249  1  0.73360000  0.61260000  0.04120000  1.0 0.5656918804
C  C250  1  0.77640000  0.59420000  0.03520000  1.0 -0.0623650199
C  C251  1  0.92400000  0.54800000  0.98000000  1.0 0.1913693508
C  C252  1  0.90190000  0.53990000  0.01830000  1.0 -0.0879760256
C  C253  1  0.85670000  0.55910000  0.02510000  1.0 0.09122994
C  C254  1  0.91170000  0.57150000  0.94530000  1.0 -0.200627601
C  C255  1  0.91040000  0.51900000  0.05160000  1.0 0.136641694
C  C256  1  0.88710000  0.51130000  0.09030000  1.0 -0.1766015281
C  C257  1  0.73360000  0.04120000  0.61260000  1.0 0.5628123129
C  C258  1  0.77640000  0.03520000  0.59420000  1.0 -0.0673392282
C  C259  1  0.92400000  0.98000000  0.54800000  1.0 0.1913693508
C  C260  1  0.90190000  0.01830000  0.53990000  1.0 -0.0879760256
C  C261  1  0.85670000  0.02510000  0.55910000  1.0 0.09122994
C  C262  1  0.91170000  0.94530000  0.57150000  1.0 -0.200627601
C  C263  1  0.91040000  0.05160000  0.51900000  1.0 0.136641694
C  C264  1  0.88710000  0.09030000  0.51130000  1.0 -0.1766015281
C  C265  1  0.61260000  0.61260000  0.04120000  1.0 0.5628123129
C  C266  1  0.59420000  0.59420000  0.03520000  1.0 -0.0623650199
C  C267  1  0.54800000  0.54800000  0.98000000  1.0 0.1913693508
C  C268  1  0.53990000  0.53990000  0.01830000  1.0 -0.0879760256
C  C269  1  0.55910000  0.55910000  0.02510000  1.0 0.09122994
C  C270  1  0.57150000  0.57150000  0.94530000  1.0 -0.200627601
C  C271  1  0.51900000  0.51900000  0.05160000  1.0 0.136641694
C  C272  1  0.51130000  0.51130000  0.09030000  1.0 -0.1766015281
C  C273  1  0.04120000  0.73360000  0.61260000  1.0 0.5628123129
C  C274  1  0.03520000  0.77640000  0.59420000  1.0 -0.0673392282
C  C275  1  0.98000000  0.92400000  0.54800000  1.0 0.1913693508
C  C276  1  0.01830000  0.90190000  0.53990000  1.0 -0.0879760256
C  C277  1  0.02510000  0.85670000  0.55910000  1.0 0.09122994
C  C278  1  0.94530000  0.91170000  0.57150000  1.0 -0.200627601
C  C279  1  0.05160000  0.91040000  0.51900000  1.0 0.136641694
C  C280  1  0.09030000  0.88710000  0.51130000  1.0 -0.1766015281
C  C281  1  0.61260000  0.61260000  0.73360000  1.0 0.5628123129
C  C282  1  0.59420000  0.59420000  0.77640000  1.0 -0.0623650199
C  C283  1  0.54800000  0.54800000  0.92400000  1.0 0.1913693508
C  C284  1  0.53990000  0.53990000  0.90190000  1.0 -0.0879760256
C  C285  1  0.55910000  0.55910000  0.85670000  1.0 0.09122994
C  C286  1  0.57150000  0.57150000  0.91170000  1.0 -0.200627601
C  C287  1  0.51900000  0.51900000  0.91040000  1.0 0.136641694
C  C288  1  0.51130000  0.51130000  0.88710000  1.0 -0.1766015281
N  N1  1  0.46410000  0.46410000  0.03590000  1.0 -0.3036229271
N  N2  1  0.03590000  0.03590000  0.46410000  1.0 -0.3036229271
N  N3  1  0.46410000  0.03590000  0.46410000  1.0 -0.3036229271
N  N4  1  0.03590000  0.46410000  0.03590000  1.0 -0.3036229271
N  N5  1  0.03590000  0.46410000  0.46410000  1.0 -0.3036229271
N  N6  1  0.46410000  0.03590000  0.03590000  1.0 -0.3036229271
N  N7  1  0.53590000  0.96410000  0.96410000  1.0 -0.3036229271
N  N8  1  0.96410000  0.53590000  0.53590000  1.0 -0.3036229271
N  N9  1  0.53590000  0.96410000  0.53590000  1.0 -0.3036229271
N  N10  1  0.96410000  0.53590000  0.96410000  1.0 -0.3036229271
N  N11  1  0.96410000  0.96410000  0.53590000  1.0 -0.3036229271
N  N12  1  0.53590000  0.53590000  0.96410000  1.0 -0.3036229271
N  N13  1  0.50000000  0.50000000  0.04840000  1.0 -0.4041794119
N  N14  1  0.04840000  0.95160000  0.50000000  1.0 -0.4041794119
N  N15  1  0.50000000  0.50000000  0.95160000  1.0 -0.4041794119
N  N16  1  0.95160000  0.04840000  0.50000000  1.0 -0.4058625458
N  N17  1  0.50000000  0.04840000  0.50000000  1.0 -0.4058625458
N  N18  1  0.95160000  0.50000000  0.04840000  1.0 -0.4041794119
N  N19  1  0.50000000  0.95160000  0.50000000  1.0 -0.4041794119
N  N20  1  0.04840000  0.50000000  0.95160000  1.0 -0.4041794119
N  N21  1  0.04840000  0.50000000  0.50000000  1.0 -0.4041794119
N  N22  1  0.50000000  0.04840000  0.95160000  1.0 -0.4041794119
N  N23  1  0.95160000  0.50000000  0.50000000  1.0 -0.4041794119
N  N24  1  0.50000000  0.95160000  0.04840000  1.0 -0.4041794119
O  O1  1  0.40450000  0.35170000  0.28810000  1.0 -0.6197312097
O  O2  1  0.28810000  0.95570000  0.40450000  1.0 -0.6197312097
O  O3  1  0.35170000  0.40450000  0.95570000  1.0 -0.6197312097
O  O4  1  0.95570000  0.28810000  0.35170000  1.0 -0.6197312097
O  O5  1  0.35170000  0.28810000  0.40450000  1.0 -0.6197312097
O  O6  1  0.95570000  0.40450000  0.28810000  1.0 -0.6197312097
O  O7  1  0.40450000  0.95570000  0.35170000  1.0 -0.6197312097
O  O8  1  0.28810000  0.35170000  0.95570000  1.0 -0.6197312097
O  O9  1  0.28810000  0.40450000  0.35170000  1.0 -0.6197312097
O  O10  1  0.40450000  0.28810000  0.95570000  1.0 -0.6197312097
O  O11  1  0.95570000  0.35170000  0.40450000  1.0 -0.6197312097
O  O12  1  0.35170000  0.95570000  0.28810000  1.0 -0.6197312097
O  O13  1  0.59550000  0.04430000  0.71190000  1.0 -0.6197312097
O  O14  1  0.71190000  0.64830000  0.59550000  1.0 -0.6197312097
O  O15  1  0.64830000  0.71190000  0.04430000  1.0 -0.6197312097
O  O16  1  0.04430000  0.59550000  0.64830000  1.0 -0.6197312097
O  O17  1  0.64830000  0.04430000  0.59550000  1.0 -0.6197312097
O  O18  1  0.04430000  0.64830000  0.71190000  1.0 -0.6197312097
O  O19  1  0.59550000  0.71190000  0.64830000  1.0 -0.6197312097
O  O20  1  0.71190000  0.59550000  0.04430000  1.0 -0.6197312097
O  O21  1  0.71190000  0.04430000  0.64830000  1.0 -0.6197312097
O  O22  1  0.59550000  0.64830000  0.04430000  1.0 -0.6197312097
O  O23  1  0.04430000  0.71190000  0.59550000  1.0 -0.6197312097
O  O24  1  0.64830000  0.59550000  0.71190000  1.0 -0.6197312097
O  O25  1  0.59550000  0.64830000  0.71190000  1.0 -0.6197312097
O  O26  1  0.71190000  0.04430000  0.59550000  1.0 -0.6197312097
O  O27  1  0.64830000  0.59550000  0.04430000  1.0 -0.6197312097
O  O28  1  0.04430000  0.71190000  0.64830000  1.0 -0.6197312097
O  O29  1  0.64830000  0.71190000  0.59550000  1.0 -0.6197312097
O  O30  1  0.04430000  0.59550000  0.71190000  1.0 -0.6197312097
O  O31  1  0.59550000  0.04430000  0.64830000  1.0 -0.6197312097
O  O32  1  0.71190000  0.64830000  0.04430000  1.0 -0.6197312097
O  O33  1  0.71190000  0.59550000  0.64830000  1.0 -0.6197312097
O  O34  1  0.59550000  0.71190000  0.04430000  1.0 -0.6197312097
O  O35  1  0.04430000  0.64830000  0.59550000  1.0 -0.6197312097
O  O36  1  0.64830000  0.04430000  0.71190000  1.0 -0.6197312097
O  O37  1  0.40450000  0.95570000  0.28810000  1.0 -0.6197312097
O  O38  1  0.28810000  0.35170000  0.40450000  1.0 -0.6197312097
O  O39  1  0.35170000  0.28810000  0.95570000  1.0 -0.6197312097
O  O40  1  0.95570000  0.40450000  0.35170000  1.0 -0.6197312097
O  O41  1  0.35170000  0.95570000  0.40450000  1.0 -0.6197312097
O  O42  1  0.95570000  0.35170000  0.28810000  1.0 -0.6197312097
O  O43  1  0.40450000  0.28810000  0.35170000  1.0 -0.6197312097
O  O44  1  0.28810000  0.40450000  0.95570000  1.0 -0.6197312097
O  O45  1  0.28810000  0.95570000  0.35170000  1.0 -0.6197312097
O  O46  1  0.40450000  0.35170000  0.95570000  1.0 -0.6197312097
O  O47  1  0.95570000  0.28810000  0.40450000  1.0 -0.6197312097
O  O48  1  0.35170000  0.40450000  0.28810000  1.0 -0.6197312097
