# DDEC6 charges by PACMAN v1.1 (https://github.com/mtap-research/PACMAN-charge/)
data_PITPIT_ASR_pacman
_symmetry_space_group_name_H-M   'P 1'
_cell_length_a   25.34620000
_cell_length_b   25.34620000
_cell_length_c   25.34620000
_cell_angle_alpha   61.02260000
_cell_angle_beta   61.02260000
_cell_angle_gamma   61.02260000
_symmetry_Int_Tables_number   1
_chemical_formula_structural   Cd9H183C207N3O59
_chemical_formula_sum   'Cd18 H366 C414 N6 O118'
_cell_volume   11779.10025726
_cell_formula_units_Z   2
loop_
 _symmetry_equiv_pos_site_id
 _symmetry_equiv_pos_as_xyz
  1  'x, y, z'
loop_
 _atom_site_type_symbol
 _atom_site_label
 _atom_site_symmetry_multiplicity
 _atom_site_fract_x
 _atom_site_fract_y
 _atom_site_fract_z
 _atom_site_occupancy
 _atom_site_charge
Cd  Cd1  1  0.29545000  0.18763000  0.34758000  1.0 1.0061439774
Cd  Cd2  1  0.18763000  0.34758000  0.29545000  1.0 1.0049237511
Cd  Cd3  1  0.34758000  0.29545000  0.18763000  1.0 1.0061439774
Cd  Cd4  1  0.79545000  0.84758000  0.68763000  1.0 1.0061439774
Cd  Cd5  1  0.68763000  0.79545000  0.84758000  1.0 1.0061439774
Cd  Cd6  1  0.84758000  0.68763000  0.79545000  1.0 1.0061439774
Cd  Cd7  1  0.18885000  0.15586000  0.32012000  1.0 1.0328425667
Cd  Cd8  1  0.15586000  0.32012000  0.18885000  1.0 1.0328425667
Cd  Cd9  1  0.32012000  0.18885000  0.15586000  1.0 1.0328425667
Cd  Cd10  1  0.68885000  0.82012000  0.65586000  1.0 1.0328425667
Cd  Cd11  1  0.65586000  0.68885000  0.82012000  1.0 1.0328425667
Cd  Cd12  1  0.82012000  0.65586000  0.68885000  1.0 1.0328425667
Cd  Cd13  1  0.54885000  0.54885000  0.54885000  1.0 0.8378280899
Cd  Cd14  1  0.04885000  0.04885000  0.04885000  1.0 0.8378280899
Cd  Cd15  1  0.49303000  0.49303000  0.49303000  1.0 1.1154684326
Cd  Cd16  1  0.99303000  0.99303000  0.99303000  1.0 1.1154684326
Cd  Cd17  1  0.43712000  0.43712000  0.43712000  1.0 0.9580264291
Cd  Cd18  1  0.93712000  0.93712000  0.93712000  1.0 0.9580264291
H  H1  1  0.76530000  0.41780000  0.46320000  1.0 0.1193861533
H  H2  1  0.41780000  0.46320000  0.76530000  1.0 0.1193861533
H  H3  1  0.46320000  0.76530000  0.41780000  1.0 0.1193861533
H  H4  1  0.26530000  0.96320000  0.91780000  1.0 0.1193861533
H  H5  1  0.91780000  0.26530000  0.96320000  1.0 0.1193861533
H  H6  1  0.96320000  0.91780000  0.26530000  1.0 0.1193861533
H  H7  1  0.84800000  0.35700000  0.39720000  1.0 0.1193861533
H  H8  1  0.35700000  0.39720000  0.84800000  1.0 0.1193861533
H  H9  1  0.39720000  0.84800000  0.35700000  1.0 0.1193861533
H  H10  1  0.34800000  0.89720000  0.85700000  1.0 0.1193861533
H  H11  1  0.85700000  0.34800000  0.89720000  1.0 0.1193861533
H  H12  1  0.89720000  0.85700000  0.34800000  1.0 0.1193861533
H  H13  1  0.82730000  0.33790000  0.33020000  1.0 0.1473036722
H  H14  1  0.33790000  0.33020000  0.82730000  1.0 0.1473036722
H  H15  1  0.33020000  0.82730000  0.33790000  1.0 0.1473036722
H  H16  1  0.32730000  0.83020000  0.83790000  1.0 0.1473036722
H  H17  1  0.83790000  0.32730000  0.83020000  1.0 0.1473036722
H  H18  1  0.83020000  0.83790000  0.32730000  1.0 0.1473036722
H  H19  1  0.64100000  0.44250000  0.38970000  1.0 0.1303139544
H  H20  1  0.44250000  0.38970000  0.64100000  1.0 0.1303139544
H  H21  1  0.38970000  0.64100000  0.44250000  1.0 0.1303139544
H  H22  1  0.14100000  0.88970000  0.94250000  1.0 0.1303139544
H  H23  1  0.94250000  0.14100000  0.88970000  1.0 0.1303139544
H  H24  1  0.88970000  0.94250000  0.14100000  1.0 0.1303139544
H  H25  1  0.62880000  0.38230000  0.35080000  1.0 0.0984976157
H  H26  1  0.38230000  0.35080000  0.62880000  1.0 0.0984976157
H  H27  1  0.35080000  0.62880000  0.38230000  1.0 0.0984976157
H  H28  1  0.12880000  0.85080000  0.88230000  1.0 0.0984976157
H  H29  1  0.88230000  0.12880000  0.85080000  1.0 0.0984976157
H  H30  1  0.85080000  0.88230000  0.12880000  1.0 0.0984976157
H  H31  1  0.64360000  0.44670000  0.29800000  1.0 0.0917140234
H  H32  1  0.44670000  0.29800000  0.64360000  1.0 0.0917140234
H  H33  1  0.29800000  0.64360000  0.44670000  1.0 0.0917140234
H  H34  1  0.14360000  0.79800000  0.94670000  1.0 0.0917140234
H  H35  1  0.94670000  0.14360000  0.79800000  1.0 0.0917140234
H  H36  1  0.79800000  0.94670000  0.14360000  1.0 0.0917140234
H  H37  1  0.66030000  0.51650000  0.17190000  1.0 0.1403352818
H  H38  1  0.51650000  0.17190000  0.66030000  1.0 0.1403352818
H  H39  1  0.17190000  0.66030000  0.51650000  1.0 0.1403352818
H  H40  1  0.16030000  0.67190000  0.01650000  1.0 0.1403352818
H  H41  1  0.01650000  0.16030000  0.67190000  1.0 0.1403352818
H  H42  1  0.67190000  0.01650000  0.16030000  1.0 0.1403352818
H  H43  1  0.71010000  0.47400000  0.21020000  1.0 0.1303139544
H  H44  1  0.47400000  0.21020000  0.71010000  1.0 0.1303139544
H  H45  1  0.21020000  0.71010000  0.47400000  1.0 0.1303139544
H  H46  1  0.21010000  0.71020000  0.97400000  1.0 0.1303139544
H  H47  1  0.97400000  0.21010000  0.71020000  1.0 0.1303139544
H  H48  1  0.71020000  0.97400000  0.21010000  1.0 0.1303139544
H  H49  1  0.73340000  0.48330000  0.13620000  1.0 0.1303139544
H  H50  1  0.48330000  0.13620000  0.73340000  1.0 0.1303139544
H  H51  1  0.13620000  0.73340000  0.48330000  1.0 0.1303139544
H  H52  1  0.23340000  0.63620000  0.98330000  1.0 0.1303139544
H  H53  1  0.98330000  0.23340000  0.63620000  1.0 0.1303139544
H  H54  1  0.63620000  0.98330000  0.23340000  1.0 0.1303139544
H  H55  1  0.59110000  0.29270000  0.36080000  1.0 0.1473036722
H  H56  1  0.29270000  0.36080000  0.59110000  1.0 0.1473036722
H  H57  1  0.36080000  0.59110000  0.29270000  1.0 0.1473036722
H  H58  1  0.09110000  0.86080000  0.79270000  1.0 0.1550026736
H  H59  1  0.79270000  0.09110000  0.86080000  1.0 0.1473036722
H  H60  1  0.86080000  0.79270000  0.09110000  1.0 0.1473036722
H  H61  1  0.65840000  0.23790000  0.34590000  1.0 0.1303139544
H  H62  1  0.23790000  0.34590000  0.65840000  1.0 0.1303139544
H  H63  1  0.34590000  0.65840000  0.23790000  1.0 0.1303139544
H  H64  1  0.15840000  0.84590000  0.73790000  1.0 0.1303139544
H  H65  1  0.73790000  0.15840000  0.84590000  1.0 0.1303139544
H  H66  1  0.84590000  0.73790000  0.15840000  1.0 0.1303139544
H  H67  1  0.65120000  0.29130000  0.36780000  1.0 0.1303139544
H  H68  1  0.29130000  0.36780000  0.65120000  1.0 0.1303139544
H  H69  1  0.36780000  0.65120000  0.29130000  1.0 0.1303139544
H  H70  1  0.15120000  0.86780000  0.79130000  1.0 0.1303139544
H  H71  1  0.79130000  0.15120000  0.86780000  1.0 0.1303139544
H  H72  1  0.86780000  0.79130000  0.15120000  1.0 0.1303139544
H  H73  1  0.64030000  0.34820000  0.10430000  1.0 0.1403352818
H  H74  1  0.34820000  0.10430000  0.64030000  1.0 0.1403352818
H  H75  1  0.10430000  0.64030000  0.34820000  1.0 0.1403352818
H  H76  1  0.14030000  0.60430000  0.84820000  1.0 0.1403352818
H  H77  1  0.84820000  0.14030000  0.60430000  1.0 0.1403352818
H  H78  1  0.60430000  0.84820000  0.14030000  1.0 0.1403352818
H  H79  1  0.71320000  0.34590000  0.06910000  1.0 0.1303139544
H  H80  1  0.34590000  0.06910000  0.71320000  1.0 0.1303139544
H  H81  1  0.06910000  0.71320000  0.34590000  1.0 0.1303139544
H  H82  1  0.21320000  0.56910000  0.84590000  1.0 0.1303139544
H  H83  1  0.84590000  0.21320000  0.56910000  1.0 0.1303139544
H  H84  1  0.56910000  0.84590000  0.21320000  1.0 0.1303139544
H  H85  1  0.69600000  0.28290000  0.12140000  1.0 0.1303139544
H  H86  1  0.28290000  0.12140000  0.69600000  1.0 0.1303139544
H  H87  1  0.12140000  0.69600000  0.28290000  1.0 0.1303139544
H  H88  1  0.19600000  0.62140000  0.78290000  1.0 0.1303139544
H  H89  1  0.78290000  0.19600000  0.62140000  1.0 0.1303139544
H  H90  1  0.62140000  0.78290000  0.19600000  1.0 0.1303139544
H  H91  1  0.69840000  0.48800000  0.07260000  1.0 0.0984976157
H  H92  1  0.48800000  0.07260000  0.69840000  1.0 0.0984976157
H  H93  1  0.07260000  0.69840000  0.48800000  1.0 0.0984976157
H  H94  1  0.19840000  0.57260000  0.98800000  1.0 0.0984976157
H  H95  1  0.98800000  0.19840000  0.57260000  1.0 0.0984976157
H  H96  1  0.57260000  0.98800000  0.19840000  1.0 0.0984976157
H  H97  1  0.68700000  0.44400000  0.05240000  1.0 0.0984976157
H  H98  1  0.44400000  0.05240000  0.68700000  1.0 0.0984976157
H  H99  1  0.05240000  0.68700000  0.44400000  1.0 0.0984976157
H  H100  1  0.18700000  0.55240000  0.94400000  1.0 0.0984976157
H  H101  1  0.94400000  0.18700000  0.55240000  1.0 0.0984976157
H  H102  1  0.55240000  0.94400000  0.18700000  1.0 0.0984976157
H  H103  1  0.89310000  0.37720000  0.99380000  1.0 0.1403352818
H  H104  1  0.37720000  0.99380000  0.89310000  1.0 0.1403352818
H  H105  1  0.99380000  0.89310000  0.37720000  1.0 0.1403352818
H  H106  1  0.39310000  0.49380000  0.87720000  1.0 0.1403352818
H  H107  1  0.87720000  0.39310000  0.49380000  1.0 0.1403352818
H  H108  1  0.49380000  0.87720000  0.39310000  1.0 0.1403352818
H  H109  1  0.95040000  0.42340000  0.88970000  1.0 0.1135583894
H  H110  1  0.42340000  0.88970000  0.95040000  1.0 0.1135583894
H  H111  1  0.88970000  0.95040000  0.42340000  1.0 0.1135583894
H  H112  1  0.45040000  0.38970000  0.92340000  1.0 0.1135583894
H  H113  1  0.92340000  0.45040000  0.38970000  1.0 0.1135583894
H  H114  1  0.38970000  0.92340000  0.45040000  1.0 0.1135583894
H  H115  1  0.89900000  0.51420000  0.82120000  1.0 0.1193861533
H  H116  1  0.51420000  0.82120000  0.89900000  1.0 0.1303139544
H  H117  1  0.82120000  0.89900000  0.51420000  1.0 0.1193861533
H  H118  1  0.39900000  0.32120000  0.01420000  1.0 0.1193861533
H  H119  1  0.01420000  0.39900000  0.32120000  1.0 0.1193861533
H  H120  1  0.32120000  0.01420000  0.39900000  1.0 0.1193861533
H  H121  1  0.72840000  0.51320000  0.96310000  1.0 0.1303139544
H  H122  1  0.51320000  0.96310000  0.72840000  1.0 0.1303139544
H  H123  1  0.96310000  0.72840000  0.51320000  1.0 0.1303139544
H  H124  1  0.22840000  0.46310000  0.01320000  1.0 0.1303139544
H  H125  1  0.01320000  0.22840000  0.46310000  1.0 0.1303139544
H  H126  1  0.46310000  0.01320000  0.22840000  1.0 0.1303139544
H  H127  1  0.66240000  0.21430000  0.28180000  1.0 0.0984976157
H  H128  1  0.21430000  0.28180000  0.66240000  1.0 0.0984976157
H  H129  1  0.28180000  0.66240000  0.21430000  1.0 0.0984976157
H  H130  1  0.16240000  0.78180000  0.71430000  1.0 0.0984976157
H  H131  1  0.71430000  0.16240000  0.78180000  1.0 0.0984976157
H  H132  1  0.78180000  0.71430000  0.16240000  1.0 0.0984976157
H  H133  1  0.68570000  0.22580000  0.20680000  1.0 0.0917140234
H  H134  1  0.22580000  0.20680000  0.68570000  1.0 0.0917140234
H  H135  1  0.20680000  0.68570000  0.22580000  1.0 0.0917140234
H  H136  1  0.18570000  0.70680000  0.72580000  1.0 0.0917140234
H  H137  1  0.72580000  0.18570000  0.70680000  1.0 0.0917140234
H  H138  1  0.70680000  0.72580000  0.18570000  1.0 0.0917140234
H  H139  1  0.65960000  0.13910000  0.25540000  1.0 0.1303139544
H  H140  1  0.13910000  0.25540000  0.65960000  1.0 0.1303139544
H  H141  1  0.25540000  0.65960000  0.13910000  1.0 0.1303139544
H  H142  1  0.15960000  0.75540000  0.63910000  1.0 0.1303139544
H  H143  1  0.63910000  0.15960000  0.75540000  1.0 0.1303139544
H  H144  1  0.75540000  0.63910000  0.15960000  1.0 0.1303139544
H  H145  1  0.62420000  0.06110000  0.27250000  1.0 0.1135583894
H  H146  1  0.06110000  0.27250000  0.62420000  1.0 0.1135583894
H  H147  1  0.27250000  0.62420000  0.06110000  1.0 0.1135583894
H  H148  1  0.12420000  0.77250000  0.56110000  1.0 0.1135583894
H  H149  1  0.56110000  0.12420000  0.77250000  1.0 0.1135583894
H  H150  1  0.77250000  0.56110000  0.12420000  1.0 0.1135583894
H  H151  1  0.51710000  0.08350000  0.29150000  1.0 0.1193861533
H  H152  1  0.08350000  0.29150000  0.51710000  1.0 0.1193861533
H  H153  1  0.29150000  0.51710000  0.08350000  1.0 0.1193861533
H  H154  1  0.01710000  0.79150000  0.58350000  1.0 0.1193861533
H  H155  1  0.58350000  0.01710000  0.79150000  1.0 0.1193861533
H  H156  1  0.79150000  0.58350000  0.01710000  1.0 0.1193861533
H  H157  1  0.48330000  0.26860000  0.25690000  1.0 0.1473036722
H  H158  1  0.26860000  0.25690000  0.48330000  1.0 0.1473036722
H  H159  1  0.25690000  0.48330000  0.26860000  1.0 0.1473036722
H  H160  1  0.98330000  0.75690000  0.76860000  1.0 0.1473036722
H  H161  1  0.76860000  0.98330000  0.75690000  1.0 0.1473036722
H  H162  1  0.75690000  0.76860000  0.98330000  1.0 0.1473036722
H  H163  1  0.34260000  0.57940000  0.56230000  1.0 0.1303139544
H  H164  1  0.57940000  0.56230000  0.34260000  1.0 0.1303139544
H  H165  1  0.56230000  0.34260000  0.57940000  1.0 0.1303139544
H  H166  1  0.84260000  0.06230000  0.07940000  1.0 0.1303139544
H  H167  1  0.07940000  0.84260000  0.06230000  1.0 0.1303139544
H  H168  1  0.06230000  0.07940000  0.84260000  1.0 0.1303139544
H  H169  1  0.16180000  0.61180000  0.68940000  1.0 0.1473036722
H  H170  1  0.61180000  0.68940000  0.16180000  1.0 0.1473036722
H  H171  1  0.68940000  0.16180000  0.61180000  1.0 0.1473036722
H  H172  1  0.66180000  0.18940000  0.11180000  1.0 0.1473036722
H  H173  1  0.11180000  0.66180000  0.18940000  1.0 0.1473036722
H  H174  1  0.18940000  0.11180000  0.66180000  1.0 0.1473036722
H  H175  1  0.14540000  0.54400000  0.66440000  1.0 0.1135583894
H  H176  1  0.54400000  0.66440000  0.14540000  1.0 0.1135583894
H  H177  1  0.66440000  0.14540000  0.54400000  1.0 0.1135583894
H  H178  1  0.64540000  0.16440000  0.04400000  1.0 0.1135583894
H  H179  1  0.04400000  0.64540000  0.16440000  1.0 0.1135583894
H  H180  1  0.16440000  0.04400000  0.64540000  1.0 0.1135583894
H  H181  1  0.22690000  0.49230000  0.59050000  1.0 0.1303139544
H  H182  1  0.49230000  0.59050000  0.22690000  1.0 0.1303139544
H  H183  1  0.59050000  0.22690000  0.49230000  1.0 0.1303139544
H  H184  1  0.72690000  0.09050000  0.99230000  1.0 0.1303139544
H  H185  1  0.99230000  0.72690000  0.09050000  1.0 0.1303139544
H  H186  1  0.09050000  0.99230000  0.72690000  1.0 0.1303139544
H  H187  1  0.35580000  0.61410000  0.62270000  1.0 0.0984976157
H  H188  1  0.61410000  0.62270000  0.35580000  1.0 0.0984976157
H  H189  1  0.62270000  0.35580000  0.61410000  1.0 0.0984976157
H  H190  1  0.85580000  0.12270000  0.11410000  1.0 0.0984976157
H  H191  1  0.11410000  0.85580000  0.12270000  1.0 0.0984976157
H  H192  1  0.12270000  0.11410000  0.85580000  1.0 0.0984976157
H  H193  1  0.32900000  0.67040000  0.56590000  1.0 0.0917140234
H  H194  1  0.67040000  0.56590000  0.32900000  1.0 0.0917140234
H  H195  1  0.56590000  0.32900000  0.67040000  1.0 0.0917140234
H  H196  1  0.82900000  0.06590000  0.17040000  1.0 0.0917140234
H  H197  1  0.17040000  0.82900000  0.06590000  1.0 0.0917140234
H  H198  1  0.06590000  0.17040000  0.82900000  1.0 0.0917140234
H  H199  1  0.31190000  0.79600000  0.50480000  1.0 0.1403352818
H  H200  1  0.79600000  0.50480000  0.31190000  1.0 0.1403352818
H  H201  1  0.50480000  0.31190000  0.79600000  1.0 0.1403352818
H  H202  1  0.81190000  0.00480000  0.29600000  1.0 0.1403352818
H  H203  1  0.29600000  0.81190000  0.00480000  1.0 0.1403352818
H  H204  1  0.00480000  0.29600000  0.81190000  1.0 0.1403352818
H  H205  1  0.26220000  0.75740000  0.54750000  1.0 0.1403352818
H  H206  1  0.75740000  0.54750000  0.26220000  1.0 0.1403352818
H  H207  1  0.54750000  0.26220000  0.75740000  1.0 0.1403352818
H  H208  1  0.76220000  0.04750000  0.25740000  1.0 0.1303139544
H  H209  1  0.25740000  0.76220000  0.04750000  1.0 0.1403352818
H  H210  1  0.04750000  0.25740000  0.76220000  1.0 0.1403352818
H  H211  1  0.24000000  0.83020000  0.54190000  1.0 0.1403352818
H  H212  1  0.83020000  0.54190000  0.24000000  1.0 0.1403352818
H  H213  1  0.54190000  0.24000000  0.83020000  1.0 0.1403352818
H  H214  1  0.74000000  0.04190000  0.33020000  1.0 0.1403352818
H  H215  1  0.33020000  0.74000000  0.04190000  1.0 0.1403352818
H  H216  1  0.04190000  0.33020000  0.74000000  1.0 0.1403352818
H  H217  1  0.32420000  0.60310000  0.77510000  1.0 0.1403352818
H  H218  1  0.60310000  0.77510000  0.32420000  1.0 0.1403352818
H  H219  1  0.77510000  0.32420000  0.60310000  1.0 0.1403352818
H  H220  1  0.82420000  0.27510000  0.10310000  1.0 0.1403352818
H  H221  1  0.10310000  0.82420000  0.27510000  1.0 0.1403352818
H  H222  1  0.27510000  0.10310000  0.82420000  1.0 0.1403352818
H  H223  1  0.33160000  0.58890000  0.71650000  1.0 0.1403352818
H  H224  1  0.58890000  0.71650000  0.33160000  1.0 0.1403352818
H  H225  1  0.71650000  0.33160000  0.58890000  1.0 0.1403352818
H  H226  1  0.83160000  0.21650000  0.08890000  1.0 0.1403352818
H  H227  1  0.08890000  0.83160000  0.21650000  1.0 0.1403352818
H  H228  1  0.21650000  0.08890000  0.83160000  1.0 0.1403352818
H  H229  1  0.39130000  0.59280000  0.71920000  1.0 0.1303139544
H  H230  1  0.59280000  0.71920000  0.39130000  1.0 0.1303139544
H  H231  1  0.71920000  0.39130000  0.59280000  1.0 0.1303139544
H  H232  1  0.89130000  0.21920000  0.09280000  1.0 0.1303139544
H  H233  1  0.09280000  0.89130000  0.21920000  1.0 0.1303139544
H  H234  1  0.21920000  0.09280000  0.89130000  1.0 0.1303139544
H  H235  1  0.26850000  0.87920000  0.69000000  1.0 0.1403352818
H  H236  1  0.87920000  0.69000000  0.26850000  1.0 0.1403352818
H  H237  1  0.69000000  0.26850000  0.87920000  1.0 0.1403352818
H  H238  1  0.76850000  0.19000000  0.37920000  1.0 0.1403352818
H  H239  1  0.37920000  0.76850000  0.19000000  1.0 0.1403352818
H  H240  1  0.19000000  0.37920000  0.76850000  1.0 0.1403352818
H  H241  1  0.29780000  0.82160000  0.74410000  1.0 0.1403352818
H  H242  1  0.82160000  0.74410000  0.29780000  1.0 0.1403352818
H  H243  1  0.74410000  0.29780000  0.82160000  1.0 0.1403352818
H  H244  1  0.79780000  0.24410000  0.32160000  1.0 0.1403352818
H  H245  1  0.32160000  0.79780000  0.24410000  1.0 0.1403352818
H  H246  1  0.24410000  0.32160000  0.79780000  1.0 0.1403352818
H  H247  1  0.34420000  0.84760000  0.67410000  1.0 0.1403352818
H  H248  1  0.84760000  0.67410000  0.34420000  1.0 0.1403352818
H  H249  1  0.67410000  0.34420000  0.84760000  1.0 0.1403352818
H  H250  1  0.84420000  0.17410000  0.34760000  1.0 0.1403352818
H  H251  1  0.34760000  0.84420000  0.17410000  1.0 0.1403352818
H  H252  1  0.17410000  0.34760000  0.84420000  1.0 0.1403352818
H  H253  1  0.31760000  0.66400000  0.80630000  1.0 0.0984976157
H  H254  1  0.66400000  0.80630000  0.31760000  1.0 0.0984976157
H  H255  1  0.80630000  0.31760000  0.66400000  1.0 0.0984976157
H  H256  1  0.81760000  0.30630000  0.16400000  1.0 0.0984976157
H  H257  1  0.16400000  0.81760000  0.30630000  1.0 0.0984976157
H  H258  1  0.30630000  0.16400000  0.81760000  1.0 0.0984976157
H  H259  1  0.29550000  0.73730000  0.80040000  1.0 0.0984976157
H  H260  1  0.73730000  0.80040000  0.29550000  1.0 0.0984976157
H  H261  1  0.80040000  0.29550000  0.73730000  1.0 0.0984976157
H  H262  1  0.79550000  0.30040000  0.23730000  1.0 0.0984976157
H  H263  1  0.23730000  0.79550000  0.30040000  1.0 0.0984976157
H  H264  1  0.30040000  0.23730000  0.79550000  1.0 0.0917140234
H  H265  1  0.49320000  0.69370000  0.76060000  1.0 0.1473036722
H  H266  1  0.69370000  0.76060000  0.49320000  1.0 0.1473036722
H  H267  1  0.76060000  0.49320000  0.69370000  1.0 0.1473036722
H  H268  1  0.99320000  0.26060000  0.19370000  1.0 0.1473036722
H  H269  1  0.19370000  0.99320000  0.26060000  1.0 0.1473036722
H  H270  1  0.26060000  0.19370000  0.99320000  1.0 0.1403352818
H  H271  1  0.45510000  0.65990000  0.94620000  1.0 0.1303139544
H  H272  1  0.65990000  0.94620000  0.45510000  1.0 0.1303139544
H  H273  1  0.94620000  0.45510000  0.65990000  1.0 0.1303139544
H  H274  1  0.95510000  0.44620000  0.15990000  1.0 0.1303139544
H  H275  1  0.15990000  0.95510000  0.44620000  1.0 0.1303139544
H  H276  1  0.44620000  0.15990000  0.95510000  1.0 0.1303139544
H  H277  1  0.35270000  0.66870000  0.96870000  1.0 0.1193861533
H  H278  1  0.66870000  0.96870000  0.35270000  1.0 0.1193861533
H  H279  1  0.96870000  0.35270000  0.66870000  1.0 0.1193861533
H  H280  1  0.85270000  0.46870000  0.16870000  1.0 0.1193861533
H  H281  1  0.16870000  0.85270000  0.46870000  1.0 0.1193861533
H  H282  1  0.46870000  0.16870000  0.85270000  1.0 0.1193861533
H  H283  1  0.32530000  0.66810000  0.89170000  1.0 0.1303139544
H  H284  1  0.66810000  0.89170000  0.32530000  1.0 0.1303139544
H  H285  1  0.89170000  0.32530000  0.66810000  1.0 0.1303139544
H  H286  1  0.82530000  0.39170000  0.16810000  1.0 0.1303139544
H  H287  1  0.16810000  0.82530000  0.39170000  1.0 0.1303139544
H  H288  1  0.39170000  0.16810000  0.82530000  1.0 0.1303139544
H  H289  1  0.29190000  0.88670000  0.53640000  1.0 0.0984976157
H  H290  1  0.88670000  0.53640000  0.29190000  1.0 0.0984976157
H  H291  1  0.53640000  0.29190000  0.88670000  1.0 0.0984976157
H  H292  1  0.79190000  0.03640000  0.38670000  1.0 0.0984976157
H  H293  1  0.38670000  0.79190000  0.03640000  1.0 0.0984976157
H  H294  1  0.03640000  0.38670000  0.79190000  1.0 0.0984976157
H  H295  1  0.29600000  0.90300000  0.58800000  1.0 0.0984976157
H  H296  1  0.90300000  0.58800000  0.29600000  1.0 0.0984976157
H  H297  1  0.58800000  0.29600000  0.90300000  1.0 0.0984976157
H  H298  1  0.79600000  0.08800000  0.40300000  1.0 0.0984976157
H  H299  1  0.40300000  0.79600000  0.08800000  1.0 0.0984976157
H  H300  1  0.08800000  0.40300000  0.79600000  1.0 0.0984976157
H  H301  1  0.25980000  0.99980000  0.51960000  1.0 0.1303139544
H  H302  1  0.99980000  0.51960000  0.25980000  1.0 0.1303139544
H  H303  1  0.51960000  0.25980000  0.99980000  1.0 0.1303139544
H  H304  1  0.75980000  0.01960000  0.49980000  1.0 0.1303139544
H  H305  1  0.49980000  0.75980000  0.01960000  1.0 0.1303139544
H  H306  1  0.01960000  0.49980000  0.75980000  1.0 0.1303139544
H  H307  1  0.09590000  0.13510000  0.48550000  1.0 0.1303139544
H  H308  1  0.13510000  0.48550000  0.09590000  1.0 0.1303139544
H  H309  1  0.48550000  0.09590000  0.13510000  1.0 0.1303139544
H  H310  1  0.59590000  0.98550000  0.63510000  1.0 0.1303139544
H  H311  1  0.63510000  0.59590000  0.98550000  1.0 0.1303139544
H  H312  1  0.98550000  0.63510000  0.59590000  1.0 0.1303139544
H  H313  1  0.03980000  0.06600000  0.56270000  1.0 0.1193861533
H  H314  1  0.06600000  0.56270000  0.03980000  1.0 0.1193861533
H  H315  1  0.56270000  0.03980000  0.06600000  1.0 0.1193861533
H  H316  1  0.53980000  0.06270000  0.56600000  1.0 0.1193861533
H  H317  1  0.56600000  0.53980000  0.06270000  1.0 0.1193861533
H  H318  1  0.06270000  0.56600000  0.53980000  1.0 0.1193861533
H  H319  1  0.09330000  0.96110000  0.61410000  1.0 0.1473036722
H  H320  1  0.96110000  0.61410000  0.09330000  1.0 0.1473036722
H  H321  1  0.61410000  0.09330000  0.96110000  1.0 0.1473036722
H  H322  1  0.59330000  0.11410000  0.46110000  1.0 0.1473036722
H  H323  1  0.46110000  0.59330000  0.11410000  1.0 0.1473036722
H  H324  1  0.11410000  0.46110000  0.59330000  1.0 0.1473036722
H  H325  1  0.62400000  0.64610000  0.52470000  1.0 0.1804043602
H  H326  1  0.64610000  0.52470000  0.62400000  1.0 0.1804043602
H  H327  1  0.52470000  0.62400000  0.64610000  1.0 0.1804043602
H  H328  1  0.12400000  0.02470000  0.14610000  1.0 0.1804043602
H  H329  1  0.14610000  0.12400000  0.02470000  1.0 0.1804043602
H  H330  1  0.02470000  0.14610000  0.12400000  1.0 0.1804043602
H  H331  1  0.48070000  0.69690000  0.64510000  1.0 0.1193861533
H  H332  1  0.69690000  0.64510000  0.48070000  1.0 0.1193861533
H  H333  1  0.64510000  0.48070000  0.69690000  1.0 0.1193861533
H  H334  1  0.98070000  0.14510000  0.19690000  1.0 0.1193861533
H  H335  1  0.19690000  0.98070000  0.14510000  1.0 0.1193861533
H  H336  1  0.14510000  0.19690000  0.98070000  1.0 0.1193861533
H  H337  1  0.44600000  0.76190000  0.59950000  1.0 0.1473036722
H  H338  1  0.76190000  0.59950000  0.44600000  1.0 0.1473036722
H  H339  1  0.59950000  0.44600000  0.76190000  1.0 0.1473036722
H  H340  1  0.94600000  0.09950000  0.26190000  1.0 0.1403352818
H  H341  1  0.26190000  0.94600000  0.09950000  1.0 0.1473036722
H  H342  1  0.09950000  0.26190000  0.94600000  1.0 0.1403352818
H  H343  1  0.44730000  0.69510000  0.60650000  1.0 0.1303139544
H  H344  1  0.69510000  0.60650000  0.44730000  1.0 0.1303139544
H  H345  1  0.60650000  0.44730000  0.69510000  1.0 0.1303139544
H  H346  1  0.94730000  0.10650000  0.19510000  1.0 0.1303139544
H  H347  1  0.19510000  0.94730000  0.10650000  1.0 0.1303139544
H  H348  1  0.10650000  0.19510000  0.94730000  1.0 0.1303139544
H  H349  1  0.52040000  0.80500000  0.51080000  1.0 0.1403352818
H  H350  1  0.80500000  0.51080000  0.52040000  1.0 0.1403352818
H  H351  1  0.51080000  0.52040000  0.80500000  1.0 0.1403352818
H  H352  1  0.02040000  0.01080000  0.30500000  1.0 0.1403352818
H  H353  1  0.30500000  0.02040000  0.01080000  1.0 0.1403352818
H  H354  1  0.01080000  0.30500000  0.02040000  1.0 0.1403352818
H  H355  1  0.58820000  0.76100000  0.47740000  1.0 0.1303139544
H  H356  1  0.76100000  0.47740000  0.58820000  1.0 0.1303139544
H  H357  1  0.47740000  0.58820000  0.76100000  1.0 0.1303139544
H  H358  1  0.08820000  0.97740000  0.26100000  1.0 0.1303139544
H  H359  1  0.26100000  0.08820000  0.97740000  1.0 0.1303139544
H  H360  1  0.97740000  0.26100000  0.08820000  1.0 0.1303139544
H  H361  1  0.52580000  0.77420000  0.46540000  1.0 0.1303139544
H  H362  1  0.77420000  0.46540000  0.52580000  1.0 0.1303139544
H  H363  1  0.46540000  0.52580000  0.77420000  1.0 0.1303139544
H  H364  1  0.02580000  0.96540000  0.27420000  1.0 0.1303139544
H  H365  1  0.27420000  0.02580000  0.96540000  1.0 0.1303139544
H  H366  1  0.96540000  0.27420000  0.02580000  1.0 0.1303139544
C  C1  1  0.64201000  0.47889000  0.46999000  1.0 0.5602748892
C  C2  1  0.47889000  0.46999000  0.64201000  1.0 0.5602748892
C  C3  1  0.46999000  0.64201000  0.47889000  1.0 0.5602748892
C  C4  1  0.14201000  0.96999000  0.97889000  1.0 0.5602748892
C  C5  1  0.97889000  0.14201000  0.96999000  1.0 0.5602748892
C  C6  1  0.96999000  0.97889000  0.14201000  1.0 0.5602748892
C  C7  1  0.69468000  0.43691000  0.43221000  1.0 -0.0112866531
C  C8  1  0.43691000  0.43221000  0.69468000  1.0 -0.0112866531
C  C9  1  0.43221000  0.69468000  0.43691000  1.0 -0.0112866531
C  C10  1  0.19468000  0.93221000  0.93691000  1.0 -0.0112866531
C  C11  1  0.93691000  0.19468000  0.93221000  1.0 -0.0112866531
C  C12  1  0.93221000  0.93691000  0.19468000  1.0 -0.0112866531
C  C13  1  0.75655000  0.41075000  0.43505000  1.0 -0.1416731817
C  C14  1  0.41075000  0.43505000  0.75655000  1.0 -0.1416731817
C  C15  1  0.43505000  0.75655000  0.41075000  1.0 -0.1416731817
C  C16  1  0.25655000  0.93505000  0.91075000  1.0 -0.1416731817
C  C17  1  0.91075000  0.25655000  0.93505000  1.0 -0.1416731817
C  C18  1  0.93505000  0.91075000  0.25655000  1.0 -0.1416731817
C  C19  1  0.80567000  0.37397000  0.39607000  1.0 -0.069801307
C  C20  1  0.37397000  0.39607000  0.80567000  1.0 -0.069801307
C  C21  1  0.39607000  0.80567000  0.37397000  1.0 -0.069801307
C  C22  1  0.30567000  0.89607000  0.87397000  1.0 -0.069801307
C  C23  1  0.87397000  0.30567000  0.89607000  1.0 -0.069801307
C  C24  1  0.89607000  0.87397000  0.30567000  1.0 -0.069801307
C  C25  1  0.79358000  0.36228000  0.35688000  1.0 -0.1913328683
C  C26  1  0.36228000  0.35688000  0.79358000  1.0 -0.1913328683
C  C27  1  0.35688000  0.79358000  0.36228000  1.0 -0.1913328683
C  C28  1  0.29358000  0.85688000  0.86228000  1.0 -0.1913328683
C  C29  1  0.86228000  0.29358000  0.85688000  1.0 -0.1913328683
C  C30  1  0.85688000  0.86228000  0.29358000  1.0 -0.1913328683
C  C31  1  0.73061000  0.38661000  0.35571000  1.0 0.2585764752
C  C32  1  0.38661000  0.35571000  0.73061000  1.0 0.2585764752
C  C33  1  0.35571000  0.73061000  0.38661000  1.0 0.2585764752
C  C34  1  0.23061000  0.85571000  0.88661000  1.0 0.2585764752
C  C35  1  0.88661000  0.23061000  0.85571000  1.0 0.2585764752
C  C36  1  0.85571000  0.88661000  0.23061000  1.0 0.2585764752
C  C37  1  0.68276000  0.42450000  0.39213000  1.0 -0.2428599967
C  C38  1  0.42450000  0.39213000  0.68276000  1.0 -0.2428599967
C  C39  1  0.39213000  0.68276000  0.42450000  1.0 -0.2428599967
C  C40  1  0.18276000  0.89213000  0.92450000  1.0 -0.2428599967
C  C41  1  0.92450000  0.18276000  0.89213000  1.0 -0.2428599967
C  C42  1  0.89213000  0.92450000  0.18276000  1.0 -0.2428599967
C  C43  1  0.65904000  0.39974000  0.30954000  1.0 -0.069801307
C  C44  1  0.39974000  0.30954000  0.65904000  1.0 -0.069801307
C  C45  1  0.30954000  0.65904000  0.39974000  1.0 -0.069801307
C  C46  1  0.15904000  0.80954000  0.89974000  1.0 -0.069801307
C  C47  1  0.89974000  0.15904000  0.80954000  1.0 -0.069801307
C  C48  1  0.80954000  0.89974000  0.15904000  1.0 -0.069801307
C  C49  1  0.66498000  0.38070000  0.25793000  1.0 -0.0347588421
C  C50  1  0.38070000  0.25793000  0.66498000  1.0 -0.0347588421
C  C51  1  0.25793000  0.66498000  0.38070000  1.0 -0.0407900967
C  C52  1  0.16498000  0.75793000  0.88070000  1.0 -0.0347588421
C  C53  1  0.88070000  0.16498000  0.75793000  1.0 -0.0347588421
C  C54  1  0.75793000  0.88070000  0.16498000  1.0 -0.0347588421
C  C55  1  0.65599000  0.32469000  0.27409000  1.0 0.0917140234
C  C56  1  0.32469000  0.27409000  0.65599000  1.0 0.0917140234
C  C57  1  0.27409000  0.65599000  0.32469000  1.0 0.0917140234
C  C58  1  0.15599000  0.77409000  0.82469000  1.0 0.0917140234
C  C59  1  0.82469000  0.15599000  0.77409000  1.0 0.0917140234
C  C60  1  0.77409000  0.82469000  0.15599000  1.0 0.0917140234
C  C61  1  0.66336000  0.30684000  0.22565000  1.0 -0.0407900967
C  C62  1  0.30684000  0.22565000  0.66336000  1.0 -0.0407900967
C  C63  1  0.22565000  0.66336000  0.30684000  1.0 -0.0407900967
C  C64  1  0.16336000  0.72565000  0.80684000  1.0 -0.0407900967
C  C65  1  0.80684000  0.16336000  0.72565000  1.0 -0.0407900967
C  C66  1  0.72565000  0.80684000  0.16336000  1.0 -0.0407900967
C  C67  1  0.67828000  0.34668000  0.16198000  1.0 0.0984976157
C  C68  1  0.34668000  0.16198000  0.67828000  1.0 0.0984976157
C  C69  1  0.16198000  0.67828000  0.34668000  1.0 0.0984976157
C  C70  1  0.17828000  0.66198000  0.84668000  1.0 0.0984976157
C  C71  1  0.84668000  0.17828000  0.66198000  1.0 0.0984976157
C  C72  1  0.66198000  0.84668000  0.17828000  1.0 0.0984976157
C  C73  1  0.68755000  0.40289000  0.14687000  1.0 -0.0503230255
C  C74  1  0.40289000  0.14687000  0.68755000  1.0 -0.0503230255
C  C75  1  0.14687000  0.68755000  0.40289000  1.0 -0.0503230255
C  C76  1  0.18755000  0.64687000  0.90289000  1.0 -0.0503230255
C  C77  1  0.90289000  0.18755000  0.64687000  1.0 -0.0503230255
C  C78  1  0.64687000  0.90289000  0.18755000  1.0 -0.0503230255
C  C79  1  0.68340000  0.42062000  0.19371000  1.0 0.0917140234
C  C80  1  0.42062000  0.19371000  0.68340000  1.0 0.0917140234
C  C81  1  0.19371000  0.68340000  0.42062000  1.0 0.0917140234
C  C82  1  0.18340000  0.69371000  0.92062000  1.0 0.0917140234
C  C83  1  0.92062000  0.18340000  0.69371000  1.0 0.0917140234
C  C84  1  0.69371000  0.92062000  0.18340000  1.0 0.0917140234
C  C85  1  0.69812000  0.47862000  0.17652000  1.0 -0.4908713797
C  C86  1  0.47862000  0.17652000  0.69812000  1.0 -0.4908713797
C  C87  1  0.17652000  0.69812000  0.47862000  1.0 -0.4908713797
C  C88  1  0.19812000  0.67652000  0.97862000  1.0 -0.4908713797
C  C89  1  0.97862000  0.19812000  0.67652000  1.0 -0.4908713797
C  C90  1  0.67652000  0.97862000  0.19812000  1.0 -0.4908713797
C  C91  1  0.63751000  0.28301000  0.34331000  1.0 -0.4601292832
C  C92  1  0.28301000  0.34331000  0.63751000  1.0 -0.4601292832
C  C93  1  0.34331000  0.63751000  0.28301000  1.0 -0.4601292832
C  C94  1  0.13751000  0.84331000  0.78301000  1.0 -0.4601292832
C  C95  1  0.78301000  0.13751000  0.84331000  1.0 -0.4601292832
C  C96  1  0.84331000  0.78301000  0.13751000  1.0 -0.4601292832
C  C97  1  0.68232000  0.32932000  0.10942000  1.0 -0.4528586267
C  C98  1  0.32932000  0.10942000  0.68232000  1.0 -0.4528586267
C  C99  1  0.10942000  0.68232000  0.32932000  1.0 -0.4528586267
C  C100  1  0.18232000  0.60942000  0.82932000  1.0 -0.4528586267
C  C101  1  0.82932000  0.18232000  0.60942000  1.0 -0.4528586267
C  C102  1  0.60942000  0.82932000  0.18232000  1.0 -0.4528586267
C  C103  1  0.70869000  0.44359000  0.07639000  1.0 -0.0632545922
C  C104  1  0.44359000  0.07639000  0.70869000  1.0 -0.0632545922
C  C105  1  0.07639000  0.70869000  0.44359000  1.0 -0.0632545922
C  C106  1  0.20869000  0.57639000  0.94359000  1.0 -0.0632545922
C  C107  1  0.94359000  0.20869000  0.57639000  1.0 -0.0632545922
C  C108  1  0.57639000  0.94359000  0.20869000  1.0 -0.0632545922
C  C109  1  0.80456000  0.44296000  0.98976000  1.0 0.2701476565
C  C110  1  0.44296000  0.98976000  0.80456000  1.0 0.2701476565
C  C111  1  0.98976000  0.80456000  0.44296000  1.0 0.2701476565
C  C112  1  0.30456000  0.48976000  0.94296000  1.0 0.2701476565
C  C113  1  0.94296000  0.30456000  0.48976000  1.0 0.2701476565
C  C114  1  0.48976000  0.94296000  0.30456000  1.0 0.2701476565
C  C115  1  0.87156000  0.41476000  0.96656000  1.0 -0.2206536487
C  C116  1  0.41476000  0.96656000  0.87156000  1.0 -0.2206536487
C  C117  1  0.96656000  0.87156000  0.41476000  1.0 -0.2206536487
C  C118  1  0.37156000  0.46656000  0.91476000  1.0 -0.2206536487
C  C119  1  0.91476000  0.37156000  0.46656000  1.0 -0.2206536487
C  C120  1  0.46656000  0.91476000  0.37156000  1.0 -0.2206536487
C  C121  1  0.90542000  0.44182000  0.90462000  1.0 -0.0828035261
C  C122  1  0.44182000  0.90462000  0.90542000  1.0 -0.0828035261
C  C123  1  0.90462000  0.90542000  0.44182000  1.0 -0.0828035261
C  C124  1  0.40542000  0.40462000  0.94182000  1.0 -0.0828035261
C  C125  1  0.94182000  0.40542000  0.40462000  1.0 -0.0828035261
C  C126  1  0.40462000  0.94182000  0.40542000  1.0 -0.0828035261
C  C127  1  0.87485000  0.49555000  0.86355000  1.0 -0.1289880461
C  C128  1  0.49555000  0.86355000  0.87485000  1.0 -0.1289880461
C  C129  1  0.86355000  0.87485000  0.49555000  1.0 -0.1289880461
C  C130  1  0.37485000  0.36355000  0.99555000  1.0 -0.1289880461
C  C131  1  0.99555000  0.37485000  0.36355000  1.0 -0.1289880461
C  C132  1  0.36355000  0.99555000  0.37485000  1.0 -0.1289880461
C  C133  1  0.80837000  0.52215000  0.88486000  1.0 0.010293231
C  C134  1  0.52215000  0.88486000  0.80837000  1.0 0.010293231
C  C135  1  0.88486000  0.80837000  0.52215000  1.0 0.010293231
C  C136  1  0.30837000  0.38486000  0.02215000  1.0 0.010293231
C  C137  1  0.02215000  0.30837000  0.38486000  1.0 0.010293231
C  C138  1  0.38486000  0.02215000  0.30837000  1.0 0.010293231
C  C139  1  0.77363000  0.49524000  0.94840000  1.0 -0.2602020402
C  C140  1  0.49524000  0.94840000  0.77363000  1.0 -0.2602020402
C  C141  1  0.94840000  0.77363000  0.49524000  1.0 -0.2602020402
C  C142  1  0.27363000  0.44840000  0.99524000  1.0 -0.2602020402
C  C143  1  0.99524000  0.27363000  0.44840000  1.0 -0.2602020402
C  C144  1  0.44840000  0.99524000  0.27363000  1.0 -0.2602020402
C  C145  1  0.65495000  0.24505000  0.24095000  1.0 -0.0632545922
C  C146  1  0.24505000  0.24095000  0.65495000  1.0 -0.0632545922
C  C147  1  0.24095000  0.65495000  0.24505000  1.0 -0.0632545922
C  C148  1  0.15495000  0.74095000  0.74505000  1.0 -0.0632545922
C  C149  1  0.74505000  0.15495000  0.74095000  1.0 -0.0632545922
C  C150  1  0.74095000  0.74505000  0.15495000  1.0 -0.0632545922
C  C151  1  0.57556000  0.21066000  0.25486000  1.0 0.2585764752
C  C152  1  0.21066000  0.25486000  0.57556000  1.0 0.2585764752
C  C153  1  0.25486000  0.57556000  0.21066000  1.0 0.2585764752
C  C154  1  0.07556000  0.75486000  0.71066000  1.0 0.2585764752
C  C155  1  0.71066000  0.07556000  0.75486000  1.0 0.2585764752
C  C156  1  0.75486000  0.71066000  0.07556000  1.0 0.2585764752
C  C157  1  0.61659000  0.14939000  0.25989000  1.0 -0.2291168072
C  C158  1  0.14939000  0.25989000  0.61659000  1.0 -0.2291168072
C  C159  1  0.25989000  0.61659000  0.14939000  1.0 -0.2291168072
C  C160  1  0.11659000  0.75989000  0.64939000  1.0 -0.2291168072
C  C161  1  0.64939000  0.11659000  0.75989000  1.0 -0.2291168072
C  C162  1  0.75989000  0.64939000  0.11659000  1.0 -0.2291168072
C  C163  1  0.59509000  0.10289000  0.27149000  1.0 -0.0828035261
C  C164  1  0.10289000  0.27149000  0.59509000  1.0 -0.0828035261
C  C165  1  0.27149000  0.59509000  0.10289000  1.0 -0.0828035261
C  C166  1  0.09509000  0.77149000  0.60289000  1.0 -0.0828035261
C  C167  1  0.60289000  0.09509000  0.77149000  1.0 -0.0828035261
C  C168  1  0.77149000  0.60289000  0.09509000  1.0 -0.0828035261
C  C169  1  0.53189000  0.11639000  0.28159000  1.0 -0.1493922644
C  C170  1  0.11639000  0.28159000  0.53189000  1.0 -0.1416731817
C  C171  1  0.28159000  0.53189000  0.11639000  1.0 -0.1493922644
C  C172  1  0.03189000  0.78159000  0.61639000  1.0 -0.1416731817
C  C173  1  0.61639000  0.03189000  0.78159000  1.0 -0.1416731817
C  C174  1  0.78159000  0.61639000  0.03189000  1.0 -0.1416731817
C  C175  1  0.49052000  0.17762000  0.27712000  1.0 0.010293231
C  C176  1  0.17762000  0.27712000  0.49052000  1.0 0.010293231
C  C177  1  0.27712000  0.49052000  0.17762000  1.0 0.010293231
C  C178  1  0.99052000  0.77712000  0.67762000  1.0 0.010293231
C  C179  1  0.67762000  0.99052000  0.77712000  1.0 0.010293231
C  C180  1  0.77712000  0.67762000  0.99052000  1.0 0.010293231
C  C181  1  0.51143000  0.22593000  0.26223000  1.0 -0.208189756
C  C182  1  0.22593000  0.26223000  0.51143000  1.0 -0.2206536487
C  C183  1  0.26223000  0.51143000  0.22593000  1.0 -0.208189756
C  C184  1  0.01143000  0.76223000  0.72593000  1.0 -0.2206536487
C  C185  1  0.72593000  0.01143000  0.76223000  1.0 -0.2206536487
C  C186  1  0.76223000  0.72593000  0.01143000  1.0 -0.2206536487
C  C187  1  0.42082000  0.19232000  0.29222000  1.0 0.5833587945
C  C188  1  0.19232000  0.29222000  0.42082000  1.0 0.5833587945
C  C189  1  0.29222000  0.42082000  0.19232000  1.0 0.5833587945
C  C190  1  0.92082000  0.79222000  0.69232000  1.0 0.5833587945
C  C191  1  0.69232000  0.92082000  0.79222000  1.0 0.5833587945
C  C192  1  0.79222000  0.69232000  0.92082000  1.0 0.5833587945
C  C193  1  0.34432000  0.50196000  0.52024000  1.0 0.5707910559
C  C194  1  0.50196000  0.52024000  0.34432000  1.0 0.5707910559
C  C195  1  0.52024000  0.34432000  0.50196000  1.0 0.5707910559
C  C196  1  0.84432000  0.02024000  0.00196000  1.0 0.5707910559
C  C197  1  0.00196000  0.84432000  0.02024000  1.0 0.5707910559
C  C198  1  0.02024000  0.00196000  0.84432000  1.0 0.5707910559
C  C199  1  0.29142000  0.53162000  0.56982000  1.0 0.0013893766
C  C200  1  0.53162000  0.56982000  0.29142000  1.0 0.0013893766
C  C201  1  0.56982000  0.29142000  0.53162000  1.0 0.0013893766
C  C202  1  0.79142000  0.06982000  0.03162000  1.0 0.0013893766
C  C203  1  0.03162000  0.79142000  0.06982000  1.0 0.0013893766
C  C204  1  0.06982000  0.03162000  0.79142000  1.0 0.0013893766
C  C205  1  0.30304000  0.57160000  0.58368000  1.0 -0.2726586559
C  C206  1  0.57160000  0.58368000  0.30304000  1.0 -0.2726586559
C  C207  1  0.58368000  0.30304000  0.57160000  1.0 -0.2726586559
C  C208  1  0.80304000  0.08368000  0.07160000  1.0 -0.2726586559
C  C209  1  0.07160000  0.80304000  0.08368000  1.0 -0.2726586559
C  C210  1  0.08368000  0.07160000  0.80304000  1.0 -0.2726586559
C  C211  1  0.25431000  0.59981000  0.63021000  1.0 0.2701476565
C  C212  1  0.59981000  0.63021000  0.25431000  1.0 0.2701476565
C  C213  1  0.63021000  0.25431000  0.59981000  1.0 0.2701476565
C  C214  1  0.75431000  0.13021000  0.09981000  1.0 0.2701476565
C  C215  1  0.09981000  0.75431000  0.13021000  1.0 0.2701476565
C  C216  1  0.13021000  0.09981000  0.75431000  1.0 0.2701476565
C  C217  1  0.19507000  0.59097000  0.65947000  1.0 -0.2206536487
C  C218  1  0.59097000  0.65947000  0.19507000  1.0 -0.2206536487
C  C219  1  0.65947000  0.19507000  0.59097000  1.0 -0.2206536487
C  C220  1  0.69507000  0.15947000  0.09097000  1.0 -0.2206536487
C  C221  1  0.09097000  0.69507000  0.15947000  1.0 -0.2206536487
C  C222  1  0.15947000  0.09097000  0.69507000  1.0 -0.2206536487
C  C223  1  0.18556000  0.55066000  0.64416000  1.0 -0.069801307
C  C224  1  0.55066000  0.64416000  0.18556000  1.0 -0.069801307
C  C225  1  0.64416000  0.18556000  0.55066000  1.0 -0.069801307
C  C226  1  0.68556000  0.14416000  0.05066000  1.0 -0.069801307
C  C227  1  0.05066000  0.68556000  0.14416000  1.0 -0.069801307
C  C228  1  0.14416000  0.05066000  0.68556000  1.0 -0.069801307
C  C229  1  0.23368000  0.52018000  0.59988000  1.0 -0.1493922644
C  C230  1  0.52018000  0.59988000  0.23368000  1.0 -0.1493922644
C  C231  1  0.59988000  0.23368000  0.52018000  1.0 -0.1493922644
C  C232  1  0.73368000  0.09988000  0.02018000  1.0 -0.1493922644
C  C233  1  0.02018000  0.73368000  0.09988000  1.0 -0.1493922644
C  C234  1  0.09988000  0.02018000  0.73368000  1.0 -0.1493922644
C  C235  1  0.32040000  0.65360000  0.61260000  1.0 -0.069801307
C  C236  1  0.65360000  0.61260000  0.32040000  1.0 -0.069801307
C  C237  1  0.61260000  0.32040000  0.65360000  1.0 -0.069801307
C  C238  1  0.82040000  0.11260000  0.15360000  1.0 -0.069801307
C  C239  1  0.15360000  0.82040000  0.11260000  1.0 -0.069801307
C  C240  1  0.11260000  0.15360000  0.82040000  1.0 -0.069801307
C  C241  1  0.31372000  0.70228000  0.63492000  1.0 -0.0503230255
C  C242  1  0.70228000  0.63492000  0.31372000  1.0 -0.0503230255
C  C243  1  0.63492000  0.31372000  0.70228000  1.0 -0.0503230255
C  C244  1  0.81372000  0.13492000  0.20228000  1.0 -0.0503230255
C  C245  1  0.20228000  0.81372000  0.13492000  1.0 -0.0503230255
C  C246  1  0.13492000  0.20228000  0.81372000  1.0 -0.0503230255
C  C247  1  0.32555000  0.68091000  0.69333000  1.0 0.0917140234
C  C248  1  0.68091000  0.69333000  0.32555000  1.0 0.0917140234
C  C249  1  0.69333000  0.32555000  0.68091000  1.0 0.0917140234
C  C250  1  0.82555000  0.19333000  0.18091000  1.0 0.0917140234
C  C251  1  0.18091000  0.82555000  0.19333000  1.0 0.0917140234
C  C252  1  0.19333000  0.18091000  0.82555000  1.0 0.0917140234
C  C253  1  0.31849000  0.72639000  0.71509000  1.0 -0.0503230255
C  C254  1  0.72639000  0.71509000  0.31849000  1.0 -0.0503230255
C  C255  1  0.71509000  0.31849000  0.72639000  1.0 -0.0503230255
C  C256  1  0.81849000  0.21509000  0.22639000  1.0 -0.0503230255
C  C257  1  0.22639000  0.81849000  0.21509000  1.0 -0.0503230255
C  C258  1  0.21509000  0.22639000  0.81849000  1.0 -0.0503230255
C  C259  1  0.30334000  0.79174000  0.67854000  1.0 0.0984976157
C  C260  1  0.79174000  0.67854000  0.30334000  1.0 0.0984976157
C  C261  1  0.67854000  0.30334000  0.79174000  1.0 0.0984976157
C  C262  1  0.80334000  0.17854000  0.29174000  1.0 0.0984976157
C  C263  1  0.29174000  0.80334000  0.17854000  1.0 0.0984976157
C  C264  1  0.17854000  0.29174000  0.80334000  1.0 0.0984976157
C  C265  1  0.29266000  0.81196000  0.62136000  1.0 -0.0503230255
C  C266  1  0.81196000  0.62136000  0.29266000  1.0 -0.0503230255
C  C267  1  0.62136000  0.29266000  0.81196000  1.0 -0.0503230255
C  C268  1  0.79266000  0.12136000  0.31196000  1.0 -0.0503230255
C  C269  1  0.31196000  0.79266000  0.12136000  1.0 -0.0503230255
C  C270  1  0.12136000  0.31196000  0.79266000  1.0 -0.0503230255
C  C271  1  0.29452000  0.76807000  0.60132000  1.0 0.0917140234
C  C272  1  0.76807000  0.60132000  0.29452000  1.0 0.0917140234
C  C273  1  0.60132000  0.29452000  0.76807000  1.0 0.0917140234
C  C274  1  0.79452000  0.10132000  0.26807000  1.0 0.0917140234
C  C275  1  0.26807000  0.79452000  0.10132000  1.0 0.0917140234
C  C276  1  0.10132000  0.26807000  0.79452000  1.0 0.0917140234
C  C277  1  0.27538000  0.78988000  0.54378000  1.0 -0.4823859085
C  C278  1  0.78988000  0.54378000  0.27538000  1.0 -0.4823859085
C  C279  1  0.54378000  0.27538000  0.78988000  1.0 -0.4823859085
C  C280  1  0.77538000  0.04378000  0.28988000  1.0 -0.4823859085
C  C281  1  0.28988000  0.77538000  0.04378000  1.0 -0.4823859085
C  C282  1  0.04378000  0.28988000  0.77538000  1.0 -0.4823859085
C  C283  1  0.34487000  0.61027000  0.72917000  1.0 -0.4823859085
C  C284  1  0.61027000  0.72917000  0.34487000  1.0 -0.4823859085
C  C285  1  0.72917000  0.34487000  0.61027000  1.0 -0.4823859085
C  C286  1  0.84487000  0.22917000  0.11027000  1.0 -0.4823859085
C  C287  1  0.11027000  0.84487000  0.22917000  1.0 -0.4823859085
C  C288  1  0.22917000  0.11027000  0.84487000  1.0 -0.4823859085
C  C289  1  0.30345000  0.83925000  0.69845000  1.0 -0.4601292832
C  C290  1  0.83925000  0.69845000  0.30345000  1.0 -0.4601292832
C  C291  1  0.69845000  0.30345000  0.83925000  1.0 -0.4601292832
C  C292  1  0.80345000  0.19845000  0.33925000  1.0 -0.4601292832
C  C293  1  0.33925000  0.80345000  0.19845000  1.0 -0.4601292832
C  C294  1  0.19845000  0.33925000  0.80345000  1.0 -0.4601292832
C  C295  1  0.32584000  0.70514000  0.77864000  1.0 -0.069801307
C  C296  1  0.70514000  0.77864000  0.32584000  1.0 -0.069801307
C  C297  1  0.77864000  0.32584000  0.70514000  1.0 -0.069801307
C  C298  1  0.82584000  0.27864000  0.20514000  1.0 -0.069801307
C  C299  1  0.20514000  0.82584000  0.27864000  1.0 -0.069801307
C  C300  1  0.27864000  0.20514000  0.82584000  1.0 -0.069801307
C  C301  1  0.40450000  0.68740000  0.81720000  1.0 0.2585764752
C  C302  1  0.68740000  0.81720000  0.40450000  1.0 0.2585764752
C  C303  1  0.81720000  0.40450000  0.68740000  1.0 0.2585764752
C  C304  1  0.90450000  0.31720000  0.18740000  1.0 0.2585764752
C  C305  1  0.18740000  0.90450000  0.31720000  1.0 0.2585764752
C  C306  1  0.31720000  0.18740000  0.90450000  1.0 0.2585764752
C  C307  1  0.46415000  0.68805000  0.80295000  1.0 -0.2428599967
C  C308  1  0.68805000  0.80295000  0.46415000  1.0 -0.2428599967
C  C309  1  0.80295000  0.46415000  0.68805000  1.0 -0.2428599967
C  C310  1  0.96415000  0.30295000  0.18805000  1.0 -0.2428599967
C  C311  1  0.18805000  0.96415000  0.30295000  1.0 -0.2428599967
C  C312  1  0.30295000  0.18805000  0.96415000  1.0 -0.2428599967
C  C313  1  0.48106000  0.68006000  0.85286000  1.0 -0.0009449322
C  C314  1  0.68006000  0.85286000  0.48106000  1.0 -0.0009449322
C  C315  1  0.85286000  0.48106000  0.68006000  1.0 -0.0009449322
C  C316  1  0.98106000  0.35286000  0.18006000  1.0 -0.0009449322
C  C317  1  0.18006000  0.98106000  0.35286000  1.0 -0.0009449322
C  C318  1  0.35286000  0.18006000  0.98106000  1.0 -0.0009449322
C  C319  1  0.44148000  0.66888000  0.91298000  1.0 -0.1289880461
C  C320  1  0.66888000  0.91298000  0.44148000  1.0 -0.1289880461
C  C321  1  0.91298000  0.44148000  0.66888000  1.0 -0.1289880461
C  C322  1  0.94148000  0.41298000  0.16888000  1.0 -0.1289880461
C  C323  1  0.16888000  0.94148000  0.41298000  1.0 -0.1289880461
C  C324  1  0.41298000  0.16888000  0.94148000  1.0 -0.1289880461
C  C325  1  0.38244000  0.67034000  0.92694000  1.0 -0.0828035261
C  C326  1  0.67034000  0.92694000  0.38244000  1.0 -0.0828035261
C  C327  1  0.92694000  0.38244000  0.67034000  1.0 -0.0828035261
C  C328  1  0.88244000  0.42694000  0.17034000  1.0 -0.0828035261
C  C329  1  0.17034000  0.88244000  0.42694000  1.0 -0.0828035261
C  C330  1  0.42694000  0.17034000  0.88244000  1.0 -0.0828035261
C  C331  1  0.36400000  0.67430000  0.88040000  1.0 -0.2291168072
C  C332  1  0.67430000  0.88040000  0.36400000  1.0 -0.2291168072
C  C333  1  0.88040000  0.36400000  0.67430000  1.0 -0.2291168072
C  C334  1  0.86400000  0.38040000  0.17430000  1.0 -0.2291168072
C  C335  1  0.17430000  0.86400000  0.38040000  1.0 -0.2291168072
C  C336  1  0.38040000  0.17430000  0.86400000  1.0 -0.2291168072
C  C337  1  0.54501000  0.68261000  0.83661000  1.0 0.5458116831
C  C338  1  0.68261000  0.83661000  0.54501000  1.0 0.5458116831
C  C339  1  0.83661000  0.54501000  0.68261000  1.0 0.5458116831
C  C340  1  0.04501000  0.33661000  0.18261000  1.0 0.5458116831
C  C341  1  0.18261000  0.04501000  0.33661000  1.0 0.5458116831
C  C342  1  0.33661000  0.18261000  0.04501000  1.0 0.5458116831
C  C343  1  0.27638000  0.88148000  0.58228000  1.0 -0.069801307
C  C344  1  0.88148000  0.58228000  0.27638000  1.0 -0.069801307
C  C345  1  0.58228000  0.27638000  0.88148000  1.0 -0.069801307
C  C346  1  0.77638000  0.08228000  0.38148000  1.0 -0.069801307
C  C347  1  0.38148000  0.77638000  0.08228000  1.0 -0.069801307
C  C348  1  0.08228000  0.38148000  0.77638000  1.0 -0.069801307
C  C349  1  0.18120000  0.97080000  0.57110000  1.0 0.2585764752
C  C350  1  0.97080000  0.57110000  0.18120000  1.0 0.2585764752
C  C351  1  0.57110000  0.18120000  0.97080000  1.0 0.2585764752
C  C352  1  0.68120000  0.07110000  0.47080000  1.0 0.2585764752
C  C353  1  0.47080000  0.68120000  0.07110000  1.0 0.2585764752
C  C354  1  0.07110000  0.47080000  0.68120000  1.0 0.2585764752
C  C355  1  0.21539000  0.01276000  0.52753000  1.0 -0.2602020402
C  C356  1  0.01276000  0.52753000  0.21539000  1.0 -0.2602020402
C  C357  1  0.52753000  0.21539000  0.01276000  1.0 -0.2602020402
C  C358  1  0.71539000  0.02753000  0.51276000  1.0 -0.2602020402
C  C359  1  0.51276000  0.71539000  0.02753000  1.0 -0.2602020402
C  C360  1  0.02753000  0.51276000  0.71539000  1.0 -0.2602020402
C  C361  1  0.18263000  0.07513000  0.49543000  1.0 0.010293231
C  C362  1  0.07513000  0.49543000  0.18263000  1.0 0.010293231
C  C363  1  0.49543000  0.18263000  0.07513000  1.0 0.010293231
C  C364  1  0.68263000  0.99543000  0.57513000  1.0 0.010293231
C  C365  1  0.57513000  0.68263000  0.99543000  1.0 0.010293231
C  C366  1  0.99543000  0.57513000  0.68263000  1.0 0.010293231
C  C367  1  0.11772000  0.09342000  0.50812000  1.0 -0.1416731817
C  C368  1  0.09342000  0.50812000  0.11772000  1.0 -0.1416731817
C  C369  1  0.50812000  0.11772000  0.09342000  1.0 -0.1416731817
C  C370  1  0.61772000  0.00812000  0.59342000  1.0 -0.1416731817
C  C371  1  0.59342000  0.61772000  0.00812000  1.0 -0.1416731817
C  C372  1  0.00812000  0.59342000  0.61772000  1.0 -0.1416731817
C  C373  1  0.08467000  0.05217000  0.55287000  1.0 -0.069801307
C  C374  1  0.05217000  0.55287000  0.08467000  1.0 -0.069801307
C  C375  1  0.55287000  0.08467000  0.05217000  1.0 -0.069801307
C  C376  1  0.58467000  0.05287000  0.55217000  1.0 -0.069801307
C  C377  1  0.55217000  0.58467000  0.05287000  1.0 -0.069801307
C  C378  1  0.05287000  0.55217000  0.58467000  1.0 -0.069801307
C  C379  1  0.11623000  0.99023000  0.58403000  1.0 -0.2206536487
C  C380  1  0.99023000  0.58403000  0.11623000  1.0 -0.2206536487
C  C381  1  0.58403000  0.11623000  0.99023000  1.0 -0.2206536487
C  C382  1  0.61623000  0.08403000  0.49023000  1.0 -0.2206536487
C  C383  1  0.49023000  0.61623000  0.08403000  1.0 -0.2206536487
C  C384  1  0.08403000  0.49023000  0.61623000  1.0 -0.2206536487
C  C385  1  0.21974000  0.11954000  0.44634000  1.0 0.5602748892
C  C386  1  0.11954000  0.44634000  0.21974000  1.0 0.5602748892
C  C387  1  0.44634000  0.21974000  0.11954000  1.0 0.5602748892
C  C388  1  0.71974000  0.94634000  0.61954000  1.0 0.5602748892
C  C389  1  0.61954000  0.71974000  0.94634000  1.0 0.5602748892
C  C390  1  0.94634000  0.61954000  0.71974000  1.0 0.5602748892
C  C391  1  0.77401000  0.58051000  0.84241000  1.0 0.5953591368
C  C392  1  0.58051000  0.84241000  0.77401000  1.0 0.5953591368
C  C393  1  0.84241000  0.77401000  0.58051000  1.0 0.5953591368
C  C394  1  0.27401000  0.34241000  0.08051000  1.0 0.5953591368
C  C395  1  0.08051000  0.27401000  0.34241000  1.0 0.5953591368
C  C396  1  0.34241000  0.08051000  0.27401000  1.0 0.5953591368
C  C397  1  0.58150000  0.64840000  0.55260000  1.0 0.0917140234
C  C398  1  0.64840000  0.55260000  0.58150000  1.0 0.0917140234
C  C399  1  0.55260000  0.58150000  0.64840000  1.0 0.0917140234
C  C400  1  0.08150000  0.05260000  0.14840000  1.0 0.0917140234
C  C401  1  0.14840000  0.08150000  0.05260000  1.0 0.0917140234
C  C402  1  0.05260000  0.14840000  0.08150000  1.0 0.0917140234
C  C403  1  0.47130000  0.71670000  0.60500000  1.0 -0.3507865567
C  C404  1  0.71670000  0.60500000  0.47130000  1.0 -0.3507865567
C  C405  1  0.60500000  0.47130000  0.71670000  1.0 -0.3507865567
C  C406  1  0.97130000  0.10500000  0.21670000  1.0 -0.3507865567
C  C407  1  0.21670000  0.97130000  0.10500000  1.0 -0.3507865567
C  C408  1  0.10500000  0.21670000  0.97130000  1.0 -0.3507865567
C  C409  1  0.54230000  0.76740000  0.49680000  1.0 -0.3507865567
C  C410  1  0.76740000  0.49680000  0.54230000  1.0 -0.3507865567
C  C411  1  0.49680000  0.54230000  0.76740000  1.0 -0.3507865567
C  C412  1  0.04230000  0.99680000  0.26740000  1.0 -0.3507865567
C  C413  1  0.26740000  0.04230000  0.99680000  1.0 -0.3507865567
C  C414  1  0.99680000  0.26740000  0.04230000  1.0 -0.3507865567
N  N1  1  0.53122000  0.71142000  0.55162000  1.0 -0.1024692728
N  N2  1  0.71142000  0.55162000  0.53122000  1.0 -0.1024692728
N  N3  1  0.55162000  0.53122000  0.71142000  1.0 -0.1024692728
N  N4  1  0.03122000  0.05162000  0.21142000  1.0 -0.1024692728
N  N5  1  0.21142000  0.03122000  0.05162000  1.0 -0.1024692728
N  N6  1  0.05162000  0.21142000  0.03122000  1.0 -0.1024692728
O  O1  1  0.59027000  0.50882000  0.45742000  1.0 -0.5812631546
O  O2  1  0.50882000  0.45742000  0.59027000  1.0 -0.5812631546
O  O3  1  0.45742000  0.59027000  0.50882000  1.0 -0.5812631546
O  O4  1  0.09027000  0.95742000  0.00882000  1.0 -0.5812631546
O  O5  1  0.00882000  0.09027000  0.95742000  1.0 -0.5812631546
O  O6  1  0.95742000  0.00882000  0.09027000  1.0 -0.5812631546
O  O7  1  0.64933000  0.48614000  0.51086000  1.0 -0.5225357611
O  O8  1  0.48614000  0.51086000  0.64933000  1.0 -0.5225357611
O  O9  1  0.51086000  0.64933000  0.48614000  1.0 -0.5225357611
O  O10  1  0.14933000  0.01086000  0.98614000  1.0 -0.5225357611
O  O11  1  0.98614000  0.14933000  0.01086000  1.0 -0.5225357611
O  O12  1  0.01086000  0.98614000  0.14933000  1.0 -0.5225357611
O  O13  1  0.38663000  0.25067000  0.27070000  1.0 -0.5595872781
O  O14  1  0.25067000  0.27070000  0.38663000  1.0 -0.5595872781
O  O15  1  0.27070000  0.38663000  0.25067000  1.0 -0.5595872781
O  O16  1  0.88663000  0.77070000  0.75067000  1.0 -0.5595872781
O  O17  1  0.75067000  0.88663000  0.77070000  1.0 -0.5595872781
O  O18  1  0.77070000  0.75067000  0.88663000  1.0 -0.5595872781
O  O19  1  0.39886000  0.14699000  0.32621000  1.0 -0.5109545885
O  O20  1  0.14699000  0.32621000  0.39886000  1.0 -0.5109545885
O  O21  1  0.32621000  0.39886000  0.14699000  1.0 -0.5109545885
O  O22  1  0.89886000  0.82621000  0.64699000  1.0 -0.5109545885
O  O23  1  0.64699000  0.89886000  0.82621000  1.0 -0.5109545885
O  O24  1  0.82621000  0.64699000  0.89886000  1.0 -0.5109545885
O  O25  1  0.71721000  0.58802000  0.85384000  1.0 -0.4908713797
O  O26  1  0.58802000  0.85384000  0.71721000  1.0 -0.4908713797
O  O27  1  0.85384000  0.71721000  0.58802000  1.0 -0.4908713797
O  O28  1  0.21721000  0.35384000  0.08802000  1.0 -0.4908713797
O  O29  1  0.08802000  0.21721000  0.35384000  1.0 -0.4908713797
O  O30  1  0.35384000  0.08802000  0.21721000  1.0 -0.4908713797
O  O31  1  0.80233000  0.61944000  0.79832000  1.0 -0.5595872781
O  O32  1  0.61944000  0.79832000  0.80233000  1.0 -0.5595872781
O  O33  1  0.79832000  0.80233000  0.61944000  1.0 -0.5595872781
O  O34  1  0.30233000  0.29832000  0.11944000  1.0 -0.5595872781
O  O35  1  0.11944000  0.30233000  0.29832000  1.0 -0.5595872781
O  O36  1  0.29832000  0.11944000  0.30233000  1.0 -0.5595872781
O  O37  1  0.39270000  0.52078000  0.48730000  1.0 -0.5955729583
O  O38  1  0.52078000  0.48730000  0.39270000  1.0 -0.5955729583
O  O39  1  0.48730000  0.39270000  0.52078000  1.0 -0.5948806503
O  O40  1  0.89270000  0.98730000  0.02078000  1.0 -0.5955729583
O  O41  1  0.02078000  0.89270000  0.98730000  1.0 -0.5948806503
O  O42  1  0.98730000  0.02078000  0.89270000  1.0 -0.5955729583
O  O43  1  0.33870000  0.46003000  0.51073000  1.0 -0.5361441969
O  O44  1  0.46003000  0.51073000  0.33870000  1.0 -0.5361441969
O  O45  1  0.51073000  0.33870000  0.46003000  1.0 -0.5361441969
O  O46  1  0.83870000  0.01073000  0.96003000  1.0 -0.5361441969
O  O47  1  0.96003000  0.83870000  0.01073000  1.0 -0.5361441969
O  O48  1  0.01073000  0.96003000  0.83870000  1.0 -0.5361441969
O  O49  1  0.27274000  0.10899000  0.44670000  1.0 -0.4908713797
O  O50  1  0.10899000  0.44670000  0.27274000  1.0 -0.4908713797
O  O51  1  0.44670000  0.27274000  0.10899000  1.0 -0.4908713797
O  O52  1  0.77274000  0.94670000  0.60899000  1.0 -0.4908713797
O  O53  1  0.60899000  0.77274000  0.94670000  1.0 -0.4908713797
O  O54  1  0.94670000  0.60899000  0.77274000  1.0 -0.4908713797
O  O55  1  0.19663000  0.16680000  0.40266000  1.0 -0.5650680163
O  O56  1  0.16680000  0.40266000  0.19663000  1.0 -0.5595872781
O  O57  1  0.40266000  0.19663000  0.16680000  1.0 -0.5595872781
O  O58  1  0.69663000  0.90266000  0.66680000  1.0 -0.5595872781
O  O59  1  0.66680000  0.69663000  0.90266000  1.0 -0.5595872781
O  O60  1  0.90266000  0.66680000  0.69663000  1.0 -0.5595872781
O  O61  1  0.55698000  0.68238000  0.87878000  1.0 -0.5225357611
O  O62  1  0.68238000  0.87878000  0.55698000  1.0 -0.5225357611
O  O63  1  0.87878000  0.55698000  0.68238000  1.0 -0.5225357611
O  O64  1  0.05698000  0.37878000  0.18238000  1.0 -0.5225357611
O  O65  1  0.18238000  0.05698000  0.37878000  1.0 -0.5225357611
O  O66  1  0.37878000  0.18238000  0.05698000  1.0 -0.5225357611
O  O67  1  0.58601000  0.68391000  0.78261000  1.0 -0.4730552732
O  O68  1  0.68391000  0.78261000  0.58601000  1.0 -0.4730552732
O  O69  1  0.78261000  0.58601000  0.68391000  1.0 -0.4730552732
O  O70  1  0.08601000  0.28261000  0.18391000  1.0 -0.4730552732
O  O71  1  0.18391000  0.08601000  0.28261000  1.0 -0.4730552732
O  O72  1  0.28261000  0.18391000  0.08601000  1.0 -0.4730552732
O  O73  1  0.72313000  0.37267000  0.31386000  1.0 -0.208189756
O  O74  1  0.37267000  0.31386000  0.72313000  1.0 -0.208189756
O  O75  1  0.31386000  0.72313000  0.37267000  1.0 -0.2042628377
O  O76  1  0.22313000  0.81386000  0.87267000  1.0 -0.2042628377
O  O77  1  0.87267000  0.22313000  0.81386000  1.0 -0.208189756
O  O78  1  0.81386000  0.87267000  0.22313000  1.0 -0.2042628377
O  O79  1  0.77575000  0.41476000  0.05226000  1.0 -0.1719463466
O  O80  1  0.41476000  0.05226000  0.77575000  1.0 -0.1719463466
O  O81  1  0.05226000  0.77575000  0.41476000  1.0 -0.1719463466
O  O82  1  0.27575000  0.55226000  0.91476000  1.0 -0.1719463466
O  O83  1  0.91476000  0.27575000  0.55226000  1.0 -0.1719463466
O  O84  1  0.55226000  0.91476000  0.27575000  1.0 -0.1719463466
O  O85  1  0.59132000  0.26014000  0.24551000  1.0 -0.1559194027
O  O86  1  0.26014000  0.24551000  0.59132000  1.0 -0.1559194027
O  O87  1  0.24551000  0.59132000  0.26014000  1.0 -0.1559194027
O  O88  1  0.09132000  0.74551000  0.76014000  1.0 -0.1559194027
O  O89  1  0.76014000  0.09132000  0.74551000  1.0 -0.1559194027
O  O90  1  0.74551000  0.76014000  0.09132000  1.0 -0.1559194027
O  O91  1  0.26027000  0.64077000  0.64605000  1.0 -0.1913328683
O  O92  1  0.64077000  0.64605000  0.26027000  1.0 -0.1913328683
O  O93  1  0.64605000  0.26027000  0.64077000  1.0 -0.1913328683
O  O94  1  0.76027000  0.14605000  0.14077000  1.0 -0.1913328683
O  O95  1  0.14077000  0.76027000  0.14605000  1.0 -0.1913328683
O  O96  1  0.14605000  0.14077000  0.76027000  1.0 -0.1913328683
O  O97  1  0.39071000  0.69786000  0.76581000  1.0 -0.208189756
O  O98  1  0.69786000  0.76581000  0.39071000  1.0 -0.208189756
O  O99  1  0.76581000  0.39071000  0.69786000  1.0 -0.208189756
O  O100  1  0.89071000  0.26581000  0.19786000  1.0 -0.208189756
O  O101  1  0.19786000  0.89071000  0.26581000  1.0 -0.208189756
O  O102  1  0.26581000  0.19786000  0.89071000  1.0 -0.208189756
O  O103  1  0.20743000  0.90831000  0.60493000  1.0 -0.1913328683
O  O104  1  0.90831000  0.60493000  0.20743000  1.0 -0.1913328683
O  O105  1  0.60493000  0.20743000  0.90831000  1.0 -0.1913328683
O  O106  1  0.70743000  0.10493000  0.40831000  1.0 -0.1913328683
O  O107  1  0.40831000  0.70743000  0.10493000  1.0 -0.1913328683
O  O108  1  0.10493000  0.40831000  0.70743000  1.0 -0.1913328683
O  O109  1  0.26439000  0.26439000  0.26439000  1.0 -0.7511978545
O  O110  1  0.76439000  0.76439000  0.76439000  1.0 -0.7511978545
O  O111  1  0.21482000  0.21482000  0.21482000  1.0 -0.6657236316
O  O112  1  0.71482000  0.71482000  0.71482000  1.0 -0.6657236316
O  O113  1  0.56860000  0.59850000  0.58930000  1.0 0.0352904848
O  O114  1  0.59850000  0.58930000  0.56860000  1.0 0.0352904848
O  O115  1  0.58930000  0.56860000  0.59850000  1.0 0.0352904848
O  O116  1  0.06860000  0.08930000  0.09850000  1.0 0.0338675729
O  O117  1  0.09850000  0.06860000  0.08930000  1.0 0.0352904848
O  O118  1  0.08930000  0.09850000  0.06860000  1.0 0.0338675729
