# DDEC6 charges by PACMAN v1.1 (https://github.com/mtap-research/PACMAN-charge/)
data_PIVBEC_ASR_pacman
_symmetry_space_group_name_H-M   'P 1'
_cell_length_a   18.35320000
_cell_length_b   18.35320000
_cell_length_c   40.66700000
_cell_angle_alpha   90.00000000
_cell_angle_beta   90.00000000
_cell_angle_gamma   120.00000000
_symmetry_Int_Tables_number   1
_chemical_formula_structural   Cu3H22(C19O8)2
_chemical_formula_sum   'Cu18 H132 C228 O96'
_cell_volume   11863.05002996
_cell_formula_units_Z   6
loop_
 _symmetry_equiv_pos_site_id
 _symmetry_equiv_pos_as_xyz
  1  'x, y, z'
loop_
 _atom_site_type_symbol
 _atom_site_label
 _atom_site_symmetry_multiplicity
 _atom_site_fract_x
 _atom_site_fract_y
 _atom_site_fract_z
 _atom_site_occupancy
 _atom_site_charge
Cu  Cu1  1  0.47568000  0.95136000  0.02559000  1.0 0.8592839264
Cu  Cu2  1  0.52432000  0.47568000  0.52559000  1.0 0.8592839264
Cu  Cu3  1  0.04864000  0.52432000  0.02559000  1.0 0.8592839264
Cu  Cu4  1  0.47568000  0.52432000  0.02559000  1.0 0.8592839264
Cu  Cu5  1  0.95136000  0.47568000  0.52559000  1.0 0.8592839264
Cu  Cu6  1  0.95136000  0.47568000  0.97441000  1.0 0.8592839264
Cu  Cu7  1  0.52432000  0.04864000  0.97441000  1.0 0.8592839264
Cu  Cu8  1  0.04864000  0.52432000  0.47441000  1.0 0.8592839264
Cu  Cu9  1  0.52432000  0.47568000  0.97441000  1.0 0.8592839264
Cu  Cu10  1  0.47568000  0.95136000  0.47441000  1.0 0.8592839264
Cu  Cu11  1  0.47568000  0.52432000  0.47441000  1.0 0.8592839264
Cu  Cu12  1  0.52432000  0.04864000  0.52559000  1.0 0.8592839264
Cu  Cu13  1  0.88530000  0.94265000  0.25000000  1.0 0.6277025167
Cu  Cu14  1  0.94265000  0.88530000  0.75000000  1.0 0.6277025167
Cu  Cu15  1  0.05735000  0.94265000  0.25000000  1.0 0.6277025167
Cu  Cu16  1  0.05735000  0.11470000  0.25000000  1.0 0.6277025167
Cu  Cu17  1  0.94265000  0.05735000  0.75000000  1.0 0.6277025167
Cu  Cu18  1  0.11470000  0.05735000  0.75000000  1.0 0.6277025167
H  H1  1  0.76390000  0.23610000  0.00940000  1.0 0.1417766721
H  H2  1  0.52780000  0.76390000  0.50940000  1.0 0.1417766721
H  H3  1  0.76390000  0.52780000  0.00940000  1.0 0.1417766721
H  H4  1  0.47220000  0.23610000  0.00940000  1.0 0.1417766721
H  H5  1  0.23610000  0.47220000  0.50940000  1.0 0.1417766721
H  H6  1  0.23610000  0.76390000  0.99060000  1.0 0.1417766721
H  H7  1  0.52780000  0.76390000  0.99060000  1.0 0.1417766721
H  H8  1  0.76390000  0.23610000  0.49060000  1.0 0.1417766721
H  H9  1  0.23610000  0.47220000  0.99060000  1.0 0.1417766721
H  H10  1  0.47220000  0.23610000  0.49060000  1.0 0.1417766721
H  H11  1  0.76390000  0.52780000  0.49060000  1.0 0.1417766721
H  H12  1  0.23610000  0.76390000  0.50940000  1.0 0.1417766721
H  H13  1  0.70910000  0.07290000  0.08180000  1.0 0.1164813314
H  H14  1  0.63620000  0.70910000  0.58180000  1.0 0.1164813314
H  H15  1  0.92710000  0.63620000  0.08180000  1.0 0.1164813314
H  H16  1  0.36380000  0.29090000  0.08180000  1.0 0.1164813314
H  H17  1  0.07290000  0.36380000  0.58180000  1.0 0.1164813314
H  H18  1  0.07290000  0.70910000  0.91820000  1.0 0.1164813314
H  H19  1  0.63620000  0.92710000  0.91820000  1.0 0.1164813314
H  H20  1  0.92710000  0.29090000  0.41820000  1.0 0.1164813314
H  H21  1  0.29090000  0.36380000  0.91820000  1.0 0.1164813314
H  H22  1  0.36380000  0.07290000  0.41820000  1.0 0.1164813314
H  H23  1  0.70910000  0.63620000  0.41820000  1.0 0.1164813314
H  H24  1  0.29090000  0.92710000  0.58180000  1.0 0.1164813314
H  H25  1  0.29090000  0.92710000  0.91820000  1.0 0.1164813314
H  H26  1  0.36380000  0.29090000  0.41820000  1.0 0.1164813314
H  H27  1  0.07290000  0.36380000  0.91820000  1.0 0.1164813314
H  H28  1  0.63620000  0.70910000  0.91820000  1.0 0.1164813314
H  H29  1  0.92710000  0.63620000  0.41820000  1.0 0.1164813314
H  H30  1  0.92710000  0.29090000  0.08180000  1.0 0.1164813314
H  H31  1  0.36380000  0.07290000  0.08180000  1.0 0.1164813314
H  H32  1  0.07290000  0.70910000  0.58180000  1.0 0.1164813314
H  H33  1  0.70910000  0.63620000  0.08180000  1.0 0.1164813314
H  H34  1  0.63620000  0.92710000  0.58180000  1.0 0.1164813314
H  H35  1  0.29090000  0.36380000  0.58180000  1.0 0.1164813314
H  H36  1  0.70910000  0.07290000  0.41820000  1.0 0.1164813314
H  H37  1  0.78310000  0.03130000  0.11090000  1.0 0.1067977
H  H38  1  0.75180000  0.78310000  0.61090000  1.0 0.1067977
H  H39  1  0.96870000  0.75180000  0.11090000  1.0 0.1067977
H  H40  1  0.24820000  0.21690000  0.11090000  1.0 0.1067977
H  H41  1  0.03130000  0.24820000  0.61090000  1.0 0.1067977
H  H42  1  0.03130000  0.78310000  0.88910000  1.0 0.1067977
H  H43  1  0.75180000  0.96870000  0.88910000  1.0 0.1067977
H  H44  1  0.96870000  0.21690000  0.38910000  1.0 0.1067977
H  H45  1  0.21690000  0.24820000  0.88910000  1.0 0.1067977
H  H46  1  0.24820000  0.03130000  0.38910000  1.0 0.1067977
H  H47  1  0.78310000  0.75180000  0.38910000  1.0 0.1067977
H  H48  1  0.21690000  0.96870000  0.61090000  1.0 0.1067977
H  H49  1  0.21690000  0.96870000  0.88910000  1.0 0.1067977
H  H50  1  0.24820000  0.21690000  0.38910000  1.0 0.1067977
H  H51  1  0.03130000  0.24820000  0.88910000  1.0 0.1067977
H  H52  1  0.75180000  0.78310000  0.88910000  1.0 0.1067977
H  H53  1  0.96870000  0.75180000  0.38910000  1.0 0.1067977
H  H54  1  0.96870000  0.21690000  0.11090000  1.0 0.1067977
H  H55  1  0.24820000  0.03130000  0.11090000  1.0 0.1067977
H  H56  1  0.03130000  0.78310000  0.61090000  1.0 0.1067977
H  H57  1  0.78310000  0.75180000  0.11090000  1.0 0.1067977
H  H58  1  0.75180000  0.96870000  0.61090000  1.0 0.1067977
H  H59  1  0.21690000  0.24820000  0.61090000  1.0 0.1067977
H  H60  1  0.78310000  0.03130000  0.38910000  1.0 0.1067977
H  H61  1  0.81900000  0.99030000  0.15730000  1.0 0.1018340773
H  H62  1  0.82870000  0.81900000  0.65730000  1.0 0.1018340773
H  H63  1  0.00970000  0.82870000  0.15730000  1.0 0.1018340773
H  H64  1  0.17130000  0.18100000  0.15730000  1.0 0.1018340773
H  H65  1  0.99030000  0.17130000  0.65730000  1.0 0.1018340773
H  H66  1  0.99030000  0.81900000  0.84270000  1.0 0.1018340773
H  H67  1  0.82870000  0.00970000  0.84270000  1.0 0.1018340773
H  H68  1  0.00970000  0.18100000  0.34270000  1.0 0.1018340773
H  H69  1  0.18100000  0.17130000  0.84270000  1.0 0.1018340773
H  H70  1  0.17130000  0.99030000  0.34270000  1.0 0.1018340773
H  H71  1  0.81900000  0.82870000  0.34270000  1.0 0.1018340773
H  H72  1  0.18100000  0.00970000  0.65730000  1.0 0.1018340773
H  H73  1  0.18100000  0.00970000  0.84270000  1.0 0.1018340773
H  H74  1  0.17130000  0.18100000  0.34270000  1.0 0.1018340773
H  H75  1  0.99030000  0.17130000  0.84270000  1.0 0.1018340773
H  H76  1  0.82870000  0.81900000  0.84270000  1.0 0.1018340773
H  H77  1  0.00970000  0.82870000  0.34270000  1.0 0.1018340773
H  H78  1  0.00970000  0.18100000  0.15730000  1.0 0.1018340773
H  H79  1  0.17130000  0.99030000  0.15730000  1.0 0.1018340773
H  H80  1  0.99030000  0.81900000  0.65730000  1.0 0.1018340773
H  H81  1  0.81900000  0.82870000  0.15730000  1.0 0.1018340773
H  H82  1  0.82870000  0.00970000  0.65730000  1.0 0.1018340773
H  H83  1  0.18100000  0.17130000  0.65730000  1.0 0.1018340773
H  H84  1  0.81900000  0.99030000  0.34270000  1.0 0.1018340773
H  H85  1  0.91880000  0.64910000  0.36170000  1.0 0.1067977
H  H86  1  0.26970000  0.91880000  0.86170000  1.0 0.1067977
H  H87  1  0.35090000  0.26970000  0.36170000  1.0 0.1067977
H  H88  1  0.73030000  0.08120000  0.36170000  1.0 0.1067977
H  H89  1  0.64910000  0.73030000  0.86170000  1.0 0.1067977
H  H90  1  0.64910000  0.91880000  0.63830000  1.0 0.1067977
H  H91  1  0.26970000  0.35090000  0.63830000  1.0 0.1067977
H  H92  1  0.35090000  0.08120000  0.13830000  1.0 0.1067977
H  H93  1  0.08120000  0.73030000  0.63830000  1.0 0.1067977
H  H94  1  0.73030000  0.64910000  0.13830000  1.0 0.1067977
H  H95  1  0.91880000  0.26970000  0.13830000  1.0 0.1067977
H  H96  1  0.08120000  0.35090000  0.86170000  1.0 0.1067977
H  H97  1  0.08120000  0.35090000  0.63830000  1.0 0.1067977
H  H98  1  0.73030000  0.08120000  0.13830000  1.0 0.1067977
H  H99  1  0.64910000  0.73030000  0.63830000  1.0 0.1067977
H  H100  1  0.26970000  0.91880000  0.63830000  1.0 0.1067977
H  H101  1  0.35090000  0.26970000  0.13830000  1.0 0.1067977
H  H102  1  0.35090000  0.08120000  0.36170000  1.0 0.1067977
H  H103  1  0.73030000  0.64910000  0.36170000  1.0 0.1067977
H  H104  1  0.64910000  0.91880000  0.86170000  1.0 0.1067977
H  H105  1  0.91880000  0.26970000  0.36170000  1.0 0.1067977
H  H106  1  0.26970000  0.35090000  0.86170000  1.0 0.1067977
H  H107  1  0.08120000  0.73030000  0.86170000  1.0 0.1067977
H  H108  1  0.91880000  0.64910000  0.13830000  1.0 0.1067977
H  H109  1  0.96250000  0.73710000  0.31420000  1.0 0.1018340773
H  H110  1  0.22540000  0.96250000  0.81420000  1.0 0.1018340773
H  H111  1  0.26290000  0.22540000  0.31420000  1.0 0.1018340773
H  H112  1  0.77460000  0.03750000  0.31420000  1.0 0.1018340773
H  H113  1  0.73710000  0.77460000  0.81420000  1.0 0.1018340773
H  H114  1  0.73710000  0.96250000  0.68580000  1.0 0.1018340773
H  H115  1  0.22540000  0.26290000  0.68580000  1.0 0.1018340773
H  H116  1  0.26290000  0.03750000  0.18580000  1.0 0.1018340773
H  H117  1  0.03750000  0.77460000  0.68580000  1.0 0.1018340773
H  H118  1  0.77460000  0.73710000  0.18580000  1.0 0.1018340773
H  H119  1  0.96250000  0.22540000  0.18580000  1.0 0.1018340773
H  H120  1  0.03750000  0.26290000  0.81420000  1.0 0.1018340773
H  H121  1  0.03750000  0.26290000  0.68580000  1.0 0.1018340773
H  H122  1  0.77460000  0.03750000  0.18580000  1.0 0.1018340773
H  H123  1  0.73710000  0.77460000  0.68580000  1.0 0.1018340773
H  H124  1  0.22540000  0.96250000  0.68580000  1.0 0.1018340773
H  H125  1  0.26290000  0.22540000  0.18580000  1.0 0.1018340773
H  H126  1  0.26290000  0.03750000  0.31420000  1.0 0.1018340773
H  H127  1  0.77460000  0.73710000  0.31420000  1.0 0.1018340773
H  H128  1  0.73710000  0.96250000  0.81420000  1.0 0.1018340773
H  H129  1  0.96250000  0.22540000  0.31420000  1.0 0.1018340773
H  H130  1  0.22540000  0.26290000  0.81420000  1.0 0.1018340773
H  H131  1  0.03750000  0.77460000  0.81420000  1.0 0.1018340773
H  H132  1  0.96250000  0.73710000  0.18580000  1.0 0.1018340773
C  C1  1  0.63980000  0.08840000  0.02845000  1.0 0.5764991515
C  C2  1  0.55140000  0.63980000  0.52845000  1.0 0.5764991515
C  C3  1  0.91160000  0.55140000  0.02845000  1.0 0.5764991515
C  C4  1  0.44860000  0.36020000  0.02845000  1.0 0.5764991515
C  C5  1  0.08840000  0.44860000  0.52845000  1.0 0.5764991515
C  C6  1  0.08840000  0.63980000  0.97155000  1.0 0.5764991515
C  C7  1  0.55140000  0.91160000  0.97155000  1.0 0.5764991515
C  C8  1  0.91160000  0.36020000  0.47155000  1.0 0.5764991515
C  C9  1  0.36020000  0.44860000  0.97155000  1.0 0.5764991515
C  C10  1  0.44860000  0.08840000  0.47155000  1.0 0.5764991515
C  C11  1  0.63980000  0.55140000  0.47155000  1.0 0.5764991515
C  C12  1  0.36020000  0.91160000  0.52845000  1.0 0.5764991515
C  C13  1  0.36020000  0.91160000  0.97155000  1.0 0.5764991515
C  C14  1  0.44860000  0.36020000  0.47155000  1.0 0.5764991515
C  C15  1  0.08840000  0.44860000  0.97155000  1.0 0.5764991515
C  C16  1  0.55140000  0.63980000  0.97155000  1.0 0.5764991515
C  C17  1  0.91160000  0.55140000  0.47155000  1.0 0.5764991515
C  C18  1  0.91160000  0.36020000  0.02845000  1.0 0.5764991515
C  C19  1  0.44860000  0.08840000  0.02845000  1.0 0.5764991515
C  C20  1  0.08840000  0.63980000  0.52845000  1.0 0.5764991515
C  C21  1  0.63980000  0.55140000  0.02845000  1.0 0.5764991515
C  C22  1  0.55140000  0.91160000  0.52845000  1.0 0.5764991515
C  C23  1  0.36020000  0.44860000  0.52845000  1.0 0.5764991515
C  C24  1  0.63980000  0.08840000  0.47155000  1.0 0.5764991515
C  C25  1  0.72230000  0.14470000  0.04314000  1.0 -0.0289628948
C  C26  1  0.57760000  0.72230000  0.54314000  1.0 -0.0289628948
C  C27  1  0.85530000  0.57760000  0.04314000  1.0 -0.0289628948
C  C28  1  0.42240000  0.27770000  0.04314000  1.0 -0.0289628948
C  C29  1  0.14470000  0.42240000  0.54314000  1.0 -0.0289628948
C  C30  1  0.14470000  0.72230000  0.95686000  1.0 -0.0289628948
C  C31  1  0.57760000  0.85530000  0.95686000  1.0 -0.0289628948
C  C32  1  0.85530000  0.27770000  0.45686000  1.0 -0.0289628948
C  C33  1  0.27770000  0.42240000  0.95686000  1.0 -0.0289628948
C  C34  1  0.42240000  0.14470000  0.45686000  1.0 -0.0289628948
C  C35  1  0.72230000  0.57760000  0.45686000  1.0 -0.0289628948
C  C36  1  0.27770000  0.85530000  0.54314000  1.0 -0.0289628948
C  C37  1  0.27770000  0.85530000  0.95686000  1.0 -0.0289628948
C  C38  1  0.42240000  0.27770000  0.45686000  1.0 -0.0289628948
C  C39  1  0.14470000  0.42240000  0.95686000  1.0 -0.0289628948
C  C40  1  0.57760000  0.72230000  0.95686000  1.0 -0.0289628948
C  C41  1  0.85530000  0.57760000  0.45686000  1.0 -0.0289628948
C  C42  1  0.85530000  0.27770000  0.04314000  1.0 -0.0289628948
C  C43  1  0.42240000  0.14470000  0.04314000  1.0 -0.0289628948
C  C44  1  0.14470000  0.72230000  0.54314000  1.0 -0.0289628948
C  C45  1  0.72230000  0.57760000  0.04314000  1.0 -0.0289628948
C  C46  1  0.57760000  0.85530000  0.54314000  1.0 -0.0289628948
C  C47  1  0.27770000  0.42240000  0.54314000  1.0 -0.0289628948
C  C48  1  0.72230000  0.14470000  0.45686000  1.0 -0.0289628948
C  C49  1  0.77850000  0.22150000  0.02923000  1.0 -0.1068539745
C  C50  1  0.55700000  0.77850000  0.52923000  1.0 -0.1068539745
C  C51  1  0.77850000  0.55700000  0.02923000  1.0 -0.1068539745
C  C52  1  0.44300000  0.22150000  0.02923000  1.0 -0.1068539745
C  C53  1  0.22150000  0.44300000  0.52923000  1.0 -0.1068539745
C  C54  1  0.22150000  0.77850000  0.97077000  1.0 -0.1068539745
C  C55  1  0.55700000  0.77850000  0.97077000  1.0 -0.1068539745
C  C56  1  0.77850000  0.22150000  0.47077000  1.0 -0.1068539745
C  C57  1  0.22150000  0.44300000  0.97077000  1.0 -0.1068539745
C  C58  1  0.44300000  0.22150000  0.47077000  1.0 -0.1068539745
C  C59  1  0.77850000  0.55700000  0.47077000  1.0 -0.1068539745
C  C60  1  0.22150000  0.77850000  0.52923000  1.0 -0.1068539745
C  C61  1  0.74540000  0.12430000  0.07198000  1.0 -0.1602498095
C  C62  1  0.62110000  0.74540000  0.57198000  1.0 -0.1602498095
C  C63  1  0.87570000  0.62110000  0.07198000  1.0 -0.1602498095
C  C64  1  0.37890000  0.25460000  0.07198000  1.0 -0.1602498095
C  C65  1  0.12430000  0.37890000  0.57198000  1.0 -0.1602498095
C  C66  1  0.12430000  0.74540000  0.92802000  1.0 -0.1602498095
C  C67  1  0.62110000  0.87570000  0.92802000  1.0 -0.1602498095
C  C68  1  0.87570000  0.25460000  0.42802000  1.0 -0.1602498095
C  C69  1  0.25460000  0.37890000  0.92802000  1.0 -0.1602498095
C  C70  1  0.37890000  0.12430000  0.42802000  1.0 -0.1602498095
C  C71  1  0.74540000  0.62110000  0.42802000  1.0 -0.1602498095
C  C72  1  0.25460000  0.87570000  0.57198000  1.0 -0.1602498095
C  C73  1  0.25460000  0.87570000  0.92802000  1.0 -0.1602498095
C  C74  1  0.37890000  0.25460000  0.42802000  1.0 -0.1602498095
C  C75  1  0.12430000  0.37890000  0.92802000  1.0 -0.1602498095
C  C76  1  0.62110000  0.74540000  0.92802000  1.0 -0.1602498095
C  C77  1  0.87570000  0.62110000  0.42802000  1.0 -0.1602498095
C  C78  1  0.87570000  0.25460000  0.07198000  1.0 -0.1602498095
C  C79  1  0.37890000  0.12430000  0.07198000  1.0 -0.1602498095
C  C80  1  0.12430000  0.74540000  0.57198000  1.0 -0.1602498095
C  C81  1  0.74540000  0.62110000  0.07198000  1.0 -0.1602498095
C  C82  1  0.62110000  0.87570000  0.57198000  1.0 -0.1602498095
C  C83  1  0.25460000  0.37890000  0.57198000  1.0 -0.1602498095
C  C84  1  0.74540000  0.12430000  0.42802000  1.0 -0.1602498095
C  C85  1  0.82195000  0.17805000  0.08720000  1.0 0.0580147997
C  C86  1  0.64390000  0.82195000  0.58720000  1.0 0.0580147997
C  C87  1  0.82195000  0.64390000  0.08720000  1.0 0.0580147997
C  C88  1  0.35610000  0.17805000  0.08720000  1.0 0.0580147997
C  C89  1  0.17805000  0.35610000  0.58720000  1.0 0.0580147997
C  C90  1  0.17805000  0.82195000  0.91280000  1.0 0.0580147997
C  C91  1  0.64390000  0.82195000  0.91280000  1.0 0.0580147997
C  C92  1  0.82195000  0.17805000  0.41280000  1.0 0.0580147997
C  C93  1  0.17805000  0.35610000  0.91280000  1.0 0.0580147997
C  C94  1  0.35610000  0.17805000  0.41280000  1.0 0.0580147997
C  C95  1  0.82195000  0.64390000  0.41280000  1.0 0.0580147997
C  C96  1  0.17805000  0.82195000  0.58720000  1.0 0.0580147997
C  C97  1  0.84785000  0.15215000  0.11840000  1.0 0.0159571195
C  C98  1  0.69570000  0.84785000  0.61840000  1.0 0.0159571195
C  C99  1  0.84785000  0.69570000  0.11840000  1.0 0.0159571195
C  C100  1  0.30430000  0.15215000  0.11840000  1.0 0.0159571195
C  C101  1  0.15215000  0.30430000  0.61840000  1.0 0.0159571195
C  C102  1  0.15215000  0.84785000  0.88160000  1.0 0.0159571195
C  C103  1  0.69570000  0.84785000  0.88160000  1.0 0.0159571195
C  C104  1  0.84785000  0.15215000  0.38160000  1.0 0.0159571195
C  C105  1  0.15215000  0.30430000  0.88160000  1.0 0.0159571195
C  C106  1  0.30430000  0.15215000  0.38160000  1.0 0.0159571195
C  C107  1  0.84785000  0.69570000  0.38160000  1.0 0.0159571195
C  C108  1  0.15215000  0.84785000  0.61840000  1.0 0.0159571195
C  C109  1  0.89735000  0.10265000  0.17540000  1.0 -0.0705956232
C  C110  1  0.79470000  0.89735000  0.67540000  1.0 -0.0705956232
C  C111  1  0.89735000  0.79470000  0.17540000  1.0 -0.0705956232
C  C112  1  0.20530000  0.10265000  0.17540000  1.0 -0.0705956232
C  C113  1  0.10265000  0.20530000  0.67540000  1.0 -0.0705956232
C  C114  1  0.10265000  0.89735000  0.82460000  1.0 -0.0705956232
C  C115  1  0.79470000  0.89735000  0.82460000  1.0 -0.0705956232
C  C116  1  0.89735000  0.10265000  0.32460000  1.0 -0.0705956232
C  C117  1  0.10265000  0.20530000  0.82460000  1.0 -0.0705956232
C  C118  1  0.20530000  0.10265000  0.32460000  1.0 -0.0705956232
C  C119  1  0.89735000  0.79470000  0.32460000  1.0 -0.0705956232
C  C120  1  0.10265000  0.89735000  0.67540000  1.0 -0.0705956232
C  C121  1  0.92435000  0.07565000  0.20480000  1.0 0.4128311995
C  C122  1  0.84870000  0.92435000  0.70480000  1.0 0.4128311995
C  C123  1  0.92435000  0.84870000  0.20480000  1.0 0.4128311995
C  C124  1  0.15130000  0.07565000  0.20480000  1.0 0.4128311995
C  C125  1  0.07565000  0.15130000  0.70480000  1.0 0.4128311995
C  C126  1  0.07565000  0.92435000  0.79520000  1.0 0.4128311995
C  C127  1  0.84870000  0.92435000  0.79520000  1.0 0.4128311995
C  C128  1  0.92435000  0.07565000  0.29520000  1.0 0.4128311995
C  C129  1  0.07565000  0.15130000  0.79520000  1.0 0.4128311995
C  C130  1  0.15130000  0.07565000  0.29520000  1.0 0.4128311995
C  C131  1  0.92435000  0.84870000  0.29520000  1.0 0.4128311995
C  C132  1  0.07565000  0.92435000  0.70480000  1.0 0.4128311995
C  C133  1  0.81980000  0.07230000  0.12550000  1.0 -0.079569858
C  C134  1  0.74750000  0.81980000  0.62550000  1.0 -0.079569858
C  C135  1  0.92770000  0.74750000  0.12550000  1.0 -0.079569858
C  C136  1  0.25250000  0.18020000  0.12550000  1.0 -0.079569858
C  C137  1  0.07230000  0.25250000  0.62550000  1.0 -0.079569858
C  C138  1  0.07230000  0.81980000  0.87450000  1.0 -0.079569858
C  C139  1  0.74750000  0.92770000  0.87450000  1.0 -0.079569858
C  C140  1  0.92770000  0.18020000  0.37450000  1.0 -0.079569858
C  C141  1  0.18020000  0.25250000  0.87450000  1.0 -0.079569858
C  C142  1  0.25250000  0.07230000  0.37450000  1.0 -0.079569858
C  C143  1  0.81980000  0.74750000  0.37450000  1.0 -0.079569858
C  C144  1  0.18020000  0.92770000  0.62550000  1.0 -0.079569858
C  C145  1  0.18020000  0.92770000  0.87450000  1.0 -0.079569858
C  C146  1  0.25250000  0.18020000  0.37450000  1.0 -0.079569858
C  C147  1  0.07230000  0.25250000  0.87450000  1.0 -0.079569858
C  C148  1  0.74750000  0.81980000  0.87450000  1.0 -0.079569858
C  C149  1  0.92770000  0.74750000  0.37450000  1.0 -0.079569858
C  C150  1  0.92770000  0.18020000  0.12550000  1.0 -0.079569858
C  C151  1  0.25250000  0.07230000  0.12550000  1.0 -0.079569858
C  C152  1  0.07230000  0.81980000  0.62550000  1.0 -0.079569858
C  C153  1  0.81980000  0.74750000  0.12550000  1.0 -0.079569858
C  C154  1  0.74750000  0.92770000  0.62550000  1.0 -0.079569858
C  C155  1  0.18020000  0.25250000  0.62550000  1.0 -0.079569858
C  C156  1  0.81980000  0.07230000  0.37450000  1.0 -0.079569858
C  C157  1  0.84240000  0.04760000  0.15330000  1.0 -0.0618323234
C  C158  1  0.79480000  0.84240000  0.65330000  1.0 -0.0618323234
C  C159  1  0.95240000  0.79480000  0.15330000  1.0 -0.0618323234
C  C160  1  0.20520000  0.15760000  0.15330000  1.0 -0.0618323234
C  C161  1  0.04760000  0.20520000  0.65330000  1.0 -0.0618323234
C  C162  1  0.04760000  0.84240000  0.84670000  1.0 -0.0618323234
C  C163  1  0.79480000  0.95240000  0.84670000  1.0 -0.0618323234
C  C164  1  0.95240000  0.15760000  0.34670000  1.0 -0.0618323234
C  C165  1  0.15760000  0.20520000  0.84670000  1.0 -0.0618323234
C  C166  1  0.20520000  0.04760000  0.34670000  1.0 -0.0618323234
C  C167  1  0.84240000  0.79480000  0.34670000  1.0 -0.0618323234
C  C168  1  0.15760000  0.95240000  0.65330000  1.0 -0.0618323234
C  C169  1  0.15760000  0.95240000  0.84670000  1.0 -0.0618323234
C  C170  1  0.20520000  0.15760000  0.34670000  1.0 -0.0618323234
C  C171  1  0.04760000  0.20520000  0.84670000  1.0 -0.0618323234
C  C172  1  0.79480000  0.84240000  0.84670000  1.0 -0.0618323234
C  C173  1  0.95240000  0.79480000  0.34670000  1.0 -0.0618323234
C  C174  1  0.95240000  0.15760000  0.15330000  1.0 -0.0618323234
C  C175  1  0.20520000  0.04760000  0.15330000  1.0 -0.0618323234
C  C176  1  0.04760000  0.84240000  0.65330000  1.0 -0.0618323234
C  C177  1  0.84240000  0.79480000  0.15330000  1.0 -0.0618323234
C  C178  1  0.79480000  0.95240000  0.65330000  1.0 -0.0618323234
C  C179  1  0.15760000  0.20520000  0.65330000  1.0 -0.0618323234
C  C180  1  0.84240000  0.04760000  0.34670000  1.0 -0.0618323234
C  C181  1  0.90080000  0.68770000  0.35830000  1.0 -0.0705956232
C  C182  1  0.21310000  0.90080000  0.85830000  1.0 -0.0705956232
C  C183  1  0.31230000  0.21310000  0.35830000  1.0 -0.0705956232
C  C184  1  0.78690000  0.09920000  0.35830000  1.0 -0.0705956232
C  C185  1  0.68770000  0.78690000  0.85830000  1.0 -0.0705956232
C  C186  1  0.68770000  0.90080000  0.64170000  1.0 -0.0705956232
C  C187  1  0.21310000  0.31230000  0.64170000  1.0 -0.0705956232
C  C188  1  0.31230000  0.09920000  0.14170000  1.0 -0.0705956232
C  C189  1  0.09920000  0.78690000  0.64170000  1.0 -0.0705956232
C  C190  1  0.78690000  0.68770000  0.14170000  1.0 -0.0705956232
C  C191  1  0.90080000  0.21310000  0.14170000  1.0 -0.0705956232
C  C192  1  0.09920000  0.31230000  0.85830000  1.0 -0.0705956232
C  C193  1  0.09920000  0.31230000  0.64170000  1.0 -0.0705956232
C  C194  1  0.78690000  0.09920000  0.14170000  1.0 -0.0705956232
C  C195  1  0.68770000  0.78690000  0.64170000  1.0 -0.0705956232
C  C196  1  0.21310000  0.90080000  0.64170000  1.0 -0.0705956232
C  C197  1  0.31230000  0.21310000  0.14170000  1.0 -0.0705956232
C  C198  1  0.31230000  0.09920000  0.35830000  1.0 -0.0705956232
C  C199  1  0.78690000  0.68770000  0.35830000  1.0 -0.0705956232
C  C200  1  0.68770000  0.90080000  0.85830000  1.0 -0.0705956232
C  C201  1  0.90080000  0.21310000  0.35830000  1.0 -0.0705956232
C  C202  1  0.21310000  0.31230000  0.85830000  1.0 -0.0705956232
C  C203  1  0.09920000  0.78690000  0.85830000  1.0 -0.0705956232
C  C204  1  0.90080000  0.68770000  0.14170000  1.0 -0.0705956232
C  C205  1  0.92640000  0.74030000  0.32940000  1.0 -0.0618323234
C  C206  1  0.18610000  0.92640000  0.82940000  1.0 -0.0618323234
C  C207  1  0.25970000  0.18610000  0.32940000  1.0 -0.0618323234
C  C208  1  0.81390000  0.07360000  0.32940000  1.0 -0.0618323234
C  C209  1  0.74030000  0.81390000  0.82940000  1.0 -0.0618323234
C  C210  1  0.74030000  0.92640000  0.67060000  1.0 -0.0618323234
C  C211  1  0.18610000  0.25970000  0.67060000  1.0 -0.0618323234
C  C212  1  0.25970000  0.07360000  0.17060000  1.0 -0.0618323234
C  C213  1  0.07360000  0.81390000  0.67060000  1.0 -0.0618323234
C  C214  1  0.81390000  0.74030000  0.17060000  1.0 -0.0618323234
C  C215  1  0.92640000  0.18610000  0.17060000  1.0 -0.0618323234
C  C216  1  0.07360000  0.25970000  0.82940000  1.0 -0.0618323234
C  C217  1  0.07360000  0.25970000  0.67060000  1.0 -0.0618323234
C  C218  1  0.81390000  0.07360000  0.17060000  1.0 -0.0618323234
C  C219  1  0.74030000  0.81390000  0.67060000  1.0 -0.0618323234
C  C220  1  0.18610000  0.92640000  0.67060000  1.0 -0.0618323234
C  C221  1  0.25970000  0.18610000  0.17060000  1.0 -0.0618323234
C  C222  1  0.25970000  0.07360000  0.32940000  1.0 -0.0618323234
C  C223  1  0.81390000  0.74030000  0.32940000  1.0 -0.0618323234
C  C224  1  0.74030000  0.92640000  0.82940000  1.0 -0.0618323234
C  C225  1  0.92640000  0.18610000  0.32940000  1.0 -0.0618323234
C  C226  1  0.18610000  0.25970000  0.82940000  1.0 -0.0618323234
C  C227  1  0.07360000  0.81390000  0.82940000  1.0 -0.0618323234
C  C228  1  0.92640000  0.74030000  0.17060000  1.0 -0.0618323234
O  O1  1  0.58730000  0.02510000  0.04367000  1.0 -0.4962252653
O  O2  1  0.56220000  0.58730000  0.54367000  1.0 -0.4949394143
O  O3  1  0.97490000  0.56220000  0.04367000  1.0 -0.4962252653
O  O4  1  0.43780000  0.41270000  0.04367000  1.0 -0.4962252653
O  O5  1  0.02510000  0.43780000  0.54367000  1.0 -0.4962252653
O  O6  1  0.02510000  0.58730000  0.95633000  1.0 -0.4962252653
O  O7  1  0.56220000  0.97490000  0.95633000  1.0 -0.4962252653
O  O8  1  0.97490000  0.41270000  0.45633000  1.0 -0.4962252653
O  O9  1  0.41270000  0.43780000  0.95633000  1.0 -0.4962252653
O  O10  1  0.43780000  0.02510000  0.45633000  1.0 -0.4962252653
O  O11  1  0.58730000  0.56220000  0.45633000  1.0 -0.4962252653
O  O12  1  0.41270000  0.97490000  0.54367000  1.0 -0.4962252653
O  O13  1  0.41270000  0.97490000  0.95633000  1.0 -0.4962252653
O  O14  1  0.43780000  0.41270000  0.45633000  1.0 -0.4962252653
O  O15  1  0.02510000  0.43780000  0.95633000  1.0 -0.4962252653
O  O16  1  0.56220000  0.58730000  0.95633000  1.0 -0.4962252653
O  O17  1  0.97490000  0.56220000  0.45633000  1.0 -0.4962252653
O  O18  1  0.97490000  0.41270000  0.04367000  1.0 -0.4962252653
O  O19  1  0.43780000  0.02510000  0.04367000  1.0 -0.4962252653
O  O20  1  0.02510000  0.58730000  0.54367000  1.0 -0.4949394143
O  O21  1  0.58730000  0.56220000  0.04367000  1.0 -0.4962252653
O  O22  1  0.56220000  0.97490000  0.54367000  1.0 -0.4962252653
O  O23  1  0.41270000  0.43780000  0.54367000  1.0 -0.4962252653
O  O24  1  0.58730000  0.02510000  0.45633000  1.0 -0.4962252653
O  O25  1  0.62914000  0.10936000  0.99942000  1.0 -0.5364178991
O  O26  1  0.51978000  0.62914000  0.49942000  1.0 -0.5364178991
O  O27  1  0.89064000  0.51978000  0.99942000  1.0 -0.5364178991
O  O28  1  0.48022000  0.37086000  0.99942000  1.0 -0.5364178991
O  O29  1  0.10936000  0.48022000  0.49942000  1.0 -0.5364178991
O  O30  1  0.10936000  0.62914000  0.00058000  1.0 -0.5364178991
O  O31  1  0.51978000  0.89064000  0.00058000  1.0 -0.5364178991
O  O32  1  0.89064000  0.37086000  0.50058000  1.0 -0.5364178991
O  O33  1  0.37086000  0.48022000  0.00058000  1.0 -0.5364178991
O  O34  1  0.48022000  0.10936000  0.50058000  1.0 -0.5364178991
O  O35  1  0.62914000  0.51978000  0.50058000  1.0 -0.5364178991
O  O36  1  0.37086000  0.89064000  0.49942000  1.0 -0.5364178991
O  O37  1  0.37086000  0.89064000  0.00058000  1.0 -0.5364178991
O  O38  1  0.48022000  0.37086000  0.50058000  1.0 -0.5364178991
O  O39  1  0.10936000  0.48022000  0.00058000  1.0 -0.5364178991
O  O40  1  0.51978000  0.62914000  0.00058000  1.0 -0.5364178991
O  O41  1  0.89064000  0.51978000  0.50058000  1.0 -0.5364178991
O  O42  1  0.89064000  0.37086000  0.99942000  1.0 -0.5364178991
O  O43  1  0.48022000  0.10936000  0.99942000  1.0 -0.5364178991
O  O44  1  0.10936000  0.62914000  0.49942000  1.0 -0.5364178991
O  O45  1  0.62914000  0.51978000  0.99942000  1.0 -0.5364178991
O  O46  1  0.51978000  0.89064000  0.49942000  1.0 -0.5364178991
O  O47  1  0.37086000  0.48022000  0.49942000  1.0 -0.5364178991
O  O48  1  0.62914000  0.10936000  0.50058000  1.0 -0.5364178991
O  O49  1  0.89130000  0.00000000  0.21120000  1.0 -0.1965202031
O  O50  1  0.89130000  0.89130000  0.71120000  1.0 -0.1965202031
O  O51  1  0.00000000  0.89130000  0.21120000  1.0 -0.1965202031
O  O52  1  0.10870000  0.10870000  0.21120000  1.0 -0.1965202031
O  O53  1  0.00000000  0.10870000  0.71120000  1.0 -0.1965202031
O  O54  1  0.00000000  0.89130000  0.78880000  1.0 -0.1965202031
O  O55  1  0.89130000  0.00000000  0.78880000  1.0 -0.1965202031
O  O56  1  0.00000000  0.10870000  0.28880000  1.0 -0.1965202031
O  O57  1  0.10870000  0.10870000  0.78880000  1.0 -0.1965202031
O  O58  1  0.10870000  0.00000000  0.28880000  1.0 -0.1965202031
O  O59  1  0.89130000  0.89130000  0.28880000  1.0 -0.1965202031
O  O60  1  0.10870000  0.00000000  0.71120000  1.0 -0.1965202031
O  O61  1  0.10870000  0.00000000  0.78880000  1.0 -0.1965202031
O  O62  1  0.10870000  0.10870000  0.28880000  1.0 -0.1965202031
O  O63  1  0.00000000  0.10870000  0.78880000  1.0 -0.1965202031
O  O64  1  0.89130000  0.89130000  0.78880000  1.0 -0.1965202031
O  O65  1  0.00000000  0.89130000  0.28880000  1.0 -0.1965202031
O  O66  1  0.00000000  0.10870000  0.21120000  1.0 -0.1965202031
O  O67  1  0.10870000  0.00000000  0.21120000  1.0 -0.1965202031
O  O68  1  0.00000000  0.89130000  0.71120000  1.0 -0.1965202031
O  O69  1  0.89130000  0.89130000  0.21120000  1.0 -0.1965202031
O  O70  1  0.89130000  0.00000000  0.71120000  1.0 -0.1965202031
O  O71  1  0.10870000  0.10870000  0.71120000  1.0 -0.1965202031
O  O72  1  0.89130000  0.00000000  0.28880000  1.0 -0.1922150678
O  O73  1  0.86490000  0.84630000  0.27850000  1.0 -0.2304570614
O  O74  1  0.01860000  0.86490000  0.77850000  1.0 -0.2304570614
O  O75  1  0.15370000  0.01860000  0.27850000  1.0 -0.2304570614
O  O76  1  0.98140000  0.13510000  0.27850000  1.0 -0.2304570614
O  O77  1  0.84630000  0.98140000  0.77850000  1.0 -0.2304570614
O  O78  1  0.84630000  0.86490000  0.72150000  1.0 -0.2304570614
O  O79  1  0.01860000  0.15370000  0.72150000  1.0 -0.2304570614
O  O80  1  0.15370000  0.13510000  0.22150000  1.0 -0.2304570614
O  O81  1  0.13510000  0.98140000  0.72150000  1.0 -0.2304570614
O  O82  1  0.98140000  0.84630000  0.22150000  1.0 -0.2304570614
O  O83  1  0.86490000  0.01860000  0.22150000  1.0 -0.2304570614
O  O84  1  0.13510000  0.15370000  0.77850000  1.0 -0.2304570614
O  O85  1  0.13510000  0.15370000  0.72150000  1.0 -0.2304570614
O  O86  1  0.98140000  0.13510000  0.22150000  1.0 -0.2304570614
O  O87  1  0.84630000  0.98140000  0.72150000  1.0 -0.2304570614
O  O88  1  0.01860000  0.86490000  0.72150000  1.0 -0.2304570614
O  O89  1  0.15370000  0.01860000  0.22150000  1.0 -0.2304570614
O  O90  1  0.15370000  0.13510000  0.27850000  1.0 -0.2304570614
O  O91  1  0.98140000  0.84630000  0.27850000  1.0 -0.2304570614
O  O92  1  0.84630000  0.86490000  0.77850000  1.0 -0.2304570614
O  O93  1  0.86490000  0.01860000  0.27850000  1.0 -0.2304570614
O  O94  1  0.01860000  0.15370000  0.77850000  1.0 -0.2304570614
O  O95  1  0.13510000  0.98140000  0.77850000  1.0 -0.2304570614
O  O96  1  0.86490000  0.84630000  0.22150000  1.0 -0.2304570614
