# DDEC6 charges by PACMAN v1.1 (https://github.com/mtap-research/PACMAN-charge/)
data_PIWLOZ_FSR_pacman
_symmetry_space_group_name_H-M   'P 1'
_cell_length_a   17.12240000
_cell_length_b   21.41200000
_cell_length_c   30.32290000
_cell_angle_alpha   90.00000000
_cell_angle_beta   119.07200000
_cell_angle_gamma   90.00000000
_symmetry_Int_Tables_number   1
_chemical_formula_structural   Zn4H46C57N2O19
_chemical_formula_sum   'Zn16 H184 C228 N8 O76'
_cell_volume   9716.47869378
_cell_formula_units_Z   4
loop_
 _symmetry_equiv_pos_site_id
 _symmetry_equiv_pos_as_xyz
  1  'x, y, z'
loop_
 _atom_site_type_symbol
 _atom_site_label
 _atom_site_symmetry_multiplicity
 _atom_site_fract_x
 _atom_site_fract_y
 _atom_site_fract_z
 _atom_site_occupancy
 _atom_site_charge
Zn  Zn1  1  0.70461000  0.16879000  0.06271000  1.0 0.7836217329
Zn  Zn2  1  0.77755000  0.23551000  0.99750000  1.0 0.9047026531
Zn  Zn3  1  0.77081000  0.08870000  0.99907000  1.0 0.7836217329
Zn  Zn4  1  0.58688000  0.16503000  0.94408000  1.0 0.790668954
Zn  Zn5  1  0.29539000  0.66879000  0.43729000  1.0 0.7836217329
Zn  Zn6  1  0.22245000  0.73551000  0.50250000  1.0 0.9047026531
Zn  Zn7  1  0.22919000  0.58870000  0.50093000  1.0 0.7836217329
Zn  Zn8  1  0.41312000  0.66503000  0.55592000  1.0 0.790668954
Zn  Zn9  1  0.29539000  0.83121000  0.93729000  1.0 0.7836217329
Zn  Zn10  1  0.22245000  0.76449000  0.00250000  1.0 0.9047026531
Zn  Zn11  1  0.22919000  0.91130000  0.00093000  1.0 0.7836217329
Zn  Zn12  1  0.41312000  0.83497000  0.05592000  1.0 0.790668954
Zn  Zn13  1  0.70461000  0.33121000  0.56271000  1.0 0.7836217329
Zn  Zn14  1  0.77755000  0.26449000  0.49750000  1.0 0.9047026531
Zn  Zn15  1  0.77081000  0.41130000  0.49907000  1.0 0.7836217329
Zn  Zn16  1  0.58688000  0.33497000  0.44408000  1.0 0.790668954
H  H1  1  0.45830000  0.16630000  0.83220000  1.0 0.0806611074
H  H2  1  0.81520000  0.30050000  0.18250000  1.0 0.1188722909
H  H3  1  0.96170000  0.35110000  0.11610000  1.0 0.110939499
H  H4  1  0.38870000  0.11020000  0.96160000  1.0 0.1007590839
H  H5  1  0.46510000  0.21340000  0.08480000  1.0 0.0885198125
H  H6  1  0.90310000  0.36510000  0.25130000  1.0 0.1007590839
H  H7  1  0.04950000  0.41570000  0.18490000  1.0 0.1007590839
H  H8  1  0.24690000  0.09900000  0.95130000  1.0 0.1007590839
H  H9  1  0.31880000  0.20990000  0.07040000  1.0 0.1007590839
H  H10  1  0.70420000  0.95770000  0.87460000  1.0 0.0806611074
H  H11  1  0.46810000  0.04420000  0.83350000  1.0 0.0806611074
H  H12  1  0.27320000  0.18550000  0.73980000  1.0 0.1293192343
H  H13  1  0.37110000  0.15920000  0.75660000  1.0 0.1188722909
H  H14  1  0.28900000  0.11190000  0.73940000  1.0 0.1293192343
H  H15  1  0.20640000  0.14860000  0.79050000  1.0 0.1293192343
H  H16  1  0.25940000  0.08800000  0.82140000  1.0 0.1293192343
H  H17  1  0.27460000  0.15360000  0.84980000  1.0 0.1293192343
H  H18  1  0.63390000  0.89190000  0.80440000  1.0 0.1007590839
H  H19  1  0.39780000  0.97840000  0.76330000  1.0 0.1007590839
H  H20  1  0.02330000  0.38000000  0.32300000  1.0 0.110939499
H  H21  1  0.08110000  0.49600000  0.23720000  1.0 0.110939499
H  H22  1  0.17130000  0.06070000  0.01670000  1.0 0.1007590839
H  H23  1  0.14750000  0.24760000  0.99260000  1.0 0.110939499
H  H24  1  0.11030000  0.44170000  0.39400000  1.0 0.110939499
H  H25  1  0.16800000  0.55770000  0.30810000  1.0 0.1188722909
H  H26  1  0.03150000  0.05850000  0.01300000  1.0 0.110939499
H  H27  1  0.00790000  0.24540000  0.98900000  1.0 0.1188722909
H  H28  1  0.36410000  0.94420000  0.68970000  1.0 0.1007590839
H  H29  1  0.55140000  0.80960000  0.75820000  1.0 0.1007590839
H  H30  1  0.30050000  0.88630000  0.61480000  1.0 0.110939499
H  H31  1  0.48780000  0.75180000  0.68330000  1.0 0.0885198125
H  H32  1  0.47550000  0.14560000  0.08970000  1.0 0.0806611074
H  H33  1  0.33340000  0.13110000  0.08120000  1.0 0.0698448055
H  H34  1  0.22050000  0.18570000  0.93500000  1.0 0.1007590839
H  H35  1  0.36260000  0.20030000  0.94350000  1.0 0.110939499
H  H36  1  0.44960000  0.05740000  0.93730000  1.0 0.0885198125
H  H37  1  0.53710000  0.04830000  0.07660000  1.0 0.1007590839
H  H38  1  0.54830000  0.97540000  0.06950000  1.0 0.0885198125
H  H39  1  0.60800000  0.02540000  0.06000000  1.0 0.1188722909
H  H40  1  0.34670000  0.02570000  0.96000000  1.0 0.0806611074
H  H41  1  0.38150000  0.95860000  0.98520000  1.0 0.1942928702
H  H42  1  0.37710000  0.01530000  0.01840000  1.0 0.0806611074
H  H43  1  0.63880000  0.92530000  0.90000000  1.0 0.0698448055
H  H44  1  0.52420000  0.06300000  0.80370000  1.0 0.0885198125
H  H45  1  0.57670000  0.85200000  0.82730000  1.0 0.0885198125
H  H46  1  0.46020000  0.00430000  0.74010000  1.0 0.110939499
H  H47  1  0.54170000  0.66630000  0.66780000  1.0 0.0806611074
H  H48  1  0.18480000  0.80050000  0.31750000  1.0 0.1188722909
H  H49  1  0.03830000  0.85110000  0.38390000  1.0 0.110939499
H  H50  1  0.61130000  0.61020000  0.53840000  1.0 0.1007590839
H  H51  1  0.53490000  0.71340000  0.41520000  1.0 0.0885198125
H  H52  1  0.09690000  0.86510000  0.24870000  1.0 0.1007590839
H  H53  1  0.95050000  0.91570000  0.31510000  1.0 0.1007590839
H  H54  1  0.75310000  0.59900000  0.54870000  1.0 0.1007590839
H  H55  1  0.68120000  0.70990000  0.42960000  1.0 0.1007590839
H  H56  1  0.29580000  0.45770000  0.62540000  1.0 0.0806611074
H  H57  1  0.53190000  0.54420000  0.66650000  1.0 0.0806611074
H  H58  1  0.72680000  0.68550000  0.76020000  1.0 0.1293192343
H  H59  1  0.62890000  0.65920000  0.74340000  1.0 0.1188722909
H  H60  1  0.71100000  0.61190000  0.76060000  1.0 0.1293192343
H  H61  1  0.79360000  0.64860000  0.70950000  1.0 0.1293192343
H  H62  1  0.74060000  0.58800000  0.67860000  1.0 0.1293192343
H  H63  1  0.72540000  0.65360000  0.65020000  1.0 0.1293192343
H  H64  1  0.36610000  0.39190000  0.69560000  1.0 0.1007590839
H  H65  1  0.60220000  0.47840000  0.73670000  1.0 0.1007590839
H  H66  1  0.97670000  0.88000000  0.17700000  1.0 0.110939499
H  H67  1  0.91890000  0.99600000  0.26280000  1.0 0.110939499
H  H68  1  0.82870000  0.56070000  0.48330000  1.0 0.1007590839
H  H69  1  0.85250000  0.74760000  0.50740000  1.0 0.110939499
H  H70  1  0.88970000  0.94170000  0.10600000  1.0 0.110939499
H  H71  1  0.83200000  0.05770000  0.19190000  1.0 0.1188722909
H  H72  1  0.96850000  0.55850000  0.48700000  1.0 0.110939499
H  H73  1  0.99210000  0.74540000  0.51100000  1.0 0.1188722909
H  H74  1  0.63590000  0.44420000  0.81030000  1.0 0.1007590839
H  H75  1  0.44860000  0.30960000  0.74180000  1.0 0.1007590839
H  H76  1  0.69950000  0.38630000  0.88520000  1.0 0.110939499
H  H77  1  0.51220000  0.25180000  0.81670000  1.0 0.0885198125
H  H78  1  0.52450000  0.64560000  0.41030000  1.0 0.0806611074
H  H79  1  0.66666667  0.63110000  0.41880000  1.0 0.0698448055
H  H80  1  0.77950000  0.68570000  0.56500000  1.0 0.1007590839
H  H81  1  0.63740000  0.70030000  0.55650000  1.0 0.110939499
H  H82  1  0.55040000  0.55740000  0.56270000  1.0 0.0885198125
H  H83  1  0.46290000  0.54830000  0.42340000  1.0 0.1007590839
H  H84  1  0.45170000  0.47540000  0.43050000  1.0 0.0885198125
H  H85  1  0.39200000  0.52540000  0.44000000  1.0 0.1188722909
H  H86  1  0.65330000  0.52570000  0.54000000  1.0 0.0806611074
H  H87  1  0.61850000  0.45860000  0.51480000  1.0 0.1942928702
H  H88  1  0.62290000  0.51530000  0.48160000  1.0 0.0806611074
H  H89  1  0.36120000  0.42530000  0.60000000  1.0 0.0698448055
H  H90  1  0.47580000  0.56300000  0.69630000  1.0 0.0885198125
H  H91  1  0.42330000  0.35200000  0.67270000  1.0 0.0885198125
H  H92  1  0.53980000  0.50430000  0.75990000  1.0 0.110939499
H  H93  1  0.54170000  0.83370000  0.16780000  1.0 0.0806611074
H  H94  1  0.18480000  0.69950000  0.81750000  1.0 0.1188722909
H  H95  1  0.03830000  0.64890000  0.88390000  1.0 0.110939499
H  H96  1  0.61130000  0.88980000  0.03840000  1.0 0.1007590839
H  H97  1  0.53490000  0.78660000  0.91520000  1.0 0.0885198125
H  H98  1  0.09690000  0.63490000  0.74870000  1.0 0.1007590839
H  H99  1  0.95050000  0.58430000  0.81510000  1.0 0.1007590839
H  H100  1  0.75310000  0.90100000  0.04870000  1.0 0.1007590839
H  H101  1  0.68120000  0.79010000  0.92960000  1.0 0.1007590839
H  H102  1  0.29580000  0.04230000  0.12540000  1.0 0.0806611074
H  H103  1  0.53190000  0.95580000  0.16650000  1.0 0.0806611074
H  H104  1  0.72680000  0.81450000  0.26020000  1.0 0.1293192343
H  H105  1  0.62890000  0.84080000  0.24340000  1.0 0.1188722909
H  H106  1  0.71100000  0.88810000  0.26060000  1.0 0.1293192343
H  H107  1  0.79360000  0.85140000  0.20950000  1.0 0.1293192343
H  H108  1  0.74060000  0.91200000  0.17860000  1.0 0.1293192343
H  H109  1  0.72540000  0.84640000  0.15020000  1.0 0.1293192343
H  H110  1  0.36610000  0.10810000  0.19560000  1.0 0.1007590839
H  H111  1  0.60220000  0.02160000  0.23670000  1.0 0.1007590839
H  H112  1  0.97670000  0.62000000  0.67700000  1.0 0.110939499
H  H113  1  0.91890000  0.50400000  0.76280000  1.0 0.110939499
H  H114  1  0.82870000  0.93930000  0.98330000  1.0 0.110939499
H  H115  1  0.85250000  0.75240000  0.00740000  1.0 0.110939499
H  H116  1  0.88970000  0.55830000  0.60600000  1.0 0.110939499
H  H117  1  0.83200000  0.44230000  0.69190000  1.0 0.1188722909
H  H118  1  0.96850000  0.94150000  0.98700000  1.0 0.110939499
H  H119  1  0.99210000  0.75460000  0.01100000  1.0 0.1188722909
H  H120  1  0.63590000  0.05580000  0.31030000  1.0 0.1007590839
H  H121  1  0.44860000  0.19040000  0.24180000  1.0 0.1007590839
H  H122  1  0.69950000  0.11370000  0.38520000  1.0 0.110939499
H  H123  1  0.51220000  0.24820000  0.31670000  1.0 0.0885198125
H  H124  1  0.52450000  0.85440000  0.91030000  1.0 0.0806611074
H  H125  1  0.66666667  0.86890000  0.91880000  1.0 0.0698448055
H  H126  1  0.77950000  0.81430000  0.06500000  1.0 0.1007590839
H  H127  1  0.63740000  0.79970000  0.05650000  1.0 0.110939499
H  H128  1  0.55040000  0.94260000  0.06270000  1.0 0.0885198125
H  H129  1  0.46290000  0.95170000  0.92340000  1.0 0.1007590839
H  H130  1  0.45170000  0.02460000  0.93050000  1.0 0.0885198125
H  H131  1  0.39200000  0.97460000  0.94000000  1.0 0.1188722909
H  H132  1  0.65330000  0.97430000  0.04000000  1.0 0.0806611074
H  H133  1  0.61850000  0.04140000  0.01480000  1.0 0.1942928702
H  H134  1  0.62290000  0.98470000  0.98160000  1.0 0.0806611074
H  H135  1  0.36120000  0.07470000  0.10000000  1.0 0.0698448055
H  H136  1  0.47580000  0.93700000  0.19630000  1.0 0.0885198125
H  H137  1  0.42330000  0.14800000  0.17270000  1.0 0.0885198125
H  H138  1  0.53980000  0.99570000  0.25990000  1.0 0.110939499
H  H139  1  0.45830000  0.33370000  0.33220000  1.0 0.0806611074
H  H140  1  0.81520000  0.19950000  0.68250000  1.0 0.1188722909
H  H141  1  0.96170000  0.14890000  0.61610000  1.0 0.110939499
H  H142  1  0.38870000  0.38980000  0.46160000  1.0 0.1007590839
H  H143  1  0.46510000  0.28660000  0.58480000  1.0 0.0885198125
H  H144  1  0.90310000  0.13490000  0.75130000  1.0 0.1007590839
H  H145  1  0.04950000  0.08430000  0.68490000  1.0 0.1007590839
H  H146  1  0.24690000  0.40100000  0.45130000  1.0 0.1007590839
H  H147  1  0.31880000  0.29010000  0.57040000  1.0 0.1007590839
H  H148  1  0.70420000  0.54230000  0.37460000  1.0 0.0806611074
H  H149  1  0.46810000  0.45580000  0.33350000  1.0 0.0806611074
H  H150  1  0.27320000  0.31450000  0.23980000  1.0 0.1293192343
H  H151  1  0.37110000  0.34080000  0.25660000  1.0 0.1188722909
H  H152  1  0.28900000  0.38810000  0.23940000  1.0 0.1293192343
H  H153  1  0.20640000  0.35140000  0.29050000  1.0 0.1293192343
H  H154  1  0.25940000  0.41200000  0.32140000  1.0 0.1293192343
H  H155  1  0.27460000  0.34640000  0.34980000  1.0 0.1293192343
H  H156  1  0.63390000  0.60810000  0.30440000  1.0 0.1007590839
H  H157  1  0.39780000  0.52160000  0.26330000  1.0 0.1007590839
H  H158  1  0.02330000  0.12000000  0.82300000  1.0 0.110939499
H  H159  1  0.08110000  0.00400000  0.73720000  1.0 0.110939499
H  H160  1  0.17130000  0.43930000  0.51670000  1.0 0.1007590839
H  H161  1  0.14750000  0.25240000  0.49260000  1.0 0.110939499
H  H162  1  0.11030000  0.05830000  0.89400000  1.0 0.110939499
H  H163  1  0.16800000  0.94230000  0.80810000  1.0 0.1188722909
H  H164  1  0.03150000  0.44150000  0.51300000  1.0 0.110939499
H  H165  1  0.00790000  0.25460000  0.48900000  1.0 0.1188722909
H  H166  1  0.36410000  0.55580000  0.18970000  1.0 0.1007590839
H  H167  1  0.55140000  0.69040000  0.25820000  1.0 0.1007590839
H  H168  1  0.30050000  0.61370000  0.11480000  1.0 0.110939499
H  H169  1  0.48780000  0.74820000  0.18330000  1.0 0.0885198125
H  H170  1  0.47550000  0.35440000  0.58970000  1.0 0.0806611074
H  H171  1  0.33340000  0.36890000  0.58120000  1.0 0.0698448055
H  H172  1  0.22050000  0.31430000  0.43500000  1.0 0.1007590839
H  H173  1  0.36260000  0.29970000  0.44350000  1.0 0.110939499
H  H174  1  0.44960000  0.44260000  0.43730000  1.0 0.0885198125
H  H175  1  0.53710000  0.45170000  0.57660000  1.0 0.1007590839
H  H176  1  0.54830000  0.52460000  0.56950000  1.0 0.0885198125
H  H177  1  0.60800000  0.47460000  0.56000000  1.0 0.1188722909
H  H178  1  0.34670000  0.47430000  0.46000000  1.0 0.0806611074
H  H179  1  0.38150000  0.54140000  0.48520000  1.0 0.1942928702
H  H180  1  0.37710000  0.48470000  0.51840000  1.0 0.0806611074
H  H181  1  0.63880000  0.57470000  0.40000000  1.0 0.0698448055
H  H182  1  0.52420000  0.43700000  0.30370000  1.0 0.0885198125
H  H183  1  0.57670000  0.64800000  0.32730000  1.0 0.0885198125
H  H184  1  0.46020000  0.49570000  0.24010000  1.0 0.110939499
C  C1  1  0.82780000  0.27780000  0.09900000  1.0 0.5698712662
C  C2  1  0.52380000  0.16930000  0.02070000  1.0 0.3943808422
C  C3  1  0.88030000  0.31980000  0.14290000  1.0 -0.0507677882
C  C4  1  0.43240000  0.17430000  0.01740000  1.0 -0.0197111963
C  C5  1  0.63210000  0.05730000  0.90200000  1.0 0.3226850525
C  C6  1  0.41860000  0.15510000  0.84440000  1.0 0.110939499
C  C7  1  0.86280000  0.32390000  0.18300000  1.0 -0.0898401813
C  C8  1  0.94980000  0.35400000  0.14360000  1.0 -0.0985369364
C  C9  1  0.37200000  0.13360000  0.98230000  1.0 -0.0985369364
C  C10  1  0.41850000  0.19560000  0.05480000  1.0 -0.079603372
C  C11  1  0.59270000  0.00710000  0.86060000  1.0 -0.0612193999
C  C12  1  0.91500000  0.36230000  0.22390000  1.0 -0.1615892519
C  C13  1  0.00200000  0.39230000  0.18440000  1.0 -0.1811522302
C  C14  1  0.28830000  0.12610000  0.97670000  1.0 -0.0710953056
C  C15  1  0.33240000  0.18990000  0.04700000  1.0 -0.0507677882
C  C16  1  0.64200000  0.96190000  0.85200000  1.0 -0.0898401813
C  C17  1  0.50180000  0.01330000  0.82760000  1.0 -0.1083150336
C  C18  1  0.31500000  0.15120000  0.75690000  1.0 -0.3428613051
C  C19  1  0.26310000  0.13330000  0.81820000  1.0 -0.326302807
C  C20  1  0.98460000  0.39650000  0.22460000  1.0 0.0698448055
C  C21  1  0.26360000  0.15700000  0.00730000  1.0 0.022480999
C  C22  1  0.60030000  0.92280000  0.81030000  1.0 -0.0507677882
C  C23  1  0.46000000  0.97420000  0.78590000  1.0 -0.0507677882
C  C24  1  0.04400000  0.43220000  0.27340000  1.0 0.0698448055
C  C25  1  0.17250000  0.15430000  0.00500000  1.0 0.0387110467
C  C26  1  0.50920000  0.92900000  0.77720000  1.0 0.0259388582
C  C27  1  0.05270000  0.41610000  0.32000000  1.0 -0.1615892519
C  C28  1  0.08700000  0.48500000  0.26900000  1.0 -0.1615892519
C  C29  1  0.13810000  0.09820000  0.01110000  1.0 -0.1811522302
C  C30  1  0.12400000  0.20920000  0.99680000  1.0 -0.1615892519
C  C31  1  0.46380000  0.88240000  0.73100000  1.0 0.0581623957
C  C32  1  0.10430000  0.45270000  0.36210000  1.0 -0.1244281634
C  C33  1  0.13860000  0.52160000  0.31110000  1.0 -0.1254637196
C  C34  1  0.05510000  0.09690000  0.00890000  1.0 -0.0898401813
C  C35  1  0.04100000  0.20790000  0.99460000  1.0 -0.0985369364
C  C36  1  0.38920000  0.90510000  0.68840000  1.0 -0.1811522302
C  C37  1  0.50050000  0.82520000  0.72910000  1.0 -0.1684192821
C  C38  1  0.14730000  0.50550000  0.35770000  1.0 -0.0326487563
C  C39  1  0.00660000  0.15180000  0.00070000  1.0 -0.0507677882
C  C40  1  0.35160000  0.87080000  0.64400000  1.0 -0.0898401813
C  C41  1  0.46270000  0.79080000  0.68460000  1.0 -0.1083150336
C  C42  1  0.19310000  0.55230000  0.40070000  1.0 0.5523314372
C  C43  1  0.91620000  0.15670000  0.99460000  1.0 0.5870886342
C  C44  1  0.38820000  0.81360000  0.64200000  1.0 -0.0507677882
C  C45  1  0.35540000  0.77250000  0.59780000  1.0 0.5698712662
C  C46  1  0.63590000  0.04630000  0.90890000  1.0 0.2922283605
C  C47  1  0.42380000  0.15380000  0.05830000  1.0 -0.0710953056
C  C48  1  0.33940000  0.14510000  0.05330000  1.0 -0.079603372
C  C49  1  0.27230000  0.17760000  0.96640000  1.0 -0.0507677882
C  C50  1  0.35670000  0.18620000  0.97150000  1.0 -0.0507677882
C  C51  1  0.49640000  0.05140000  0.97090000  1.0 0.110939499
C  C52  1  0.54920000  0.01740000  0.05690000  1.0 -0.320972602
C  C53  1  0.38890000  0.00380000  0.99090000  1.0 -0.4361783966
C  C54  1  0.60430000  0.94120000  0.86670000  1.0 -0.1083150336
C  C55  1  0.53630000  0.02000000  0.81060000  1.0 -0.0612193999
C  C56  1  0.56600000  0.89570000  0.82430000  1.0 -0.079603372
C  C57  1  0.49760000  0.98600000  0.77230000  1.0 -0.0612193999
C  C58  1  0.17220000  0.77780000  0.40100000  1.0 0.5698712662
C  C59  1  0.47620000  0.66930000  0.47930000  1.0 0.3943808422
C  C60  1  0.11970000  0.81980000  0.35710000  1.0 -0.0507677882
C  C61  1  0.56760000  0.67430000  0.48260000  1.0 -0.0197111963
C  C62  1  0.36790000  0.55730000  0.59800000  1.0 0.3226850525
C  C63  1  0.58140000  0.65510000  0.65560000  1.0 0.110939499
C  C64  1  0.13720000  0.82390000  0.31700000  1.0 -0.0898401813
C  C65  1  0.05020000  0.85400000  0.35640000  1.0 -0.0985369364
C  C66  1  0.62800000  0.63360000  0.51770000  1.0 -0.0985369364
C  C67  1  0.58150000  0.69560000  0.44520000  1.0 -0.079603372
C  C68  1  0.40730000  0.50710000  0.63940000  1.0 -0.0612193999
C  C69  1  0.08500000  0.86230000  0.27610000  1.0 -0.1615892519
C  C70  1  0.99800000  0.89230000  0.31560000  1.0 -0.1811522302
C  C71  1  0.71170000  0.62610000  0.52330000  1.0 -0.0710953056
C  C72  1  0.66760000  0.68990000  0.45300000  1.0 -0.0507677882
C  C73  1  0.35800000  0.46190000  0.64800000  1.0 -0.0898401813
C  C74  1  0.49820000  0.51330000  0.67240000  1.0 -0.1083150336
C  C75  1  0.68500000  0.65120000  0.74310000  1.0 -0.3428613051
C  C76  1  0.73690000  0.63330000  0.68180000  1.0 -0.326302807
C  C77  1  0.01540000  0.89650000  0.27540000  1.0 0.0698448055
C  C78  1  0.73640000  0.65700000  0.49270000  1.0 0.022480999
C  C79  1  0.39970000  0.42280000  0.68970000  1.0 -0.0507677882
C  C80  1  0.54000000  0.47420000  0.71410000  1.0 -0.0507677882
C  C81  1  0.95600000  0.93220000  0.22660000  1.0 0.0698448055
C  C82  1  0.82750000  0.65430000  0.49500000  1.0 0.0387110467
C  C83  1  0.49080000  0.42900000  0.72280000  1.0 0.0259388582
C  C84  1  0.94730000  0.91610000  0.18000000  1.0 -0.1615892519
C  C85  1  0.91300000  0.98500000  0.23100000  1.0 -0.1615892519
C  C86  1  0.86190000  0.59820000  0.48890000  1.0 -0.1811522302
C  C87  1  0.87600000  0.70920000  0.50320000  1.0 -0.1615892519
C  C88  1  0.53620000  0.38240000  0.76900000  1.0 0.0581623957
C  C89  1  0.89570000  0.95270000  0.13790000  1.0 -0.1254637196
C  C90  1  0.86140000  0.02160000  0.18890000  1.0 -0.1254637196
C  C91  1  0.94490000  0.59690000  0.49110000  1.0 -0.0898401813
C  C92  1  0.95900000  0.70790000  0.50540000  1.0 -0.0985369364
C  C93  1  0.61080000  0.40510000  0.81160000  1.0 -0.1811522302
C  C94  1  0.49950000  0.32520000  0.77090000  1.0 -0.1684192821
C  C95  1  0.85270000  0.00550000  0.14230000  1.0 -0.0326487563
C  C96  1  0.99340000  0.65180000  0.49930000  1.0 -0.0507677882
C  C97  1  0.64840000  0.37080000  0.85600000  1.0 -0.0898401813
C  C98  1  0.53730000  0.29080000  0.81540000  1.0 -0.1083150336
C  C99  1  0.80690000  0.05230000  0.09930000  1.0 0.5523314372
C  C100  1  0.08380000  0.65670000  0.50540000  1.0 0.5870886342
C  C101  1  0.61180000  0.31360000  0.85800000  1.0 -0.0507677882
C  C102  1  0.64460000  0.27250000  0.90220000  1.0 0.5698712662
C  C103  1  0.36410000  0.54630000  0.59110000  1.0 0.2922283605
C  C104  1  0.57620000  0.65380000  0.44170000  1.0 -0.0710953056
C  C105  1  0.66060000  0.64510000  0.44670000  1.0 -0.079603372
C  C106  1  0.72770000  0.67760000  0.53360000  1.0 -0.0507677882
C  C107  1  0.64330000  0.68620000  0.52850000  1.0 -0.0507677882
C  C108  1  0.50360000  0.55140000  0.52910000  1.0 0.110939499
C  C109  1  0.45080000  0.51740000  0.44310000  1.0 -0.320972602
C  C110  1  0.61110000  0.50380000  0.50910000  1.0 -0.4361783966
C  C111  1  0.39570000  0.44120000  0.63330000  1.0 -0.1083150336
C  C112  1  0.46370000  0.52000000  0.68940000  1.0 -0.0612193999
C  C113  1  0.43400000  0.39570000  0.67570000  1.0 -0.079603372
C  C114  1  0.50240000  0.48600000  0.72770000  1.0 -0.0612193999
C  C115  1  0.17220000  0.72220000  0.90100000  1.0 0.5698712662
C  C116  1  0.47620000  0.83070000  0.97930000  1.0 0.3943808422
C  C117  1  0.11970000  0.68020000  0.85710000  1.0 -0.0507677882
C  C118  1  0.56760000  0.82570000  0.98260000  1.0 -0.0197111963
C  C119  1  0.36790000  0.94270000  0.09800000  1.0 0.3226850525
C  C120  1  0.58140000  0.84490000  0.15560000  1.0 0.110939499
C  C121  1  0.13720000  0.67610000  0.81700000  1.0 -0.0898401813
C  C122  1  0.05020000  0.64600000  0.85640000  1.0 -0.0985369364
C  C123  1  0.62800000  0.86640000  0.01770000  1.0 -0.0985369364
C  C124  1  0.58150000  0.80440000  0.94520000  1.0 -0.079603372
C  C125  1  0.40730000  0.99290000  0.13940000  1.0 -0.0612193999
C  C126  1  0.08500000  0.63770000  0.77610000  1.0 -0.1615892519
C  C127  1  0.99800000  0.60770000  0.81560000  1.0 -0.1811522302
C  C128  1  0.71170000  0.87390000  0.02330000  1.0 -0.0710953056
C  C129  1  0.66760000  0.81010000  0.95300000  1.0 -0.0507677882
C  C130  1  0.35800000  0.03810000  0.14800000  1.0 -0.0898401813
C  C131  1  0.49820000  0.98670000  0.17240000  1.0 -0.1083150336
C  C132  1  0.68500000  0.84880000  0.24310000  1.0 -0.3428613051
C  C133  1  0.73690000  0.86670000  0.18180000  1.0 -0.326302807
C  C134  1  0.01540000  0.60350000  0.77540000  1.0 0.0698448055
C  C135  1  0.73640000  0.84300000  0.99270000  1.0 0.022480999
C  C136  1  0.39970000  0.07720000  0.18970000  1.0 -0.0507677882
C  C137  1  0.54000000  0.02580000  0.21410000  1.0 -0.0507677882
C  C138  1  0.95600000  0.56780000  0.72660000  1.0 0.0698448055
C  C139  1  0.82750000  0.84570000  0.99500000  1.0 0.0387110467
C  C140  1  0.49080000  0.07100000  0.22280000  1.0 0.0259388582
C  C141  1  0.94730000  0.58390000  0.68000000  1.0 -0.1615892519
C  C142  1  0.91300000  0.51500000  0.73100000  1.0 -0.1615892519
C  C143  1  0.86190000  0.90180000  0.98890000  1.0 -0.1811522302
C  C144  1  0.87600000  0.79080000  0.00320000  1.0 -0.1615892519
C  C145  1  0.53620000  0.11760000  0.26900000  1.0 0.0581623957
C  C146  1  0.89570000  0.54730000  0.63790000  1.0 -0.1244281634
C  C147  1  0.86140000  0.47840000  0.68890000  1.0 -0.1254637196
C  C148  1  0.94490000  0.90310000  0.99110000  1.0 -0.0898401813
C  C149  1  0.95900000  0.79210000  0.00540000  1.0 -0.0985369364
C  C150  1  0.61080000  0.09490000  0.31160000  1.0 -0.1811522302
C  C151  1  0.49950000  0.17480000  0.27090000  1.0 -0.1684192821
C  C152  1  0.85270000  0.49450000  0.64230000  1.0 -0.0326487563
C  C153  1  0.99340000  0.84820000  0.99930000  1.0 -0.0507677882
C  C154  1  0.64840000  0.12920000  0.35600000  1.0 -0.0898401813
C  C155  1  0.53730000  0.20920000  0.31540000  1.0 -0.1083150336
C  C156  1  0.80690000  0.44770000  0.59930000  1.0 0.5523314372
C  C157  1  0.08380000  0.84330000  0.00540000  1.0 0.5870886342
C  C158  1  0.61180000  0.18640000  0.35800000  1.0 -0.0507677882
C  C159  1  0.64460000  0.22750000  0.40220000  1.0 0.5698712662
C  C160  1  0.36410000  0.95370000  0.09110000  1.0 0.2922283605
C  C161  1  0.57620000  0.84620000  0.94170000  1.0 -0.0710953056
C  C162  1  0.66060000  0.85490000  0.94670000  1.0 -0.079603372
C  C163  1  0.72770000  0.82240000  0.03360000  1.0 -0.0507677882
C  C164  1  0.64330000  0.81380000  0.02850000  1.0 -0.0507677882
C  C165  1  0.50360000  0.94860000  0.02910000  1.0 0.110939499
C  C166  1  0.45080000  0.98260000  0.94310000  1.0 -0.320972602
C  C167  1  0.61110000  0.99620000  0.00910000  1.0 -0.4361783966
C  C168  1  0.39570000  0.05880000  0.13330000  1.0 -0.1083150336
C  C169  1  0.46370000  0.98000000  0.18940000  1.0 -0.0612193999
C  C170  1  0.43400000  0.10430000  0.17570000  1.0 -0.079603372
C  C171  1  0.50240000  0.01400000  0.22770000  1.0 -0.0612193999
C  C172  1  0.82780000  0.22220000  0.59900000  1.0 0.5698712662
C  C173  1  0.52380000  0.33070000  0.52070000  1.0 0.3943808422
C  C174  1  0.88030000  0.18020000  0.64290000  1.0 -0.0507677882
C  C175  1  0.43240000  0.32570000  0.51740000  1.0 -0.0197111963
C  C176  1  0.63210000  0.44270000  0.40200000  1.0 0.3226850525
C  C177  1  0.41860000  0.34490000  0.34440000  1.0 0.110939499
C  C178  1  0.86280000  0.17610000  0.68300000  1.0 -0.0898401813
C  C179  1  0.94980000  0.14600000  0.64360000  1.0 -0.0985369364
C  C180  1  0.37200000  0.36640000  0.48230000  1.0 -0.0985369364
C  C181  1  0.41850000  0.30440000  0.55480000  1.0 -0.079603372
C  C182  1  0.59270000  0.49290000  0.36060000  1.0 -0.0612193999
C  C183  1  0.91500000  0.13770000  0.72390000  1.0 -0.1615892519
C  C184  1  0.00200000  0.10770000  0.68440000  1.0 -0.1811522302
C  C185  1  0.28830000  0.37390000  0.47670000  1.0 -0.0710953056
C  C186  1  0.33240000  0.31010000  0.54700000  1.0 -0.0507677882
C  C187  1  0.64200000  0.53810000  0.35200000  1.0 -0.0898401813
C  C188  1  0.50180000  0.48670000  0.32760000  1.0 -0.1083150336
C  C189  1  0.31500000  0.34880000  0.25690000  1.0 -0.3428613051
C  C190  1  0.26310000  0.36670000  0.31820000  1.0 -0.326302807
C  C191  1  0.98460000  0.10350000  0.72460000  1.0 0.0698448055
C  C192  1  0.26360000  0.34300000  0.50730000  1.0 0.022480999
C  C193  1  0.60030000  0.57720000  0.31030000  1.0 -0.0507677882
C  C194  1  0.46000000  0.52580000  0.28590000  1.0 -0.0507677882
C  C195  1  0.04400000  0.06780000  0.77340000  1.0 0.0698448055
C  C196  1  0.17250000  0.34570000  0.50500000  1.0 0.0387110467
C  C197  1  0.50920000  0.57100000  0.27720000  1.0 0.0259388582
C  C198  1  0.05270000  0.08390000  0.82000000  1.0 -0.1615892519
C  C199  1  0.08700000  0.01500000  0.76900000  1.0 -0.1615892519
C  C200  1  0.13810000  0.40180000  0.51110000  1.0 -0.1811522302
C  C201  1  0.12400000  0.29080000  0.49680000  1.0 -0.1615892519
C  C202  1  0.46380000  0.61760000  0.23100000  1.0 0.0581623957
C  C203  1  0.10430000  0.04730000  0.86210000  1.0 -0.1244281634
C  C204  1  0.13860000  0.97840000  0.81110000  1.0 -0.1254637196
C  C205  1  0.05510000  0.40310000  0.50890000  1.0 -0.0898401813
C  C206  1  0.04100000  0.29210000  0.49460000  1.0 -0.0985369364
C  C207  1  0.38920000  0.59490000  0.18840000  1.0 -0.1811522302
C  C208  1  0.50050000  0.67480000  0.22910000  1.0 -0.1684192821
C  C209  1  0.14730000  0.99450000  0.85770000  1.0 -0.0326487563
C  C210  1  0.00660000  0.34820000  0.50070000  1.0 -0.0507677882
C  C211  1  0.35160000  0.62920000  0.14400000  1.0 -0.0898401813
C  C212  1  0.46270000  0.70920000  0.18460000  1.0 -0.1083150336
C  C213  1  0.19310000  0.94770000  0.90070000  1.0 0.5523314372
C  C214  1  0.91620000  0.34330000  0.49460000  1.0 0.5870886342
C  C215  1  0.38820000  0.68640000  0.14200000  1.0 -0.0507677882
C  C216  1  0.35540000  0.72750000  0.09780000  1.0 0.5698712662
C  C217  1  0.63590000  0.45370000  0.40890000  1.0 0.2922283605
C  C218  1  0.42380000  0.34620000  0.55830000  1.0 -0.0710953056
C  C219  1  0.33940000  0.35490000  0.55330000  1.0 -0.079603372
C  C220  1  0.27230000  0.32240000  0.46640000  1.0 -0.0507677882
C  C221  1  0.35670000  0.31380000  0.47150000  1.0 -0.0507677882
C  C222  1  0.49640000  0.44860000  0.47090000  1.0 0.110939499
C  C223  1  0.54920000  0.48260000  0.55690000  1.0 -0.320972602
C  C224  1  0.38890000  0.49620000  0.49090000  1.0 -0.4361783966
C  C225  1  0.60430000  0.55880000  0.36670000  1.0 -0.1083150336
C  C226  1  0.53630000  0.48000000  0.31060000  1.0 -0.0612193999
C  C227  1  0.56600000  0.60430000  0.32430000  1.0 -0.079603372
C  C228  1  0.49760000  0.51400000  0.27230000  1.0 -0.0612193999
N  N1  1  0.33230000  0.14710000  0.80800000  1.0 0.0039908578
N  N2  1  0.48150000  0.02180000  0.00450000  1.0 0.1007590839
N  N3  1  0.66770000  0.64710000  0.69200000  1.0 0.0039908578
N  N4  1  0.51850000  0.52180000  0.49550000  1.0 0.1007590839
N  N5  1  0.66770000  0.85290000  0.19200000  1.0 0.0039908578
N  N6  1  0.51850000  0.97820000  0.99550000  1.0 0.1007590839
N  N7  1  0.33230000  0.35290000  0.30800000  1.0 0.0039908578
N  N8  1  0.48150000  0.47820000  0.50450000  1.0 0.1007590839
O  O1  1  0.71270000  0.16450000  0.00140000  1.0 -0.9065986975
O  O2  1  0.77180000  0.24240000  0.10390000  1.0 -0.5494482174
O  O3  1  0.59260000  0.19290000  0.05730000  1.0 -0.0054572668
O  O4  1  0.76930000  0.09640000  0.10680000  1.0 -0.5127573713
O  O5  1  0.83010000  0.28470000  0.06050000  1.0 -0.4992946788
O  O6  1  0.72150000  0.29210000  0.94160000  1.0 -0.5551754936
O  O7  1  0.88230000  0.20770000  0.99430000  1.0 -0.5201613858
O  O8  1  0.71170000  0.04970000  0.93640000  1.0 -0.040645647
O  O9  1  0.80570000  0.03730000  0.05950000  1.0 -0.5201613858
O  O10  1  0.88490000  0.10430000  0.99910000  1.0 -0.5494482174
O  O11  1  0.53660000  0.13730000  0.98620000  1.0 -0.1811522302
O  O12  1  0.45380000  0.15020000  0.89060000  1.0 -0.4678179427
O  O13  1  0.57670000  0.09310000  0.90870000  1.0 -0.2278440028
O  O14  1  0.59790000  0.22990000  0.90290000  1.0 -0.5367887272
O  O15  1  0.62630000  0.10450000  0.90120000  1.0 -0.0197111963
O  O16  1  0.57680000  0.07220000  0.98480000  1.0 -0.2563359394
O  O17  1  0.52790000  0.20430000  0.98660000  1.0 -0.2859919696
O  O18  1  0.59040000  0.16950000  0.06500000  1.0 -0.1519073761
O  O19  1  0.70710000  0.02340000  0.94460000  1.0 -0.1383445813
O  O20  1  0.28730000  0.66450000  0.49860000  1.0 -0.9065986975
O  O21  1  0.22820000  0.74240000  0.39610000  1.0 -0.5494482174
O  O22  1  0.40740000  0.69290000  0.44270000  1.0 -0.0054572668
O  O23  1  0.23070000  0.59640000  0.39320000  1.0 -0.5127573713
O  O24  1  0.16990000  0.78470000  0.43950000  1.0 -0.4992946788
O  O25  1  0.27850000  0.79210000  0.55840000  1.0 -0.5551754936
O  O26  1  0.11770000  0.70770000  0.50570000  1.0 -0.5201613858
O  O27  1  0.28830000  0.54970000  0.56360000  1.0 -0.040645647
O  O28  1  0.19430000  0.53730000  0.44050000  1.0 -0.5201613858
O  O29  1  0.11510000  0.60430000  0.50090000  1.0 -0.5494482174
O  O30  1  0.46340000  0.63730000  0.51380000  1.0 -0.1811522302
O  O31  1  0.54620000  0.65020000  0.60940000  1.0 -0.4678179427
O  O32  1  0.42330000  0.59310000  0.59130000  1.0 -0.2278440028
O  O33  1  0.40210000  0.72990000  0.59710000  1.0 -0.5367887272
O  O34  1  0.37370000  0.60450000  0.59880000  1.0 -0.0197111963
O  O35  1  0.42320000  0.57220000  0.51520000  1.0 -0.2563359394
O  O36  1  0.47210000  0.70430000  0.51340000  1.0 -0.2859919696
O  O37  1  0.40960000  0.66950000  0.43500000  1.0 -0.1519073761
O  O38  1  0.29290000  0.52340000  0.55540000  1.0 -0.1383445813
O  O39  1  0.28730000  0.83550000  0.99860000  1.0 -0.9065986975
O  O40  1  0.22820000  0.75760000  0.89610000  1.0 -0.5494482174
O  O41  1  0.40740000  0.80710000  0.94270000  1.0 -0.0054572668
O  O42  1  0.23070000  0.90360000  0.89320000  1.0 -0.5127573713
O  O43  1  0.16990000  0.71530000  0.93950000  1.0 -0.4992946788
O  O44  1  0.27850000  0.70790000  0.05840000  1.0 -0.5551754936
O  O45  1  0.11770000  0.79230000  0.00570000  1.0 -0.5201613858
O  O46  1  0.28830000  0.95030000  0.06360000  1.0 -0.040645647
O  O47  1  0.19430000  0.96270000  0.94050000  1.0 -0.5201613858
O  O48  1  0.11510000  0.89570000  0.00090000  1.0 -0.5494482174
O  O49  1  0.46340000  0.86270000  0.01380000  1.0 -0.1811522302
O  O50  1  0.54620000  0.84980000  0.10940000  1.0 -0.4678179427
O  O51  1  0.42330000  0.90690000  0.09130000  1.0 -0.2278440028
O  O52  1  0.40210000  0.77010000  0.09710000  1.0 -0.5367887272
O  O53  1  0.37370000  0.89550000  0.09880000  1.0 -0.0197111963
O  O54  1  0.42320000  0.92780000  0.01520000  1.0 -0.2563359394
O  O55  1  0.47210000  0.79570000  0.01340000  1.0 -0.2859919696
O  O56  1  0.40960000  0.83050000  0.93500000  1.0 -0.1519073761
O  O57  1  0.29290000  0.97660000  0.05540000  1.0 -0.1383445813
O  O58  1  0.71270000  0.33550000  0.50140000  1.0 -0.9065986975
O  O59  1  0.77180000  0.25760000  0.60390000  1.0 -0.5494482174
O  O60  1  0.59260000  0.30710000  0.55730000  1.0 -0.0054572668
O  O61  1  0.76930000  0.40360000  0.60680000  1.0 -0.5127573713
O  O62  1  0.83010000  0.21530000  0.56050000  1.0 -0.4992946788
O  O63  1  0.72150000  0.20790000  0.44160000  1.0 -0.5551754936
O  O64  1  0.88230000  0.29230000  0.49430000  1.0 -0.5201613858
O  O65  1  0.71170000  0.45030000  0.43640000  1.0 -0.040645647
O  O66  1  0.80570000  0.46270000  0.55950000  1.0 -0.5201613858
O  O67  1  0.88490000  0.39570000  0.49910000  1.0 -0.5494482174
O  O68  1  0.53660000  0.36270000  0.48620000  1.0 -0.1811522302
O  O69  1  0.45380000  0.34980000  0.39060000  1.0 -0.4678179427
O  O70  1  0.57670000  0.40690000  0.40870000  1.0 -0.2278440028
O  O71  1  0.59790000  0.27010000  0.40290000  1.0 -0.5367887272
O  O72  1  0.62630000  0.39550000  0.40120000  1.0 -0.0197111963
O  O73  1  0.57680000  0.42780000  0.48480000  1.0 -0.2563359394
O  O74  1  0.52790000  0.29570000  0.48660000  1.0 -0.2859919696
O  O75  1  0.59040000  0.33050000  0.56500000  1.0 -0.1519073761
O  O76  1  0.70710000  0.47660000  0.44460000  1.0 -0.1383445813
