# DDEC6 charges by PACMAN v1.1 (https://github.com/mtap-research/PACMAN-charge/)
data_PIWVAV_FSR_pacman
_symmetry_space_group_name_H-M   'P 1'
_cell_length_a   17.13400000
_cell_length_b   22.45600000
_cell_length_c   25.95700000
_cell_angle_alpha   90.00000000
_cell_angle_beta   90.00000000
_cell_angle_gamma   90.00000000
_symmetry_Int_Tables_number   1
_chemical_formula_structural   Zn4H40C58O13
_chemical_formula_sum   'Zn16 H160 C232 O52'
_cell_volume   9987.24397653
_cell_formula_units_Z   4
loop_
 _symmetry_equiv_pos_site_id
 _symmetry_equiv_pos_as_xyz
  1  'x, y, z'
loop_
 _atom_site_type_symbol
 _atom_site_label
 _atom_site_symmetry_multiplicity
 _atom_site_fract_x
 _atom_site_fract_y
 _atom_site_fract_z
 _atom_site_occupancy
 _atom_site_charge
Zn  Zn1  1  0.34677000  0.65977000  0.56091000  1.0 0.9425000742
Zn  Zn2  1  0.15323000  0.15977000  0.93909000  1.0 0.9425000742
Zn  Zn3  1  0.34677000  0.65977000  0.43909000  1.0 0.9425000742
Zn  Zn4  1  0.15323000  0.15977000  0.06091000  1.0 0.9425000742
Zn  Zn5  1  0.21843000  0.58654000  0.50000000  1.0 0.926745216
Zn  Zn6  1  0.21282000  0.72826000  0.50000000  1.0 0.9425000742
Zn  Zn7  1  0.28157000  0.08654000  0.00000000  1.0 0.926745216
Zn  Zn8  1  0.28718000  0.22826000  0.00000000  1.0 0.9456425557
Zn  Zn9  1  0.65323000  0.34023000  0.56091000  1.0 0.9425000742
Zn  Zn10  1  0.84677000  0.84023000  0.93909000  1.0 0.9425000742
Zn  Zn11  1  0.65323000  0.34023000  0.43909000  1.0 0.9425000742
Zn  Zn12  1  0.84677000  0.84023000  0.06091000  1.0 0.9425000742
Zn  Zn13  1  0.78157000  0.41346000  0.50000000  1.0 0.926745216
Zn  Zn14  1  0.78718000  0.27174000  0.50000000  1.0 0.9425000742
Zn  Zn15  1  0.71843000  0.91346000  0.00000000  1.0 0.926745216
Zn  Zn16  1  0.71282000  0.77174000  0.00000000  1.0 0.9425000742
H  H1  1  0.19510000  0.44910000  0.61430000  1.0 0.1278021388
H  H2  1  0.32760000  0.35750000  0.88300000  1.0 0.1227738068
H  H3  1  0.19330000  0.38180000  0.67790000  1.0 0.1227738068
H  H4  1  0.32630000  0.55330000  0.69130000  1.0 0.1278021388
H  H5  1  0.33500000  0.42310000  0.81530000  1.0 0.1116004688
H  H6  1  0.15340000  0.27870000  0.81820000  1.0 0.1227738068
H  H7  1  0.31570000  0.49130000  0.76150000  1.0 0.1116004688
H  H8  1  0.16760000  0.33640000  0.74530000  1.0 0.1116004688
H  H9  1  0.57930000  0.57870000  0.53620000  1.0 0.0797602903
H  H10  1  0.71570000  0.57330000  0.53600000  1.0 0.0698054558
H  H11  1  0.58890000  0.67410000  0.57630000  1.0 0.0590783807
H  H12  1  0.72530000  0.66900000  0.57880000  1.0 0.040117893
H  H13  1  0.58260000  0.62340000  0.57200000  1.0 0.0590783807
H  H14  1  0.71950000  0.61760000  0.57210000  1.0 0.0458248869
H  H15  1  0.83880000  0.72080000  0.55130000  1.0 0.0698054558
H  H16  1  0.97480000  0.72390000  0.54500000  1.0 0.0698054558
H  H17  1  0.58510000  0.71400000  0.56110000  1.0 0.0797602903
H  H18  1  0.72020000  0.70810000  0.56100000  1.0 0.0698054558
H  H19  1  0.30490000  0.94910000  0.88570000  1.0 0.1278021388
H  H20  1  0.17240000  0.85750000  0.61700000  1.0 0.1227738068
H  H21  1  0.30670000  0.88180000  0.82210000  1.0 0.1227738068
H  H22  1  0.17370000  0.05330000  0.80870000  1.0 0.1278021388
H  H23  1  0.16500000  0.92310000  0.68470000  1.0 0.1116004688
H  H24  1  0.34660000  0.77870000  0.68180000  1.0 0.1227738068
H  H25  1  0.18430000  0.99130000  0.73850000  1.0 0.1116004688
H  H26  1  0.33240000  0.83640000  0.75470000  1.0 0.1116004688
H  H27  1  0.92070000  0.07870000  0.96380000  1.0 0.0797602903
H  H28  1  0.78430000  0.07330000  0.96400000  1.0 0.0698054558
H  H29  1  0.91110000  0.17410000  0.92370000  1.0 0.0590783807
H  H30  1  0.77470000  0.16900000  0.92120000  1.0 0.040117893
H  H31  1  0.91740000  0.12340000  0.92800000  1.0 0.0590783807
H  H32  1  0.78050000  0.11760000  0.92790000  1.0 0.0458248869
H  H33  1  0.66120000  0.22080000  0.94870000  1.0 0.0698054558
H  H34  1  0.52520000  0.22390000  0.95500000  1.0 0.0698054558
H  H35  1  0.91490000  0.21400000  0.93890000  1.0 0.0797602903
H  H36  1  0.77980000  0.20810000  0.93900000  1.0 0.0698054558
H  H37  1  0.19510000  0.44910000  0.38570000  1.0 0.1278021388
H  H38  1  0.32760000  0.35750000  0.11700000  1.0 0.1227738068
H  H39  1  0.19330000  0.38180000  0.32210000  1.0 0.1227738068
H  H40  1  0.32630000  0.55330000  0.30870000  1.0 0.1278021388
H  H41  1  0.33500000  0.42310000  0.18470000  1.0 0.1116004688
H  H42  1  0.15340000  0.27870000  0.18180000  1.0 0.1227738068
H  H43  1  0.31570000  0.49130000  0.23850000  1.0 0.1116004688
H  H44  1  0.16760000  0.33640000  0.25470000  1.0 0.1116004688
H  H45  1  0.57930000  0.57870000  0.46380000  1.0 0.0797602903
H  H46  1  0.71570000  0.57330000  0.46400000  1.0 0.0698054558
H  H47  1  0.58890000  0.67410000  0.42370000  1.0 0.0590783807
H  H48  1  0.72530000  0.66900000  0.42120000  1.0 0.040117893
H  H49  1  0.58260000  0.62340000  0.42800000  1.0 0.0590783807
H  H50  1  0.71950000  0.61760000  0.42790000  1.0 0.0458248869
H  H51  1  0.83880000  0.72080000  0.44870000  1.0 0.0698054558
H  H52  1  0.97480000  0.72390000  0.45500000  1.0 0.0698054558
H  H53  1  0.58510000  0.71400000  0.43890000  1.0 0.0797602903
H  H54  1  0.72020000  0.70810000  0.43900000  1.0 0.0698054558
H  H55  1  0.30490000  0.94910000  0.11430000  1.0 0.1278021388
H  H56  1  0.17240000  0.85750000  0.38300000  1.0 0.1227738068
H  H57  1  0.30670000  0.88180000  0.17790000  1.0 0.1227738068
H  H58  1  0.17370000  0.05330000  0.19130000  1.0 0.1227738068
H  H59  1  0.16500000  0.92310000  0.31530000  1.0 0.1116004688
H  H60  1  0.34660000  0.77870000  0.31820000  1.0 0.1227738068
H  H61  1  0.18430000  0.99130000  0.26150000  1.0 0.1116004688
H  H62  1  0.33240000  0.83640000  0.24530000  1.0 0.1116004688
H  H63  1  0.92070000  0.07870000  0.03620000  1.0 0.0797602903
H  H64  1  0.78430000  0.07330000  0.03600000  1.0 0.0698054558
H  H65  1  0.91110000  0.17410000  0.07630000  1.0 0.0590783807
H  H66  1  0.77470000  0.16900000  0.07880000  1.0 0.040117893
H  H67  1  0.91740000  0.12340000  0.07200000  1.0 0.0590783807
H  H68  1  0.78050000  0.11760000  0.07210000  1.0 0.0458248869
H  H69  1  0.66120000  0.22080000  0.05130000  1.0 0.0698054558
H  H70  1  0.52520000  0.22390000  0.04500000  1.0 0.0698054558
H  H71  1  0.91490000  0.21400000  0.06110000  1.0 0.0797602903
H  H72  1  0.77980000  0.20810000  0.06100000  1.0 0.0698054558
H  H73  1  0.83480000  0.56350000  0.50000000  1.0 0.1481440017
H  H74  1  0.96970000  0.56390000  0.50000000  1.0 0.1278021388
H  H75  1  0.97340000  0.73960000  0.50000000  1.0 0.040117893
H  H76  1  0.83820000  0.74350000  0.50000000  1.0 0.0590783807
H  H77  1  0.66520000  0.06350000  0.00000000  1.0 0.1481440017
H  H78  1  0.53030000  0.06390000  0.00000000  1.0 0.1278021388
H  H79  1  0.52660000  0.23960000  0.00000000  1.0 0.040117893
H  H80  1  0.66180000  0.24350000  0.00000000  1.0 0.0590783807
H  H81  1  0.80490000  0.55090000  0.61430000  1.0 0.1278021388
H  H82  1  0.67240000  0.64250000  0.88300000  1.0 0.1227738068
H  H83  1  0.80670000  0.61820000  0.67790000  1.0 0.1227738068
H  H84  1  0.67370000  0.44670000  0.69130000  1.0 0.1278021388
H  H85  1  0.66500000  0.57690000  0.81530000  1.0 0.1116004688
H  H86  1  0.84660000  0.72130000  0.81820000  1.0 0.1227738068
H  H87  1  0.68430000  0.50870000  0.76150000  1.0 0.1116004688
H  H88  1  0.83240000  0.66360000  0.74530000  1.0 0.1116004688
H  H89  1  0.42070000  0.42130000  0.53620000  1.0 0.0797602903
H  H90  1  0.28430000  0.42670000  0.53600000  1.0 0.0698054558
H  H91  1  0.41110000  0.32590000  0.57630000  1.0 0.0590783807
H  H92  1  0.27470000  0.33100000  0.57880000  1.0 0.040117893
H  H93  1  0.41740000  0.37660000  0.57200000  1.0 0.0590783807
H  H94  1  0.28050000  0.38240000  0.57210000  1.0 0.0458248869
H  H95  1  0.16120000  0.27920000  0.55130000  1.0 0.0698054558
H  H96  1  0.02520000  0.27610000  0.54500000  1.0 0.0698054558
H  H97  1  0.41490000  0.28600000  0.56110000  1.0 0.0797602903
H  H98  1  0.27980000  0.29190000  0.56100000  1.0 0.0698054558
H  H99  1  0.69510000  0.05090000  0.88570000  1.0 0.1278021388
H  H100  1  0.82760000  0.14250000  0.61700000  1.0 0.1227738068
H  H101  1  0.69330000  0.11820000  0.82210000  1.0 0.1227738068
H  H102  1  0.82630000  0.94670000  0.80870000  1.0 0.1278021388
H  H103  1  0.83500000  0.07690000  0.68470000  1.0 0.1116004688
H  H104  1  0.65340000  0.22130000  0.68180000  1.0 0.1227738068
H  H105  1  0.81570000  0.00870000  0.73850000  1.0 0.1116004688
H  H106  1  0.66760000  0.16360000  0.75470000  1.0 0.1116004688
H  H107  1  0.07930000  0.92130000  0.96380000  1.0 0.0797602903
H  H108  1  0.21570000  0.92670000  0.96400000  1.0 0.0698054558
H  H109  1  0.08890000  0.82590000  0.92370000  1.0 0.0590783807
H  H110  1  0.22530000  0.83100000  0.92120000  1.0 0.040117893
H  H111  1  0.08260000  0.87660000  0.92800000  1.0 0.0590783807
H  H112  1  0.21950000  0.88240000  0.92790000  1.0 0.0458248869
H  H113  1  0.33880000  0.77920000  0.94870000  1.0 0.0698054558
H  H114  1  0.47480000  0.77610000  0.95500000  1.0 0.0698054558
H  H115  1  0.08510000  0.78600000  0.93890000  1.0 0.0797602903
H  H116  1  0.22020000  0.79190000  0.93900000  1.0 0.0698054558
H  H117  1  0.80490000  0.55090000  0.38570000  1.0 0.1278021388
H  H118  1  0.67240000  0.64250000  0.11700000  1.0 0.1227738068
H  H119  1  0.80670000  0.61820000  0.32210000  1.0 0.1227738068
H  H120  1  0.67370000  0.44670000  0.30870000  1.0 0.1278021388
H  H121  1  0.66500000  0.57690000  0.18470000  1.0 0.1116004688
H  H122  1  0.84660000  0.72130000  0.18180000  1.0 0.1227738068
H  H123  1  0.68430000  0.50870000  0.23850000  1.0 0.1116004688
H  H124  1  0.83240000  0.66360000  0.25470000  1.0 0.1116004688
H  H125  1  0.42070000  0.42130000  0.46380000  1.0 0.0797602903
H  H126  1  0.28430000  0.42670000  0.46400000  1.0 0.0698054558
H  H127  1  0.41110000  0.32590000  0.42370000  1.0 0.0590783807
H  H128  1  0.27470000  0.33100000  0.42120000  1.0 0.040117893
H  H129  1  0.41740000  0.37660000  0.42800000  1.0 0.0590783807
H  H130  1  0.28050000  0.38240000  0.42790000  1.0 0.0458248869
H  H131  1  0.16120000  0.27920000  0.44870000  1.0 0.0698054558
H  H132  1  0.02520000  0.27610000  0.45500000  1.0 0.0698054558
H  H133  1  0.41490000  0.28600000  0.43890000  1.0 0.0797602903
H  H134  1  0.27980000  0.29190000  0.43900000  1.0 0.0698054558
H  H135  1  0.69510000  0.05090000  0.11430000  1.0 0.1278021388
H  H136  1  0.82760000  0.14250000  0.38300000  1.0 0.1227738068
H  H137  1  0.69330000  0.11820000  0.17790000  1.0 0.1227738068
H  H138  1  0.82630000  0.94670000  0.19130000  1.0 0.1278021388
H  H139  1  0.83500000  0.07690000  0.31530000  1.0 0.1116004688
H  H140  1  0.65340000  0.22130000  0.31820000  1.0 0.1227738068
H  H141  1  0.81570000  0.00870000  0.26150000  1.0 0.1116004688
H  H142  1  0.66760000  0.16360000  0.24530000  1.0 0.1116004688
H  H143  1  0.07930000  0.92130000  0.03620000  1.0 0.0797602903
H  H144  1  0.21570000  0.92670000  0.03600000  1.0 0.0698054558
H  H145  1  0.08890000  0.82590000  0.07630000  1.0 0.0590783807
H  H146  1  0.22530000  0.83100000  0.07880000  1.0 0.040117893
H  H147  1  0.08260000  0.87660000  0.07200000  1.0 0.0590783807
H  H148  1  0.21950000  0.88240000  0.07210000  1.0 0.0458248869
H  H149  1  0.33880000  0.77920000  0.05130000  1.0 0.0698054558
H  H150  1  0.47480000  0.77610000  0.04500000  1.0 0.0698054558
H  H151  1  0.08510000  0.78600000  0.06110000  1.0 0.0797602903
H  H152  1  0.22020000  0.79190000  0.06100000  1.0 0.0698054558
H  H153  1  0.16520000  0.43650000  0.50000000  1.0 0.1481440017
H  H154  1  0.03030000  0.43610000  0.50000000  1.0 0.1278021388
H  H155  1  0.02660000  0.26040000  0.50000000  1.0 0.040117893
H  H156  1  0.16180000  0.25650000  0.50000000  1.0 0.0590783807
H  H157  1  0.33480000  0.93650000  0.00000000  1.0 0.1481440017
H  H158  1  0.46970000  0.93610000  0.00000000  1.0 0.1278021388
H  H159  1  0.47340000  0.76040000  0.00000000  1.0 0.040117893
H  H160  1  0.33820000  0.75650000  0.00000000  1.0 0.0590783807
C  C1  1  0.27370000  0.54780000  0.59930000  1.0 0.5776815811
C  C2  1  0.26670000  0.50630000  0.64370000  1.0 -0.0207476273
C  C3  1  0.23210000  0.26860000  0.90080000  1.0 0.5900221268
C  C4  1  0.23880000  0.31010000  0.85680000  1.0 -0.0485863492
C  C5  1  0.22450000  0.45700000  0.64370000  1.0 -0.150324562
C  C6  1  0.29290000  0.35370000  0.85570000  1.0 -0.1096602673
C  C7  1  0.25500000  0.42840000  0.72690000  1.0 0.0698054558
C  C8  1  0.24930000  0.38910000  0.77280000  1.0 0.0797602903
C  C9  1  0.22050000  0.41720000  0.68240000  1.0 -0.1697026305
C  C10  1  0.29840000  0.51800000  0.68780000  1.0 -0.1187696526
C  C11  1  0.29770000  0.39310000  0.81450000  1.0 -0.1697026305
C  C12  1  0.19300000  0.30700000  0.81760000  1.0 -0.098054007
C  C13  1  0.29290000  0.48020000  0.73040000  1.0 -0.1697026305
C  C14  1  0.19900000  0.34380000  0.77380000  1.0 -0.150324562
C  C15  1  0.61130000  0.63610000  0.54370000  1.0 -0.0097514618
C  C16  1  0.69260000  0.63260000  0.54380000  1.0 -0.0097514618
C  C17  1  0.60920000  0.60910000  0.52190000  1.0 -0.042513177
C  C18  1  0.69020000  0.60590000  0.52180000  1.0 -0.042513177
C  C19  1  0.61640000  0.66680000  0.54600000  1.0 -0.0207476273
C  C20  1  0.69720000  0.66390000  0.54840000  1.0 -0.0041560604
C  C21  1  0.86510000  0.69400000  0.53020000  1.0 -0.0715015818
C  C22  1  0.94670000  0.69440000  0.52810000  1.0 -0.042513177
C  C23  1  0.61170000  0.69110000  0.53700000  1.0 -0.0600808748
C  C24  1  0.69190000  0.68720000  0.53650000  1.0 -0.0600808748
C  C25  1  0.22630000  0.04780000  0.90070000  1.0 0.5776815811
C  C26  1  0.23330000  0.00630000  0.85630000  1.0 -0.0207476273
C  C27  1  0.26790000  0.76860000  0.59920000  1.0 0.5900221268
C  C28  1  0.26120000  0.81010000  0.64320000  1.0 -0.0600808748
C  C29  1  0.27550000  0.95700000  0.85630000  1.0 -0.150324562
C  C30  1  0.20710000  0.85370000  0.64430000  1.0 -0.1096602673
C  C31  1  0.24500000  0.92840000  0.77310000  1.0 0.0698054558
C  C32  1  0.25070000  0.88910000  0.72720000  1.0 0.0797602903
C  C33  1  0.27950000  0.91720000  0.81760000  1.0 -0.1697026305
C  C34  1  0.20160000  0.01800000  0.81220000  1.0 -0.1187696526
C  C35  1  0.20230000  0.89310000  0.68550000  1.0 -0.1697026305
C  C36  1  0.30700000  0.80700000  0.68240000  1.0 -0.098054007
C  C37  1  0.20710000  0.98020000  0.76960000  1.0 -0.1697026305
C  C38  1  0.30100000  0.84380000  0.72620000  1.0 -0.150324562
C  C39  1  0.88870000  0.13610000  0.95630000  1.0 -0.0097514618
C  C40  1  0.80740000  0.13260000  0.95620000  1.0 -0.0097514618
C  C41  1  0.89080000  0.10910000  0.97810000  1.0 -0.042513177
C  C42  1  0.80980000  0.10590000  0.97820000  1.0 -0.042513177
C  C43  1  0.88360000  0.16680000  0.95400000  1.0 -0.0207476273
C  C44  1  0.80280000  0.16390000  0.95160000  1.0 -0.0041560604
C  C45  1  0.63490000  0.19400000  0.96980000  1.0 -0.0715015818
C  C46  1  0.55330000  0.19440000  0.97190000  1.0 -0.0485863492
C  C47  1  0.88830000  0.19110000  0.96300000  1.0 -0.0600808748
C  C48  1  0.80810000  0.18720000  0.96350000  1.0 -0.0600808748
C  C49  1  0.27370000  0.54780000  0.40070000  1.0 0.5776815811
C  C50  1  0.26670000  0.50630000  0.35630000  1.0 -0.0207476273
C  C51  1  0.23210000  0.26860000  0.09920000  1.0 0.5900221268
C  C52  1  0.23880000  0.31010000  0.14320000  1.0 -0.0600808748
C  C53  1  0.22450000  0.45700000  0.35630000  1.0 -0.150324562
C  C54  1  0.29290000  0.35370000  0.14430000  1.0 -0.1096602673
C  C55  1  0.25500000  0.42840000  0.27310000  1.0 0.0698054558
C  C56  1  0.24930000  0.38910000  0.22720000  1.0 0.0797602903
C  C57  1  0.22050000  0.41720000  0.31760000  1.0 -0.1697026305
C  C58  1  0.29840000  0.51800000  0.31220000  1.0 -0.1187696526
C  C59  1  0.29770000  0.39310000  0.18550000  1.0 -0.1697026305
C  C60  1  0.19300000  0.30700000  0.18240000  1.0 -0.098054007
C  C61  1  0.29290000  0.48020000  0.26960000  1.0 -0.1697026305
C  C62  1  0.19900000  0.34380000  0.22620000  1.0 -0.150324562
C  C63  1  0.61130000  0.63610000  0.45630000  1.0 -0.0097514618
C  C64  1  0.69260000  0.63260000  0.45620000  1.0 -0.0097514618
C  C65  1  0.60920000  0.60910000  0.47810000  1.0 -0.042513177
C  C66  1  0.69020000  0.60590000  0.47820000  1.0 -0.042513177
C  C67  1  0.61640000  0.66680000  0.45400000  1.0 -0.0207476273
C  C68  1  0.69720000  0.66390000  0.45160000  1.0 -0.0041560604
C  C69  1  0.86510000  0.69400000  0.46980000  1.0 -0.0715015818
C  C70  1  0.94670000  0.69440000  0.47190000  1.0 -0.042513177
C  C71  1  0.61170000  0.69110000  0.46300000  1.0 -0.0600808748
C  C72  1  0.69190000  0.68720000  0.46350000  1.0 -0.0600808748
C  C73  1  0.22630000  0.04780000  0.09930000  1.0 0.5776815811
C  C74  1  0.23330000  0.00630000  0.14370000  1.0 -0.0207476273
C  C75  1  0.26790000  0.76860000  0.40080000  1.0 0.5900221268
C  C76  1  0.26120000  0.81010000  0.35680000  1.0 -0.0485863492
C  C77  1  0.27550000  0.95700000  0.14370000  1.0 -0.150324562
C  C78  1  0.20710000  0.85370000  0.35570000  1.0 -0.1096602673
C  C79  1  0.24500000  0.92840000  0.22690000  1.0 0.0698054558
C  C80  1  0.25070000  0.88910000  0.27280000  1.0 0.0797602903
C  C81  1  0.27950000  0.91720000  0.18240000  1.0 -0.1697026305
C  C82  1  0.20160000  0.01800000  0.18780000  1.0 -0.1187696526
C  C83  1  0.20230000  0.89310000  0.31450000  1.0 -0.1697026305
C  C84  1  0.30700000  0.80700000  0.31760000  1.0 -0.098054007
C  C85  1  0.20710000  0.98020000  0.23040000  1.0 -0.1697026305
C  C86  1  0.30100000  0.84380000  0.27380000  1.0 -0.150324562
C  C87  1  0.88870000  0.13610000  0.04370000  1.0 -0.0097514618
C  C88  1  0.80740000  0.13260000  0.04380000  1.0 -0.0097514618
C  C89  1  0.89080000  0.10910000  0.02190000  1.0 -0.042513177
C  C90  1  0.80980000  0.10590000  0.02180000  1.0 -0.042513177
C  C91  1  0.88360000  0.16680000  0.04600000  1.0 -0.0207476273
C  C92  1  0.80280000  0.16390000  0.04840000  1.0 -0.0041560604
C  C93  1  0.63490000  0.19400000  0.03020000  1.0 -0.0715015818
C  C94  1  0.55330000  0.19440000  0.02810000  1.0 -0.042513177
C  C95  1  0.88830000  0.19110000  0.03700000  1.0 -0.0600808748
C  C96  1  0.80810000  0.18720000  0.03650000  1.0 -0.0600808748
C  C97  1  0.57380000  0.65920000  0.50000000  1.0 0.002679779
C  C98  1  0.48790000  0.66160000  0.50000000  1.0 0.5475932806
C  C99  1  0.07230000  0.64980000  0.50000000  1.0 0.5552047143
C  C100  1  0.82320000  0.65240000  0.50000000  1.0 0.0187749624
C  C101  1  0.86190000  0.59930000  0.50000000  1.0 -0.2761790952
C  C102  1  0.73260000  0.65260000  0.50000000  1.0 0.0187749624
C  C103  1  0.98630000  0.64970000  0.50000000  1.0 -0.0207476273
C  C104  1  0.94360000  0.60020000  0.50000000  1.0 -0.2100056237
C  C105  1  0.94510000  0.70430000  0.50000000  1.0 0.009870147
C  C106  1  0.86430000  0.70720000  0.50000000  1.0 -0.042513177
C  C107  1  0.92620000  0.15920000  0.00000000  1.0 0.002679779
C  C108  1  0.01210000  0.16160000  0.00000000  1.0 0.5439000974
C  C109  1  0.42770000  0.14980000  0.00000000  1.0 0.5552047143
C  C110  1  0.67680000  0.15240000  0.00000000  1.0 0.0187749624
C  C111  1  0.63810000  0.09930000  0.00000000  1.0 -0.2761790952
C  C112  1  0.76740000  0.15260000  0.00000000  1.0 0.0187749624
C  C113  1  0.51370000  0.14970000  0.00000000  1.0 -0.0207476273
C  C114  1  0.55640000  0.10020000  0.00000000  1.0 -0.2100056237
C  C115  1  0.55490000  0.20430000  0.00000000  1.0 0.009870147
C  C116  1  0.63570000  0.20720000  0.00000000  1.0 -0.042513177
C  C117  1  0.72630000  0.45220000  0.59930000  1.0 0.5776815811
C  C118  1  0.73330000  0.49370000  0.64370000  1.0 -0.0207476273
C  C119  1  0.76790000  0.73140000  0.90080000  1.0 0.5900221268
C  C120  1  0.76120000  0.68990000  0.85680000  1.0 -0.0485863492
C  C121  1  0.77550000  0.54300000  0.64370000  1.0 -0.150324562
C  C122  1  0.70710000  0.64630000  0.85570000  1.0 -0.1096602673
C  C123  1  0.74500000  0.57160000  0.72690000  1.0 0.0698054558
C  C124  1  0.75070000  0.61090000  0.77280000  1.0 0.0797602903
C  C125  1  0.77950000  0.58280000  0.68240000  1.0 -0.1697026305
C  C126  1  0.70160000  0.48200000  0.68780000  1.0 -0.1187696526
C  C127  1  0.70230000  0.60690000  0.81450000  1.0 -0.1697026305
C  C128  1  0.80700000  0.69300000  0.81760000  1.0 -0.098054007
C  C129  1  0.70710000  0.51980000  0.73040000  1.0 -0.1697026305
C  C130  1  0.80100000  0.65620000  0.77380000  1.0 -0.150324562
C  C131  1  0.38870000  0.36390000  0.54370000  1.0 -0.0097514618
C  C132  1  0.30740000  0.36740000  0.54380000  1.0 -0.0097514618
C  C133  1  0.39080000  0.39090000  0.52190000  1.0 -0.042513177
C  C134  1  0.30980000  0.39410000  0.52180000  1.0 -0.042513177
C  C135  1  0.38360000  0.33320000  0.54600000  1.0 -0.0207476273
C  C136  1  0.30280000  0.33610000  0.54840000  1.0 -0.0041560604
C  C137  1  0.13490000  0.30600000  0.53020000  1.0 -0.0715015818
C  C138  1  0.05330000  0.30560000  0.52810000  1.0 -0.0485863492
C  C139  1  0.38830000  0.30890000  0.53700000  1.0 -0.0600808748
C  C140  1  0.30810000  0.31280000  0.53650000  1.0 -0.0600808748
C  C141  1  0.77370000  0.95220000  0.90070000  1.0 0.5776815811
C  C142  1  0.76670000  0.99370000  0.85630000  1.0 -0.0207476273
C  C143  1  0.73210000  0.23140000  0.59920000  1.0 0.5900221268
C  C144  1  0.73880000  0.18990000  0.64320000  1.0 -0.0600808748
C  C145  1  0.72450000  0.04300000  0.85630000  1.0 -0.150324562
C  C146  1  0.79290000  0.14630000  0.64430000  1.0 -0.1096602673
C  C147  1  0.75500000  0.07160000  0.77310000  1.0 0.0698054558
C  C148  1  0.74930000  0.11090000  0.72720000  1.0 0.0797602903
C  C149  1  0.72050000  0.08280000  0.81760000  1.0 -0.1697026305
C  C150  1  0.79840000  0.98200000  0.81220000  1.0 -0.1187696526
C  C151  1  0.79770000  0.10690000  0.68550000  1.0 -0.1697026305
C  C152  1  0.69300000  0.19300000  0.68240000  1.0 -0.098054007
C  C153  1  0.79290000  0.01980000  0.76960000  1.0 -0.1697026305
C  C154  1  0.69900000  0.15620000  0.72620000  1.0 -0.150324562
C  C155  1  0.11130000  0.86390000  0.95630000  1.0 -0.0097514618
C  C156  1  0.19260000  0.86740000  0.95620000  1.0 -0.0097514618
C  C157  1  0.10920000  0.89090000  0.97810000  1.0 -0.042513177
C  C158  1  0.19020000  0.89410000  0.97820000  1.0 -0.042513177
C  C159  1  0.11640000  0.83320000  0.95400000  1.0 -0.0253407242
C  C160  1  0.19720000  0.83610000  0.95160000  1.0 -0.0041560604
C  C161  1  0.36510000  0.80600000  0.96980000  1.0 -0.0715015818
C  C162  1  0.44670000  0.80560000  0.97190000  1.0 -0.0485863492
C  C163  1  0.11170000  0.80890000  0.96300000  1.0 -0.0600808748
C  C164  1  0.19190000  0.81280000  0.96350000  1.0 -0.0600808748
C  C165  1  0.72630000  0.45220000  0.40070000  1.0 0.5776815811
C  C166  1  0.73330000  0.49370000  0.35630000  1.0 -0.0207476273
C  C167  1  0.76790000  0.73140000  0.09920000  1.0 0.5900221268
C  C168  1  0.76120000  0.68990000  0.14320000  1.0 -0.0485863492
C  C169  1  0.77550000  0.54300000  0.35630000  1.0 -0.150324562
C  C170  1  0.70710000  0.64630000  0.14430000  1.0 -0.1096602673
C  C171  1  0.74500000  0.57160000  0.27310000  1.0 0.0698054558
C  C172  1  0.75070000  0.61090000  0.22720000  1.0 0.0797602903
C  C173  1  0.77950000  0.58280000  0.31760000  1.0 -0.1697026305
C  C174  1  0.70160000  0.48200000  0.31220000  1.0 -0.1187696526
C  C175  1  0.70230000  0.60690000  0.18550000  1.0 -0.1697026305
C  C176  1  0.80700000  0.69300000  0.18240000  1.0 -0.098054007
C  C177  1  0.70710000  0.51980000  0.26960000  1.0 -0.1697026305
C  C178  1  0.80100000  0.65620000  0.22620000  1.0 -0.150324562
C  C179  1  0.38870000  0.36390000  0.45630000  1.0 -0.0097514618
C  C180  1  0.30740000  0.36740000  0.45620000  1.0 -0.0097514618
C  C181  1  0.39080000  0.39090000  0.47810000  1.0 -0.042513177
C  C182  1  0.30980000  0.39410000  0.47820000  1.0 -0.042513177
C  C183  1  0.38360000  0.33320000  0.45400000  1.0 -0.0207476273
C  C184  1  0.30280000  0.33610000  0.45160000  1.0 -0.0041560604
C  C185  1  0.13490000  0.30600000  0.46980000  1.0 -0.0715015818
C  C186  1  0.05330000  0.30560000  0.47190000  1.0 -0.0485863492
C  C187  1  0.38830000  0.30890000  0.46300000  1.0 -0.0600808748
C  C188  1  0.30810000  0.31280000  0.46350000  1.0 -0.0600808748
C  C189  1  0.77370000  0.95220000  0.09930000  1.0 0.5776815811
C  C190  1  0.76670000  0.99370000  0.14370000  1.0 -0.0207476273
C  C191  1  0.73210000  0.23140000  0.40080000  1.0 0.5900221268
C  C192  1  0.73880000  0.18990000  0.35680000  1.0 -0.0485863492
C  C193  1  0.72450000  0.04300000  0.14370000  1.0 -0.150324562
C  C194  1  0.79290000  0.14630000  0.35570000  1.0 -0.1096602673
C  C195  1  0.75500000  0.07160000  0.22690000  1.0 0.0698054558
C  C196  1  0.74930000  0.11090000  0.27280000  1.0 0.0797602903
C  C197  1  0.72050000  0.08280000  0.18240000  1.0 -0.1697026305
C  C198  1  0.79840000  0.98200000  0.18780000  1.0 -0.1187696526
C  C199  1  0.79770000  0.10690000  0.31450000  1.0 -0.1697026305
C  C200  1  0.69300000  0.19300000  0.31760000  1.0 -0.098054007
C  C201  1  0.79290000  0.01980000  0.23040000  1.0 -0.1697026305
C  C202  1  0.69900000  0.15620000  0.27380000  1.0 -0.150324562
C  C203  1  0.11130000  0.86390000  0.04370000  1.0 -0.0097514618
C  C204  1  0.19260000  0.86740000  0.04380000  1.0 -0.0097514618
C  C205  1  0.10920000  0.89090000  0.02190000  1.0 -0.042513177
C  C206  1  0.19020000  0.89410000  0.02180000  1.0 -0.042513177
C  C207  1  0.11640000  0.83320000  0.04600000  1.0 -0.0207476273
C  C208  1  0.19720000  0.83610000  0.04840000  1.0 -0.0041560604
C  C209  1  0.36510000  0.80600000  0.03020000  1.0 -0.0715015818
C  C210  1  0.44670000  0.80560000  0.02810000  1.0 -0.042513177
C  C211  1  0.11170000  0.80890000  0.03700000  1.0 -0.0600808748
C  C212  1  0.19190000  0.81280000  0.03650000  1.0 -0.0600808748
C  C213  1  0.42620000  0.34080000  0.50000000  1.0 0.002679779
C  C214  1  0.51210000  0.33840000  0.50000000  1.0 0.5475932806
C  C215  1  0.92770000  0.35020000  0.50000000  1.0 0.5552047143
C  C216  1  0.17680000  0.34760000  0.50000000  1.0 0.0187749624
C  C217  1  0.13810000  0.40070000  0.50000000  1.0 -0.2761790952
C  C218  1  0.26740000  0.34740000  0.50000000  1.0 0.0187749624
C  C219  1  0.01370000  0.35030000  0.50000000  1.0 -0.0207476273
C  C220  1  0.05640000  0.39980000  0.50000000  1.0 -0.2100056237
C  C221  1  0.05490000  0.29570000  0.50000000  1.0 0.009870147
C  C222  1  0.13570000  0.29280000  0.50000000  1.0 -0.042513177
C  C223  1  0.07380000  0.84080000  0.00000000  1.0 0.002679779
C  C224  1  0.98790000  0.83840000  0.00000000  1.0 0.5475932806
C  C225  1  0.57230000  0.85020000  0.00000000  1.0 0.5552047143
C  C226  1  0.32320000  0.84760000  0.00000000  1.0 0.0187749624
C  C227  1  0.36190000  0.90070000  0.00000000  1.0 -0.2761790952
C  C228  1  0.23260000  0.84740000  0.00000000  1.0 0.0187749624
C  C229  1  0.48630000  0.85030000  0.00000000  1.0 -0.0207476273
C  C230  1  0.44360000  0.89980000  0.00000000  1.0 -0.2100056237
C  C231  1  0.44510000  0.79570000  0.00000000  1.0 0.009870147
C  C232  1  0.36430000  0.79280000  0.00000000  1.0 -0.042513177
O  O1  1  0.23280000  0.53578000  0.56016000  1.0 -0.5295523194
O  O2  1  0.27800000  0.27720000  0.93900000  1.0 -0.543046549
O  O3  1  0.31660000  0.59260000  0.60420000  1.0 -0.5138233652
O  O4  1  0.18120000  0.22880000  0.89680000  1.0 -0.5295523194
O  O5  1  0.45610000  0.66280000  0.54650000  1.0 -0.5592036596
O  O6  1  0.26720000  0.03578000  0.93984000  1.0 -0.5295523194
O  O7  1  0.22200000  0.77720000  0.56100000  1.0 -0.543046549
O  O8  1  0.18340000  0.09260000  0.89580000  1.0 -0.5138233652
O  O9  1  0.31880000  0.72880000  0.60320000  1.0 -0.5295523194
O  O10  1  0.04390000  0.16280000  0.95350000  1.0 -0.5592036596
O  O11  1  0.23280000  0.53578000  0.43984000  1.0 -0.5295523194
O  O12  1  0.27800000  0.27720000  0.06100000  1.0 -0.543046549
O  O13  1  0.31660000  0.59260000  0.39580000  1.0 -0.5138233652
O  O14  1  0.18120000  0.22880000  0.10320000  1.0 -0.5295523194
O  O15  1  0.45610000  0.66280000  0.45350000  1.0 -0.5592036596
O  O16  1  0.26720000  0.03578000  0.06016000  1.0 -0.5295523194
O  O17  1  0.22200000  0.77720000  0.43900000  1.0 -0.543046549
O  O18  1  0.18340000  0.09260000  0.10420000  1.0 -0.5138233652
O  O19  1  0.31880000  0.72880000  0.39680000  1.0 -0.5295523194
O  O20  1  0.04390000  0.16280000  0.04650000  1.0 -0.5592036596
O  O21  1  0.28020000  0.65800000  0.50000000  1.0 -1.0366859188
O  O22  1  0.10680000  0.60150000  0.50000000  1.0 -0.4845870187
O  O23  1  0.10500000  0.70100000  0.50000000  1.0 -0.543046549
O  O24  1  0.21980000  0.15800000  0.00000000  1.0 -1.0366859188
O  O25  1  0.39320000  0.10150000  0.00000000  1.0 -0.4855285635
O  O26  1  0.39500000  0.20100000  0.00000000  1.0 -0.543046549
O  O27  1  0.76720000  0.46422000  0.56016000  1.0 -0.5295523194
O  O28  1  0.72200000  0.72280000  0.93900000  1.0 -0.543046549
O  O29  1  0.68340000  0.40740000  0.60420000  1.0 -0.5138233652
O  O30  1  0.81880000  0.77120000  0.89680000  1.0 -0.5295523194
O  O31  1  0.54390000  0.33720000  0.54650000  1.0 -0.5592036596
O  O32  1  0.73280000  0.96422000  0.93984000  1.0 -0.5295523194
O  O33  1  0.77800000  0.22280000  0.56100000  1.0 -0.543046549
O  O34  1  0.81660000  0.90740000  0.89580000  1.0 -0.5138233652
O  O35  1  0.68120000  0.27120000  0.60320000  1.0 -0.5295523194
O  O36  1  0.95610000  0.83720000  0.95350000  1.0 -0.5592036596
O  O37  1  0.76720000  0.46422000  0.43984000  1.0 -0.5295523194
O  O38  1  0.72200000  0.72280000  0.06100000  1.0 -0.543046549
O  O39  1  0.68340000  0.40740000  0.39580000  1.0 -0.5138233652
O  O40  1  0.81880000  0.77120000  0.10320000  1.0 -0.5295523194
O  O41  1  0.54390000  0.33720000  0.45350000  1.0 -0.5592036596
O  O42  1  0.73280000  0.96422000  0.06016000  1.0 -0.5295523194
O  O43  1  0.77800000  0.22280000  0.43900000  1.0 -0.543046549
O  O44  1  0.81660000  0.90740000  0.10420000  1.0 -0.5138233652
O  O45  1  0.68120000  0.27120000  0.39680000  1.0 -0.5295523194
O  O46  1  0.95610000  0.83720000  0.04650000  1.0 -0.5592036596
O  O47  1  0.71980000  0.34200000  0.50000000  1.0 -1.0366859188
O  O48  1  0.89320000  0.39850000  0.50000000  1.0 -0.4845870187
O  O49  1  0.89500000  0.29900000  0.50000000  1.0 -0.543046549
O  O50  1  0.78020000  0.84200000  0.00000000  1.0 -1.0366859188
O  O51  1  0.60680000  0.89850000  0.00000000  1.0 -0.4845870187
O  O52  1  0.60500000  0.79900000  0.00000000  1.0 -0.543046549
