# DDEC6 charges by PACMAN v1.1 (https://github.com/mtap-research/PACMAN-charge/)
data_PIXDIM_ASR_pacman
_symmetry_space_group_name_H-M   'P 1'
_cell_length_a   19.10050000
_cell_length_b   26.80150000
_cell_length_c   37.69390000
_cell_angle_alpha   90.00000000
_cell_angle_beta   110.65600000
_cell_angle_gamma   90.00000000
_symmetry_Int_Tables_number   1
_chemical_formula_structural   Cu9H58C112(NO3)8
_chemical_formula_sum   'Cu36 H232 C448 N32 O96'
_cell_volume   18055.87740217
_cell_formula_units_Z   4
loop_
 _symmetry_equiv_pos_site_id
 _symmetry_equiv_pos_as_xyz
  1  'x, y, z'
loop_
 _atom_site_type_symbol
 _atom_site_label
 _atom_site_symmetry_multiplicity
 _atom_site_fract_x
 _atom_site_fract_y
 _atom_site_fract_z
 _atom_site_occupancy
 _atom_site_charge
Cu  Cu1  1  0.10735000  0.00771000  0.89064000  1.0 0.8492359435
Cu  Cu2  1  0.21722000  0.00421000  0.86288000  1.0 0.8290201938
Cu  Cu3  1  0.28856000  0.28176000  0.57259000  1.0 0.4506961619
Cu  Cu4  1  0.06414000  0.21837000  0.68085000  1.0 0.3110270443
Cu  Cu5  1  0.48829000  0.76434000  0.99822000  1.0 0.3423315202
Cu  Cu6  1  0.17448000  0.23702000  0.24875000  1.0 0.3179167484
Cu  Cu7  1  0.84153000  0.25510000  0.75061000  1.0 0.3289776062
Cu  Cu8  1  0.26357000  0.77758000  0.06785000  1.0 0.401686511
Cu  Cu9  1  0.04384000  0.79663000  0.67784000  1.0 0.3110270443
Cu  Cu10  1  0.89265000  0.50771000  0.60936000  1.0 0.8492359435
Cu  Cu11  1  0.78278000  0.50421000  0.63712000  1.0 0.8290201938
Cu  Cu12  1  0.71144000  0.78176000  0.92741000  1.0 0.4506961619
Cu  Cu13  1  0.93586000  0.71837000  0.81915000  1.0 0.3179167484
Cu  Cu14  1  0.51171000  0.26434000  0.50178000  1.0 0.3423315202
Cu  Cu15  1  0.82552000  0.73702000  0.25125000  1.0 0.3179167484
Cu  Cu16  1  0.15847000  0.75510000  0.74939000  1.0 0.3289776062
Cu  Cu17  1  0.73643000  0.27758000  0.43215000  1.0 0.401686511
Cu  Cu18  1  0.95616000  0.29663000  0.82216000  1.0 0.3110270443
Cu  Cu19  1  0.89265000  0.99229000  0.10936000  1.0 0.8492359435
Cu  Cu20  1  0.78278000  0.99579000  0.13712000  1.0 0.8290201938
Cu  Cu21  1  0.71144000  0.71824000  0.42741000  1.0 0.4506961619
Cu  Cu22  1  0.93586000  0.78163000  0.31915000  1.0 0.3110270443
Cu  Cu23  1  0.51171000  0.23566000  0.00178000  1.0 0.3423315202
Cu  Cu24  1  0.82552000  0.76298000  0.75125000  1.0 0.3179167484
Cu  Cu25  1  0.15847000  0.74490000  0.24939000  1.0 0.3289776062
Cu  Cu26  1  0.73643000  0.22242000  0.93215000  1.0 0.401686511
Cu  Cu27  1  0.95616000  0.20337000  0.32216000  1.0 0.3110270443
Cu  Cu28  1  0.10735000  0.49229000  0.39064000  1.0 0.8492359435
Cu  Cu29  1  0.21722000  0.49579000  0.36288000  1.0 0.8290201938
Cu  Cu30  1  0.28856000  0.21824000  0.07259000  1.0 0.4506961619
Cu  Cu31  1  0.06414000  0.28163000  0.18085000  1.0 0.3110270443
Cu  Cu32  1  0.48829000  0.73566000  0.49822000  1.0 0.3423315202
Cu  Cu33  1  0.17448000  0.26298000  0.74875000  1.0 0.3179167484
Cu  Cu34  1  0.84153000  0.24490000  0.25061000  1.0 0.3289776062
Cu  Cu35  1  0.26357000  0.72242000  0.56785000  1.0 0.401686511
Cu  Cu36  1  0.04384000  0.70337000  0.17784000  1.0 0.3110270443
H  H1  1  0.53109000  0.72130000  0.72639000  1.0 0.3289776062
H  H2  1  0.83454000  0.28784000  0.99738000  1.0 0.3582944041
H  H3  1  0.35987000  0.89995000  0.94319000  1.0 0.1302475857
H  H4  1  0.42213000  0.84127000  0.98784000  1.0 0.1100331738
H  H5  1  0.76451000  0.35340000  0.62205000  1.0 0.120903665
H  H6  1  0.23716000  0.82275000  0.01380000  1.0 0.120903665
H  H7  1  0.75508000  0.24845000  0.05652000  1.0 0.120903665
H  H8  1  0.25548000  0.18644000  0.01290000  1.0 0.1302475857
H  H9  1  0.75168000  0.65703000  0.62561000  1.0 0.120903665
H  H10  1  0.18095000  0.88657000  0.97362000  1.0 0.1302475857
H  H11  1  0.44133000  0.15952000  0.98898000  1.0 0.1100331738
H  H12  1  0.18928000  0.68123000  0.11943000  1.0 0.1302475857
H  H13  1  0.85271000  0.33992000  0.59412000  1.0 0.120903665
H  H14  1  0.59889000  0.74761000  0.70750000  1.0 0.120903665
H  H15  1  0.19504000  0.12725000  0.97029000  1.0 0.1380179092
H  H16  1  0.37722000  0.10376000  0.94424000  1.0 0.1380179092
H  H17  1  0.42787000  0.73840000  0.18518000  1.0 0.120903665
H  H18  1  0.73981000  0.74522000  0.05720000  1.0 0.120903665
H  H19  1  0.44956000  0.25262000  0.18839000  1.0 0.1380179092
H  H20  1  0.30073000  0.31732000  0.09609000  1.0 0.1497210627
H  H21  1  0.83818000  0.67156000  0.59654000  1.0 0.120903665
H  H22  1  0.34051000  0.73800000  0.21398000  1.0 0.1302475857
H  H23  1  0.51803000  0.32748000  0.16090000  1.0 0.1380179092
H  H24  1  0.67082000  0.24016000  0.08828000  1.0 0.1302475857
H  H25  1  0.27818000  0.68113000  0.09096000  1.0 0.1302475857
H  H26  1  0.49507000  0.67116000  0.15551000  1.0 0.1380179092
H  H27  1  0.65968000  0.75293000  0.08996000  1.0 0.120903665
H  H28  1  0.95999000  0.89390000  0.81696000  1.0 0.1302475857
H  H29  1  0.62121000  0.26223000  0.70927000  1.0 0.120903665
H  H30  1  0.69249000  0.76694000  0.68402000  1.0 0.120903665
H  H31  1  0.21082000  0.31180000  0.12306000  1.0 0.1380179092
H  H32  1  0.58221000  0.66582000  0.12664000  1.0 0.1302475857
H  H33  1  0.60594000  0.33385000  0.13194000  1.0 0.1302475857
H  H34  1  0.35778000  0.24519000  0.21419000  1.0 0.120903665
H  H35  1  0.71213000  0.24384000  0.68248000  1.0 0.120903665
H  H36  1  0.11860000  0.09976000  0.76641000  1.0 0.1302475857
H  H37  1  0.53155000  0.64474000  0.02596000  1.0 0.120903665
H  H38  1  0.75541000  0.39021000  0.68266000  1.0 0.120903665
H  H39  1  0.61238000  0.63795000  0.99339000  1.0 0.120903665
H  H40  1  0.11792000  0.90547000  0.77121000  1.0 0.1302475857
H  H41  1  0.06233000  0.15987000  0.72279000  1.0 0.1100331738
H  H42  1  0.05568000  0.84742000  0.72504000  1.0 0.1010401071
H  H43  1  0.64732000  0.37004000  0.00532000  1.0 0.1302475857
H  H44  1  0.74833000  0.62349000  0.68791000  1.0 0.1302475857
H  H45  1  0.89804000  0.83661000  0.77153000  1.0 0.1100331738
H  H46  1  0.66656000  0.40688000  0.70910000  1.0 0.1302475857
H  H47  1  0.56613000  0.36258000  0.03776000  1.0 0.1302475857
H  H48  1  0.97876000  0.13004000  0.82059000  1.0 0.1302475857
H  H49  1  0.92592000  0.19212000  0.77749000  1.0 0.1100331738
H  H50  1  0.90542000  0.26459000  0.56267000  1.0 0.120903665
H  H51  1  0.06274000  0.31334000  0.65704000  1.0 0.1100331738
H  H52  1  0.14877000  0.30835000  0.62694000  1.0 0.1302475857
H  H53  1  0.66250000  0.60343000  0.71643000  1.0 0.1302475857
H  H54  1  0.99482000  0.24743000  0.53572000  1.0 0.1302475857
H  H55  1  0.95741000  0.66373000  0.59759000  1.0 0.1302475857
H  H56  1  0.93273000  0.80599000  0.60115000  1.0 0.1380179092
H  H57  1  0.02216000  0.81537000  0.57058000  1.0 0.1380179092
H  H58  1  0.08063000  0.67541000  0.59432000  1.0 0.1380179092
H  H59  1  0.46891000  0.22130000  0.77361000  1.0 0.3289776062
H  H60  1  0.16546000  0.78784000  0.50262000  1.0 0.3582944041
H  H61  1  0.64013000  0.39995000  0.55681000  1.0 0.1302475857
H  H62  1  0.57787000  0.34127000  0.51216000  1.0 0.1100331738
H  H63  1  0.23549000  0.85340000  0.87795000  1.0 0.1302475857
H  H64  1  0.76284000  0.32275000  0.48620000  1.0 0.120903665
H  H65  1  0.24492000  0.74845000  0.44348000  1.0 0.120903665
H  H66  1  0.74452000  0.68644000  0.48710000  1.0 0.1302475857
H  H67  1  0.24832000  0.15703000  0.87439000  1.0 0.120903665
H  H68  1  0.81905000  0.38657000  0.52638000  1.0 0.1302475857
H  H69  1  0.55867000  0.65952000  0.51102000  1.0 0.1100331738
H  H70  1  0.81072000  0.18123000  0.38057000  1.0 0.1302475857
H  H71  1  0.14729000  0.83992000  0.90588000  1.0 0.120903665
H  H72  1  0.40111000  0.24761000  0.79250000  1.0 0.120903665
H  H73  1  0.80496000  0.62725000  0.52971000  1.0 0.1380179092
H  H74  1  0.62278000  0.60376000  0.55576000  1.0 0.1380179092
H  H75  1  0.57213000  0.23840000  0.31482000  1.0 0.120903665
H  H76  1  0.26019000  0.24522000  0.44280000  1.0 0.120903665
H  H77  1  0.55044000  0.75262000  0.31161000  1.0 0.1380179092
H  H78  1  0.69927000  0.81732000  0.40391000  1.0 0.1497210627
H  H79  1  0.16182000  0.17156000  0.90346000  1.0 0.120903665
H  H80  1  0.65949000  0.23800000  0.28602000  1.0 0.1302475857
H  H81  1  0.48197000  0.82748000  0.33910000  1.0 0.1380179092
H  H82  1  0.32918000  0.74016000  0.41172000  1.0 0.1302475857
H  H83  1  0.72182000  0.18113000  0.40904000  1.0 0.1302475857
H  H84  1  0.50493000  0.17116000  0.34449000  1.0 0.1380179092
H  H85  1  0.34032000  0.25293000  0.41004000  1.0 0.120903665
H  H86  1  0.04001000  0.39390000  0.68304000  1.0 0.1302475857
H  H87  1  0.37879000  0.76223000  0.79073000  1.0 0.120903665
H  H88  1  0.30751000  0.26694000  0.81598000  1.0 0.120903665
H  H89  1  0.78918000  0.81180000  0.37694000  1.0 0.1380179092
H  H90  1  0.41779000  0.16582000  0.37336000  1.0 0.1302475857
H  H91  1  0.39406000  0.83385000  0.36806000  1.0 0.1302475857
H  H92  1  0.64222000  0.74519000  0.28581000  1.0 0.120903665
H  H93  1  0.28787000  0.74384000  0.81752000  1.0 0.120903665
H  H94  1  0.88140000  0.59976000  0.73359000  1.0 0.1302475857
H  H95  1  0.46845000  0.14474000  0.47404000  1.0 0.120903665
H  H96  1  0.24459000  0.89021000  0.81734000  1.0 0.120903665
H  H97  1  0.38762000  0.13795000  0.50661000  1.0 0.120903665
H  H98  1  0.88208000  0.40547000  0.72879000  1.0 0.1302475857
H  H99  1  0.93767000  0.65987000  0.77721000  1.0 0.1100331738
H  H100  1  0.94432000  0.34742000  0.77496000  1.0 0.1010401071
H  H101  1  0.35268000  0.87004000  0.49468000  1.0 0.1302475857
H  H102  1  0.25167000  0.12349000  0.81209000  1.0 0.1302475857
H  H103  1  0.10196000  0.33661000  0.72847000  1.0 0.1100331738
H  H104  1  0.33344000  0.90688000  0.79090000  1.0 0.1302475857
H  H105  1  0.43387000  0.86258000  0.46224000  1.0 0.1302475857
H  H106  1  0.02124000  0.63004000  0.67941000  1.0 0.1302475857
H  H107  1  0.07408000  0.69212000  0.72251000  1.0 0.1100331738
H  H108  1  0.09458000  0.76459000  0.93733000  1.0 0.120903665
H  H109  1  0.93726000  0.81334000  0.84296000  1.0 0.1100331738
H  H110  1  0.85123000  0.80835000  0.87306000  1.0 0.1302475857
H  H111  1  0.33750000  0.10343000  0.78357000  1.0 0.1302475857
H  H112  1  0.00518000  0.74743000  0.96428000  1.0 0.1302475857
H  H113  1  0.04259000  0.16373000  0.90241000  1.0 0.1302475857
H  H114  1  0.06727000  0.30599000  0.89885000  1.0 0.1380179092
H  H115  1  0.97784000  0.31537000  0.92942000  1.0 0.1380179092
H  H116  1  0.91937000  0.17541000  0.90568000  1.0 0.1380179092
H  H117  1  0.46891000  0.27870000  0.27361000  1.0 0.3289776062
H  H118  1  0.16546000  0.71216000  0.00262000  1.0 0.3582944041
H  H119  1  0.64013000  0.10005000  0.05681000  1.0 0.1302475857
H  H120  1  0.57787000  0.15873000  0.01216000  1.0 0.1100331738
H  H121  1  0.23549000  0.64660000  0.37795000  1.0 0.1302475857
H  H122  1  0.76284000  0.17725000  0.98620000  1.0 0.120903665
H  H123  1  0.24492000  0.75155000  0.94348000  1.0 0.120903665
H  H124  1  0.74452000  0.81356000  0.98710000  1.0 0.1302475857
H  H125  1  0.24832000  0.34297000  0.37439000  1.0 0.120903665
H  H126  1  0.81905000  0.11343000  0.02638000  1.0 0.1302475857
H  H127  1  0.55867000  0.84048000  0.01102000  1.0 0.1100331738
H  H128  1  0.81072000  0.31877000  0.88057000  1.0 0.1302475857
H  H129  1  0.14729000  0.66008000  0.40588000  1.0 0.120903665
H  H130  1  0.40111000  0.25239000  0.29250000  1.0 0.120903665
H  H131  1  0.80496000  0.87275000  0.02971000  1.0 0.1380179092
H  H132  1  0.62278000  0.89624000  0.05576000  1.0 0.1380179092
H  H133  1  0.57213000  0.26160000  0.81482000  1.0 0.120903665
H  H134  1  0.26019000  0.25478000  0.94280000  1.0 0.120903665
H  H135  1  0.55044000  0.74738000  0.81161000  1.0 0.1380179092
H  H136  1  0.69927000  0.68268000  0.90391000  1.0 0.1497210627
H  H137  1  0.16182000  0.32844000  0.40346000  1.0 0.120903665
H  H138  1  0.65949000  0.26200000  0.78602000  1.0 0.1302475857
H  H139  1  0.48197000  0.67252000  0.83910000  1.0 0.1380179092
H  H140  1  0.32918000  0.75984000  0.91172000  1.0 0.1302475857
H  H141  1  0.72182000  0.31887000  0.90904000  1.0 0.1302475857
H  H142  1  0.50493000  0.32884000  0.84449000  1.0 0.1380179092
H  H143  1  0.34032000  0.24707000  0.91004000  1.0 0.120903665
H  H144  1  0.04001000  0.10610000  0.18304000  1.0 0.1302475857
H  H145  1  0.37879000  0.73777000  0.29073000  1.0 0.120903665
H  H146  1  0.30751000  0.23306000  0.31598000  1.0 0.120903665
H  H147  1  0.78918000  0.68820000  0.87694000  1.0 0.1380179092
H  H148  1  0.41779000  0.33418000  0.87336000  1.0 0.1302475857
H  H149  1  0.39406000  0.66615000  0.86806000  1.0 0.1302475857
H  H150  1  0.64222000  0.75481000  0.78581000  1.0 0.120903665
H  H151  1  0.28787000  0.75616000  0.31752000  1.0 0.120903665
H  H152  1  0.88140000  0.90024000  0.23359000  1.0 0.1302475857
H  H153  1  0.46845000  0.35526000  0.97404000  1.0 0.120903665
H  H154  1  0.24459000  0.60979000  0.31734000  1.0 0.120903665
H  H155  1  0.38762000  0.36205000  0.00661000  1.0 0.120903665
H  H156  1  0.88208000  0.09453000  0.22879000  1.0 0.1302475857
H  H157  1  0.93767000  0.84013000  0.27721000  1.0 0.1100331738
H  H158  1  0.94432000  0.15258000  0.27496000  1.0 0.1010401071
H  H159  1  0.35268000  0.62996000  0.99468000  1.0 0.1302475857
H  H160  1  0.25167000  0.37651000  0.31209000  1.0 0.1302475857
H  H161  1  0.10196000  0.16339000  0.22847000  1.0 0.1100331738
H  H162  1  0.33344000  0.59312000  0.29090000  1.0 0.1302475857
H  H163  1  0.43387000  0.63742000  0.96224000  1.0 0.1302475857
H  H164  1  0.02124000  0.86996000  0.17941000  1.0 0.1302475857
H  H165  1  0.07408000  0.80788000  0.22251000  1.0 0.1100331738
H  H166  1  0.09458000  0.73541000  0.43733000  1.0 0.120903665
H  H167  1  0.93726000  0.68666000  0.34296000  1.0 0.1100331738
H  H168  1  0.85123000  0.69165000  0.37306000  1.0 0.1302475857
H  H169  1  0.33750000  0.39657000  0.28357000  1.0 0.1302475857
H  H170  1  0.00518000  0.75257000  0.46428000  1.0 0.1302475857
H  H171  1  0.04259000  0.33627000  0.40241000  1.0 0.1302475857
H  H172  1  0.06727000  0.19401000  0.39885000  1.0 0.1380179092
H  H173  1  0.97784000  0.18463000  0.42942000  1.0 0.1380179092
H  H174  1  0.91937000  0.32459000  0.40568000  1.0 0.1380179092
H  H175  1  0.53109000  0.77870000  0.22639000  1.0 0.3289776062
H  H176  1  0.83454000  0.21216000  0.49738000  1.0 0.3582944041
H  H177  1  0.35987000  0.60005000  0.44319000  1.0 0.1302475857
H  H178  1  0.42213000  0.65873000  0.48784000  1.0 0.1100331738
H  H179  1  0.76451000  0.14660000  0.12205000  1.0 0.120903665
H  H180  1  0.23716000  0.67725000  0.51380000  1.0 0.120903665
H  H181  1  0.75508000  0.25155000  0.55652000  1.0 0.120903665
H  H182  1  0.25548000  0.31356000  0.51290000  1.0 0.1302475857
H  H183  1  0.75168000  0.84297000  0.12561000  1.0 0.120903665
H  H184  1  0.18095000  0.61343000  0.47362000  1.0 0.1302475857
H  H185  1  0.44133000  0.34048000  0.48898000  1.0 0.1100331738
H  H186  1  0.18928000  0.81877000  0.61943000  1.0 0.1302475857
H  H187  1  0.85271000  0.16008000  0.09412000  1.0 0.120903665
H  H188  1  0.59889000  0.75239000  0.20750000  1.0 0.120903665
H  H189  1  0.19504000  0.37275000  0.47029000  1.0 0.1380179092
H  H190  1  0.37722000  0.39624000  0.44424000  1.0 0.1380179092
H  H191  1  0.42787000  0.76160000  0.68518000  1.0 0.120903665
H  H192  1  0.73981000  0.75478000  0.55720000  1.0 0.120903665
H  H193  1  0.44956000  0.24738000  0.68839000  1.0 0.1380179092
H  H194  1  0.30073000  0.18268000  0.59609000  1.0 0.1497210627
H  H195  1  0.83818000  0.82844000  0.09654000  1.0 0.120903665
H  H196  1  0.34051000  0.76200000  0.71398000  1.0 0.1302475857
H  H197  1  0.51803000  0.17252000  0.66090000  1.0 0.1380179092
H  H198  1  0.67082000  0.25984000  0.58828000  1.0 0.1302475857
H  H199  1  0.27818000  0.81887000  0.59096000  1.0 0.1302475857
H  H200  1  0.49507000  0.82884000  0.65551000  1.0 0.1380179092
H  H201  1  0.65968000  0.74707000  0.58996000  1.0 0.120903665
H  H202  1  0.95999000  0.60610000  0.31696000  1.0 0.1302475857
H  H203  1  0.62121000  0.23777000  0.20927000  1.0 0.120903665
H  H204  1  0.69249000  0.73306000  0.18402000  1.0 0.120903665
H  H205  1  0.21082000  0.18820000  0.62306000  1.0 0.1380179092
H  H206  1  0.58221000  0.83418000  0.62664000  1.0 0.1302475857
H  H207  1  0.60594000  0.16615000  0.63194000  1.0 0.1302475857
H  H208  1  0.35778000  0.25481000  0.71419000  1.0 0.120903665
H  H209  1  0.71213000  0.25616000  0.18248000  1.0 0.120903665
H  H210  1  0.11860000  0.40024000  0.26641000  1.0 0.1302475857
H  H211  1  0.53155000  0.85526000  0.52596000  1.0 0.120903665
H  H212  1  0.75541000  0.10979000  0.18266000  1.0 0.120903665
H  H213  1  0.61238000  0.86205000  0.49339000  1.0 0.120903665
H  H214  1  0.11792000  0.59453000  0.27121000  1.0 0.1302475857
H  H215  1  0.06233000  0.34013000  0.22279000  1.0 0.1100331738
H  H216  1  0.05568000  0.65258000  0.22504000  1.0 0.1010401071
H  H217  1  0.64732000  0.12996000  0.50532000  1.0 0.1302475857
H  H218  1  0.74833000  0.87651000  0.18791000  1.0 0.1302475857
H  H219  1  0.89804000  0.66339000  0.27153000  1.0 0.1100331738
H  H220  1  0.66656000  0.09312000  0.20910000  1.0 0.1302475857
H  H221  1  0.56613000  0.13742000  0.53776000  1.0 0.1302475857
H  H222  1  0.97876000  0.36996000  0.32059000  1.0 0.1302475857
H  H223  1  0.92592000  0.30788000  0.27749000  1.0 0.1100331738
H  H224  1  0.90542000  0.23541000  0.06267000  1.0 0.120903665
H  H225  1  0.06274000  0.18666000  0.15704000  1.0 0.1100331738
H  H226  1  0.14877000  0.19165000  0.12694000  1.0 0.1302475857
H  H227  1  0.66250000  0.89657000  0.21643000  1.0 0.1302475857
H  H228  1  0.99482000  0.25257000  0.03572000  1.0 0.1302475857
H  H229  1  0.95741000  0.83627000  0.09759000  1.0 0.1302475857
H  H230  1  0.93273000  0.69401000  0.10115000  1.0 0.1380179092
H  H231  1  0.02216000  0.68463000  0.07058000  1.0 0.1380179092
H  H232  1  0.08063000  0.82459000  0.09432000  1.0 0.1380179092
C  C1  1  0.37723000  0.78580000  0.03353000  1.0 0.2931038802
C  C2  1  0.94899000  0.22030000  0.71559000  1.0 0.3110270443
C  C3  1  0.33812000  0.82540000  0.00652000  1.0 0.0431941355
C  C4  1  0.39964000  0.21570000  0.03674000  1.0 0.3007880812
C  C5  1  0.26444000  0.90100000  0.95414000  1.0 -0.028893523
C  C6  1  0.84862000  0.74310000  0.68172000  1.0 0.1010401071
C  C7  1  0.90161000  0.75090000  0.66441000  1.0 0.1100331738
C  C8  1  0.35721000  0.17930000  0.00731000  1.0 0.0499042039
C  C9  1  0.27923000  0.10900000  0.95283000  1.0 -0.0101824195
C  C10  1  0.23564000  0.07070000  0.92344000  1.0 0.5693384772
C  C11  1  0.92038000  0.26550000  0.66518000  1.0 0.1100331738
C  C12  1  0.40985000  0.73660000  0.08245000  1.0 0.120903665
C  C13  1  0.46406000  0.73410000  0.06526000  1.0 0.1010401071
C  C14  1  0.86563000  0.27320000  0.68093000  1.0 0.0908173387
C  C15  1  0.73348000  0.69750000  0.68548000  1.0 0.0765672391
C  C16  1  0.93089000  0.79620000  0.71469000  1.0 0.3007880812
C  C17  1  0.04776000  0.90460000  0.80006000  1.0 -0.028893523
C  C18  1  0.48815000  0.26560000  0.06995000  1.0 0.1010401071
C  C19  1  0.33594000  0.88570000  0.95834000  1.0 -0.088177641
C  C20  1  0.22512000  0.93970000  0.92542000  1.0 0.5693384772
C  C21  1  0.98560000  0.18280000  0.74450000  1.0 0.0431941355
C  C22  1  0.37305000  0.84950000  0.98475000  1.0 -0.1404085504
C  C23  1  0.80295000  0.33070000  0.63295000  1.0 -0.1486522141
C  C24  1  0.05794000  0.11050000  0.79934000  1.0 -0.0212397139
C  C25  1  0.43377000  0.26270000  0.08667000  1.0 0.1100331738
C  C26  1  0.09720000  0.07210000  0.82870000  1.0 0.5693384772
C  C27  1  0.26340000  0.83930000  0.00070000  1.0 -0.1316386397
C  C28  1  0.71608000  0.27110000  0.05218000  1.0 -0.088177641
C  C29  1  0.79082000  0.70830000  0.66782000  1.0 0.0106331812
C  C30  1  0.28107000  0.16910000  0.99987000  1.0 -0.1096514771
C  C31  1  0.78850000  0.68110000  0.63550000  1.0 -0.1404085504
C  C32  1  0.22911000  0.87690000  0.97591000  1.0 -0.080283356
C  C33  1  0.96956000  0.83440000  0.74376000  1.0 0.0499042039
C  C34  1  0.39131000  0.15340000  0.98521000  1.0 -0.1404085504
C  C35  1  0.97352000  0.28360000  0.61312000  1.0 0.0698592936
C  C36  1  0.68496000  0.68980000  0.02186000  1.0 -0.0101824195
C  C37  1  0.21385000  0.27230000  0.18805000  1.0 0.5593954836
C  C38  1  0.08930000  0.94140000  0.82930000  1.0 0.5693384772
C  C39  1  0.55345000  0.29490000  0.08585000  1.0 0.0106331812
C  C40  1  0.23706000  0.69330000  0.13266000  1.0 -0.080283356
C  C41  1  0.89737000  0.72460000  0.63097000  1.0 0.0278484495
C  C42  1  0.85721000  0.32290000  0.61631000  1.0 -0.1486522141
C  C43  1  0.95267000  0.73150000  0.61157000  1.0 0.0698592936
C  C44  1  0.63081000  0.72270000  0.70511000  1.0 -0.1205654499
C  C45  1  0.24477000  0.13430000  0.97397000  1.0 -0.080283356
C  C46  1  0.35330000  0.11980000  0.95870000  1.0 -0.088177641
C  C47  1  0.37962000  0.72740000  0.17172000  1.0 -0.1205654499
C  C48  1  0.69773000  0.72490000  0.05093000  1.0 -0.088177641
C  C49  1  0.25367000  0.71090000  0.16887000  1.0 -0.0212397139
C  C50  1  0.19613000  0.71390000  0.18703000  1.0 0.5593954836
C  C51  1  0.70696000  0.31080000  0.02606000  1.0 -0.0405205585
C  C52  1  0.40127000  0.26380000  0.17507000  1.0 -0.1096514771
C  C53  1  0.91690000  0.29080000  0.63160000  1.0 0.0177261461
C  C54  1  0.60881000  0.30000000  0.06551000  1.0 0.0765672391
C  C55  1  0.80598000  0.30530000  0.66528000  1.0 0.0177261461
C  C56  1  0.38354000  0.28480000  0.13874000  1.0 0.0765672391
C  C57  1  0.31229000  0.30280000  0.11989000  1.0 -0.1404085504
C  C58  1  0.52887000  0.70510000  0.08027000  1.0 0.0106331812
C  C59  1  0.36213000  0.71160000  0.13483000  1.0 0.0698592936
C  C60  1  0.84145000  0.69000000  0.61795000  1.0 -0.1486522141
C  C61  1  0.32740000  0.72730000  0.18900000  1.0 -0.0700921696
C  C62  1  0.41854000  0.71070000  0.11634000  1.0 0.0177261461
C  C63  1  0.50836000  0.31230000  0.13746000  1.0 -0.1404085504
C  C64  1  0.66558000  0.26640000  0.07138000  1.0 -0.1486522141
C  C65  1  0.74618000  0.31470000  0.68238000  1.0 0.0698592936
C  C66  1  0.29029000  0.69330000  0.11549000  1.0 -0.1598070298
C  C67  1  0.48476000  0.68640000  0.13206000  1.0 -0.1404085504
C  C68  1  0.58552000  0.70020000  0.06082000  1.0 0.0698592936
C  C69  1  0.27324000  0.27830000  0.17084000  1.0 -0.0212397139
C  C70  1  0.64968000  0.72980000  0.07038000  1.0 -0.1598070298
C  C71  1  0.98036000  0.88430000  0.79896000  1.0 -0.080283356
C  C72  1  0.63512000  0.33660000  0.71122000  1.0 -0.0101824195
C  C73  1  0.64883000  0.28790000  0.70393000  1.0 -0.0700921696
C  C74  1  0.57360000  0.34980000  0.72600000  1.0 0.5408388491
C  C75  1  0.68660000  0.73410000  0.69050000  1.0 -0.1404085504
C  C76  1  0.44328000  0.28740000  0.12138000  1.0 0.0278484495
C  C77  1  0.25850000  0.29940000  0.13610000  1.0 -0.0700921696
C  C78  1  0.53826000  0.68340000  0.11446000  1.0 -0.1486522141
C  C79  1  0.07975000  0.27460000  0.57875000  1.0 -0.0101824195
C  C80  1  0.56229000  0.31600000  0.11969000  1.0 -0.1486522141
C  C81  1  0.34681000  0.25990000  0.19051000  1.0 -0.088177641
C  C82  1  0.62280000  0.67550000  0.71580000  1.0 -0.0405205585
C  C83  1  0.70424000  0.27650000  0.68844000  1.0 -0.1598070298
C  C84  1  0.07990000  0.11860000  0.76910000  1.0 -0.088177641
C  C85  1  0.57330000  0.66540000  0.03230000  1.0 -0.1598070298
C  C86  1  0.72964000  0.36410000  0.68874000  1.0 -0.1316386397
C  C87  1  0.62240000  0.66110000  0.01300000  1.0 -0.080283356
C  C88  1  0.07404000  0.89110000  0.77174000  1.0 -0.080283356
C  C89  1  0.04520000  0.15440000  0.74270000  1.0 -0.1404085504
C  C90  1  0.03630000  0.85610000  0.74360000  1.0 -0.1486522141
C  C91  1  0.65270000  0.34330000  0.02180000  1.0 -0.080283356
C  C92  1  0.73660000  0.68680000  0.99970000  1.0 0.5507050668
C  C93  1  0.72060000  0.64880000  0.69350000  1.0 -0.1316386397
C  C94  1  0.94294000  0.84980000  0.77134000  1.0 -0.1404085504
C  C95  1  0.05713000  0.74010000  0.57523000  1.0 -0.0101824195
C  C96  1  0.11670000  0.74530000  0.55800000  1.0 0.5693384772
C  C97  1  0.67560000  0.37410000  0.70390000  1.0 -0.080283356
C  C98  1  0.56350000  0.66000000  0.73110000  1.0 0.5408388491
C  C99  1  0.14020000  0.26830000  0.56150000  1.0 0.5507050668
C  C100  1  0.75590000  0.31570000  0.00300000  1.0 0.5408388491
C  C101  1  0.60340000  0.33880000  0.04130000  1.0 -0.1486522141
C  C102  1  0.99740000  0.13680000  0.80140000  1.0 -0.080283356
C  C103  1  0.96450000  0.17320000  0.77470000  1.0 -0.1404085504
C  C104  1  0.95570000  0.26940000  0.57710000  1.0 -0.1205654499
C  C105  1  0.04900000  0.30020000  0.63270000  1.0 -0.1598070298
C  C106  1  0.10030000  0.29650000  0.61500000  1.0 -0.080283356
C  C107  1  0.66810000  0.63620000  0.70980000  1.0 -0.080283356
C  C108  1  0.00870000  0.26150000  0.55980000  1.0 -0.080283356
C  C109  1  0.97980000  0.69490000  0.59980000  1.0 -0.1205654499
C  C110  1  0.96080000  0.77900000  0.59820000  1.0 -0.1598070298
C  C111  1  0.01430000  0.78440000  0.57970000  1.0 -0.0405205585
C  C112  1  0.04600000  0.70120000  0.58970000  1.0 -0.0700921696
C  C113  1  0.62277000  0.28580000  0.46647000  1.0 0.2931038802
C  C114  1  0.05101000  0.72030000  0.78441000  1.0 0.3110270443
C  C115  1  0.66188000  0.32540000  0.49348000  1.0 0.0431941355
C  C116  1  0.60036000  0.71570000  0.46326000  1.0 0.3007880812
C  C117  1  0.73556000  0.40100000  0.54586000  1.0 -0.028893523
C  C118  1  0.15138000  0.24310000  0.81828000  1.0 0.1010401071
C  C119  1  0.09839000  0.25090000  0.83559000  1.0 0.1100331738
C  C120  1  0.64279000  0.67930000  0.49269000  1.0 0.0431941355
C  C121  1  0.72077000  0.60900000  0.54717000  1.0 -0.0101824195
C  C122  1  0.76436000  0.57070000  0.57656000  1.0 0.5693384772
C  C123  1  0.07962000  0.76550000  0.83482000  1.0 0.1100331738
C  C124  1  0.59015000  0.23660000  0.41755000  1.0 0.120903665
C  C125  1  0.53594000  0.23410000  0.43474000  1.0 0.1010401071
C  C126  1  0.13437000  0.77320000  0.81907000  1.0 0.0908173387
C  C127  1  0.26652000  0.19750000  0.81452000  1.0 0.0765672391
C  C128  1  0.06911000  0.29620000  0.78531000  1.0 0.3007880812
C  C129  1  0.95224000  0.40460000  0.69994000  1.0 -0.028893523
C  C130  1  0.51185000  0.76560000  0.43005000  1.0 0.1010401071
C  C131  1  0.66406000  0.38570000  0.54166000  1.0 -0.088177641
C  C132  1  0.77488000  0.43970000  0.57458000  1.0 0.5693384772
C  C133  1  0.01440000  0.68280000  0.75550000  1.0 0.0431941355
C  C134  1  0.62695000  0.34950000  0.51525000  1.0 -0.1404085504
C  C135  1  0.19705000  0.83070000  0.86705000  1.0 -0.1486522141
C  C136  1  0.94206000  0.61050000  0.70066000  1.0 -0.0212397139
C  C137  1  0.56623000  0.76270000  0.41333000  1.0 0.1100331738
C  C138  1  0.90280000  0.57210000  0.67130000  1.0 0.5693384772
C  C139  1  0.73660000  0.33930000  0.49930000  1.0 -0.1316386397
C  C140  1  0.28392000  0.77110000  0.44782000  1.0 -0.088177641
C  C141  1  0.20918000  0.20830000  0.83218000  1.0 0.0106331812
C  C142  1  0.71893000  0.66910000  0.50013000  1.0 -0.1096514771
C  C143  1  0.21150000  0.18110000  0.86450000  1.0 -0.1404085504
C  C144  1  0.77089000  0.37690000  0.52409000  1.0 -0.080283356
C  C145  1  0.03044000  0.33440000  0.75624000  1.0 0.0499042039
C  C146  1  0.60869000  0.65340000  0.51479000  1.0 -0.1404085504
C  C147  1  0.02648000  0.78360000  0.88688000  1.0 0.0698592936
C  C148  1  0.31504000  0.18980000  0.47814000  1.0 -0.0101824195
C  C149  1  0.78615000  0.77230000  0.31195000  1.0 0.5593954836
C  C150  1  0.91070000  0.44140000  0.67070000  1.0 0.5693384772
C  C151  1  0.44655000  0.79490000  0.41415000  1.0 0.0106331812
C  C152  1  0.76294000  0.19330000  0.36734000  1.0 -0.080283356
C  C153  1  0.10263000  0.22460000  0.86903000  1.0 0.0278484495
C  C154  1  0.14279000  0.82290000  0.88369000  1.0 -0.1486522141
C  C155  1  0.04733000  0.23150000  0.88843000  1.0 0.0698592936
C  C156  1  0.36919000  0.22270000  0.79489000  1.0 -0.1205654499
C  C157  1  0.75523000  0.63430000  0.52603000  1.0 -0.080283356
C  C158  1  0.64670000  0.61980000  0.54130000  1.0 -0.088177641
C  C159  1  0.62038000  0.22740000  0.32828000  1.0 -0.1205654499
C  C160  1  0.30227000  0.22490000  0.44907000  1.0 -0.088177641
C  C161  1  0.74633000  0.21090000  0.33113000  1.0 -0.0212397139
C  C162  1  0.80387000  0.21390000  0.31297000  1.0 0.5593954836
C  C163  1  0.29304000  0.81080000  0.47394000  1.0 -0.0405205585
C  C164  1  0.59873000  0.76380000  0.32493000  1.0 -0.1096514771
C  C165  1  0.08310000  0.79080000  0.86840000  1.0 0.0177261461
C  C166  1  0.39119000  0.80000000  0.43449000  1.0 0.0765672391
C  C167  1  0.19402000  0.80530000  0.83472000  1.0 0.0106331812
C  C168  1  0.61646000  0.78480000  0.36126000  1.0 0.0765672391
C  C169  1  0.68771000  0.80280000  0.38011000  1.0 -0.1404085504
C  C170  1  0.47113000  0.20510000  0.41973000  1.0 0.0106331812
C  C171  1  0.63787000  0.21160000  0.36517000  1.0 0.0698592936
C  C172  1  0.15855000  0.19000000  0.88205000  1.0 -0.1486522141
C  C173  1  0.67260000  0.22730000  0.31100000  1.0 -0.0700921696
C  C174  1  0.58146000  0.21070000  0.38366000  1.0 0.0177261461
C  C175  1  0.49164000  0.81230000  0.36254000  1.0 -0.1404085504
C  C176  1  0.33442000  0.76640000  0.42862000  1.0 -0.1486522141
C  C177  1  0.25382000  0.81470000  0.81762000  1.0 0.0698592936
C  C178  1  0.70971000  0.19330000  0.38451000  1.0 -0.1598070298
C  C179  1  0.51524000  0.18640000  0.36794000  1.0 -0.1404085504
C  C180  1  0.41448000  0.20020000  0.43918000  1.0 0.0698592936
C  C181  1  0.72676000  0.77830000  0.32916000  1.0 -0.0212397139
C  C182  1  0.35032000  0.22980000  0.42962000  1.0 -0.1598070298
C  C183  1  0.01964000  0.38430000  0.70104000  1.0 -0.080283356
C  C184  1  0.36488000  0.83660000  0.78878000  1.0 -0.0101824195
C  C185  1  0.35117000  0.78790000  0.79607000  1.0 -0.0700921696
C  C186  1  0.42640000  0.84980000  0.77400000  1.0 0.5408388491
C  C187  1  0.31340000  0.23410000  0.80950000  1.0 -0.1404085504
C  C188  1  0.55672000  0.78740000  0.37862000  1.0 0.0278484495
C  C189  1  0.74150000  0.79940000  0.36390000  1.0 -0.0700921696
C  C190  1  0.46174000  0.18340000  0.38554000  1.0 -0.1486522141
C  C191  1  0.92025000  0.77460000  0.92125000  1.0 -0.0101824195
C  C192  1  0.43771000  0.81600000  0.38031000  1.0 -0.1486522141
C  C193  1  0.65319000  0.75990000  0.30949000  1.0 -0.088177641
C  C194  1  0.37720000  0.17550000  0.78420000  1.0 -0.0405205585
C  C195  1  0.29576000  0.77650000  0.81156000  1.0 -0.1598070298
C  C196  1  0.92010000  0.61860000  0.73090000  1.0 -0.088177641
C  C197  1  0.42670000  0.16540000  0.46770000  1.0 -0.1598070298
C  C198  1  0.27036000  0.86410000  0.81126000  1.0 -0.1316386397
C  C199  1  0.37760000  0.16110000  0.48700000  1.0 -0.080283356
C  C200  1  0.92596000  0.39110000  0.72826000  1.0 -0.080283356
C  C201  1  0.95480000  0.65440000  0.75730000  1.0 -0.1404085504
C  C202  1  0.96370000  0.35610000  0.75640000  1.0 -0.1486522141
C  C203  1  0.34730000  0.84330000  0.47820000  1.0 -0.080283356
C  C204  1  0.26340000  0.18680000  0.50030000  1.0 0.5507050668
C  C205  1  0.27940000  0.14880000  0.80650000  1.0 -0.1316386397
C  C206  1  0.05706000  0.34980000  0.72866000  1.0 -0.1404085504
C  C207  1  0.94287000  0.24010000  0.92477000  1.0 -0.0101824195
C  C208  1  0.88330000  0.24530000  0.94200000  1.0 0.5693384772
C  C209  1  0.32440000  0.87410000  0.79610000  1.0 -0.080283356
C  C210  1  0.43650000  0.16000000  0.76890000  1.0 0.5408388491
C  C211  1  0.85980000  0.76830000  0.93850000  1.0 0.5507050668
C  C212  1  0.24410000  0.81570000  0.49700000  1.0 0.5408388491
C  C213  1  0.39660000  0.83880000  0.45870000  1.0 -0.1486522141
C  C214  1  0.00260000  0.63680000  0.69860000  1.0 -0.080283356
C  C215  1  0.03550000  0.67320000  0.72530000  1.0 -0.1404085504
C  C216  1  0.04430000  0.76940000  0.92290000  1.0 -0.1205654499
C  C217  1  0.95100000  0.80020000  0.86730000  1.0 -0.1598070298
C  C218  1  0.89970000  0.79650000  0.88500000  1.0 -0.080283356
C  C219  1  0.33190000  0.13620000  0.79020000  1.0 -0.080283356
C  C220  1  0.99130000  0.76150000  0.94020000  1.0 -0.080283356
C  C221  1  0.02020000  0.19490000  0.90020000  1.0 -0.1205654499
C  C222  1  0.03920000  0.27900000  0.90180000  1.0 -0.1598070298
C  C223  1  0.98570000  0.28440000  0.92030000  1.0 -0.0405205585
C  C224  1  0.95400000  0.20120000  0.91030000  1.0 -0.0700921696
C  C225  1  0.62277000  0.21420000  0.96647000  1.0 0.2931038802
C  C226  1  0.05101000  0.77970000  0.28441000  1.0 0.3110270443
C  C227  1  0.66188000  0.17460000  0.99348000  1.0 0.0431941355
C  C228  1  0.60036000  0.78430000  0.96326000  1.0 0.3007880812
C  C229  1  0.73556000  0.09900000  0.04586000  1.0 -0.028893523
C  C230  1  0.15138000  0.25690000  0.31828000  1.0 0.1010401071
C  C231  1  0.09839000  0.24910000  0.33559000  1.0 0.1100331738
C  C232  1  0.64279000  0.82070000  0.99269000  1.0 0.0431941355
C  C233  1  0.72077000  0.89100000  0.04717000  1.0 -0.0101824195
C  C234  1  0.76436000  0.92930000  0.07656000  1.0 0.5693384772
C  C235  1  0.07962000  0.73450000  0.33482000  1.0 0.1100331738
C  C236  1  0.59015000  0.26340000  0.91755000  1.0 0.120903665
C  C237  1  0.53594000  0.26590000  0.93474000  1.0 0.1010401071
C  C238  1  0.13437000  0.72680000  0.31907000  1.0 0.0908173387
C  C239  1  0.26652000  0.30250000  0.31452000  1.0 0.0765672391
C  C240  1  0.06911000  0.20380000  0.28531000  1.0 0.3007880812
C  C241  1  0.95224000  0.09540000  0.19994000  1.0 -0.028893523
C  C242  1  0.51185000  0.73440000  0.93005000  1.0 0.1010401071
C  C243  1  0.66406000  0.11430000  0.04166000  1.0 -0.088177641
C  C244  1  0.77488000  0.06030000  0.07458000  1.0 0.5693384772
C  C245  1  0.01440000  0.81720000  0.25550000  1.0 0.0431941355
C  C246  1  0.62695000  0.15050000  0.01525000  1.0 -0.1404085504
C  C247  1  0.19705000  0.66930000  0.36705000  1.0 -0.1486522141
C  C248  1  0.94206000  0.88950000  0.20066000  1.0 -0.0212397139
C  C249  1  0.56623000  0.73730000  0.91333000  1.0 0.1100331738
C  C250  1  0.90280000  0.92790000  0.17130000  1.0 0.5693384772
C  C251  1  0.73660000  0.16070000  0.99930000  1.0 -0.1316386397
C  C252  1  0.28392000  0.72890000  0.94782000  1.0 -0.088177641
C  C253  1  0.20918000  0.29170000  0.33218000  1.0 0.0106331812
C  C254  1  0.71893000  0.83090000  0.00013000  1.0 -0.1096514771
C  C255  1  0.21150000  0.31890000  0.36450000  1.0 -0.1404085504
C  C256  1  0.77089000  0.12310000  0.02409000  1.0 -0.080283356
C  C257  1  0.03044000  0.16560000  0.25624000  1.0 0.0499042039
C  C258  1  0.60869000  0.84660000  0.01479000  1.0 -0.1404085504
C  C259  1  0.02648000  0.71640000  0.38688000  1.0 0.0698592936
C  C260  1  0.31504000  0.31020000  0.97814000  1.0 -0.0101824195
C  C261  1  0.78615000  0.72770000  0.81195000  1.0 0.5593954836
C  C262  1  0.91070000  0.05860000  0.17070000  1.0 0.5693384772
C  C263  1  0.44655000  0.70510000  0.91415000  1.0 0.0106331812
C  C264  1  0.76294000  0.30670000  0.86734000  1.0 -0.080283356
C  C265  1  0.10263000  0.27540000  0.36903000  1.0 0.0278484495
C  C266  1  0.14279000  0.67710000  0.38369000  1.0 -0.1486522141
C  C267  1  0.04733000  0.26850000  0.38843000  1.0 0.0698592936
C  C268  1  0.36919000  0.27730000  0.29489000  1.0 -0.1205654499
C  C269  1  0.75523000  0.86570000  0.02603000  1.0 -0.080283356
C  C270  1  0.64670000  0.88020000  0.04130000  1.0 -0.088177641
C  C271  1  0.62038000  0.27260000  0.82828000  1.0 -0.1205654499
C  C272  1  0.30227000  0.27510000  0.94907000  1.0 -0.088177641
C  C273  1  0.74633000  0.28910000  0.83113000  1.0 -0.0212397139
C  C274  1  0.80387000  0.28610000  0.81297000  1.0 0.5593954836
C  C275  1  0.29304000  0.68920000  0.97394000  1.0 -0.0405205585
C  C276  1  0.59873000  0.73620000  0.82493000  1.0 -0.1096514771
C  C277  1  0.08310000  0.70920000  0.36840000  1.0 0.0177261461
C  C278  1  0.39119000  0.70000000  0.93449000  1.0 0.0765672391
C  C279  1  0.19402000  0.69470000  0.33472000  1.0 0.0177261461
C  C280  1  0.61646000  0.71520000  0.86126000  1.0 0.0765672391
C  C281  1  0.68771000  0.69720000  0.88011000  1.0 -0.1404085504
C  C282  1  0.47113000  0.29490000  0.91973000  1.0 0.0106331812
C  C283  1  0.63787000  0.28840000  0.86517000  1.0 0.0698592936
C  C284  1  0.15855000  0.31000000  0.38205000  1.0 -0.1486522141
C  C285  1  0.67260000  0.27270000  0.81100000  1.0 -0.0700921696
C  C286  1  0.58146000  0.28930000  0.88366000  1.0 0.0177261461
C  C287  1  0.49164000  0.68770000  0.86254000  1.0 -0.1404085504
C  C288  1  0.33442000  0.73360000  0.92862000  1.0 -0.1486522141
C  C289  1  0.25382000  0.68530000  0.31762000  1.0 0.0698592936
C  C290  1  0.70971000  0.30670000  0.88451000  1.0 -0.1598070298
C  C291  1  0.51524000  0.31360000  0.86794000  1.0 -0.1404085504
C  C292  1  0.41448000  0.29980000  0.93918000  1.0 0.0698592936
C  C293  1  0.72676000  0.72170000  0.82916000  1.0 -0.0212397139
C  C294  1  0.35032000  0.27020000  0.92962000  1.0 -0.1598070298
C  C295  1  0.01964000  0.11570000  0.20104000  1.0 -0.080283356
C  C296  1  0.36488000  0.66340000  0.28878000  1.0 -0.0101824195
C  C297  1  0.35117000  0.71210000  0.29607000  1.0 -0.0700921696
C  C298  1  0.42640000  0.65020000  0.27400000  1.0 0.5408388491
C  C299  1  0.31340000  0.26590000  0.30950000  1.0 -0.1404085504
C  C300  1  0.55672000  0.71260000  0.87862000  1.0 0.0278484495
C  C301  1  0.74150000  0.70060000  0.86390000  1.0 -0.0700921696
C  C302  1  0.46174000  0.31660000  0.88554000  1.0 -0.1486522141
C  C303  1  0.92025000  0.72540000  0.42125000  1.0 -0.0101824195
C  C304  1  0.43771000  0.68400000  0.88031000  1.0 -0.1486522141
C  C305  1  0.65319000  0.74010000  0.80949000  1.0 -0.088177641
C  C306  1  0.37720000  0.32450000  0.28420000  1.0 -0.0405205585
C  C307  1  0.29576000  0.72350000  0.31156000  1.0 -0.1598070298
C  C308  1  0.92010000  0.88140000  0.23090000  1.0 -0.088177641
C  C309  1  0.42670000  0.33460000  0.96770000  1.0 -0.1598070298
C  C310  1  0.27036000  0.63590000  0.31126000  1.0 -0.1316386397
C  C311  1  0.37760000  0.33890000  0.98700000  1.0 -0.080283356
C  C312  1  0.92596000  0.10890000  0.22826000  1.0 -0.080283356
C  C313  1  0.95480000  0.84560000  0.25730000  1.0 -0.1404085504
C  C314  1  0.96370000  0.14390000  0.25640000  1.0 -0.1486522141
C  C315  1  0.34730000  0.65670000  0.97820000  1.0 -0.080283356
C  C316  1  0.26340000  0.31320000  0.00030000  1.0 0.5507050668
C  C317  1  0.27940000  0.35120000  0.30650000  1.0 -0.1316386397
C  C318  1  0.05706000  0.15020000  0.22866000  1.0 -0.1404085504
C  C319  1  0.94287000  0.25990000  0.42477000  1.0 -0.0101824195
C  C320  1  0.88330000  0.25470000  0.44200000  1.0 0.5693384772
C  C321  1  0.32440000  0.62590000  0.29610000  1.0 -0.080283356
C  C322  1  0.43650000  0.34000000  0.26890000  1.0 0.5408388491
C  C323  1  0.85980000  0.73170000  0.43850000  1.0 0.5507050668
C  C324  1  0.24410000  0.68430000  0.99700000  1.0 0.5408388491
C  C325  1  0.39660000  0.66120000  0.95870000  1.0 -0.1486522141
C  C326  1  0.00260000  0.86320000  0.19860000  1.0 -0.080283356
C  C327  1  0.03550000  0.82680000  0.22530000  1.0 -0.1404085504
C  C328  1  0.04430000  0.73060000  0.42290000  1.0 -0.1205654499
C  C329  1  0.95100000  0.69980000  0.36730000  1.0 -0.1598070298
C  C330  1  0.89970000  0.70350000  0.38500000  1.0 -0.080283356
C  C331  1  0.33190000  0.36380000  0.29020000  1.0 -0.080283356
C  C332  1  0.99130000  0.73850000  0.44020000  1.0 -0.080283356
C  C333  1  0.02020000  0.30510000  0.40020000  1.0 -0.1205654499
C  C334  1  0.03920000  0.22100000  0.40180000  1.0 -0.1598070298
C  C335  1  0.98570000  0.21560000  0.42030000  1.0 -0.0405205585
C  C336  1  0.95400000  0.29880000  0.41030000  1.0 -0.0700921696
C  C337  1  0.37723000  0.71420000  0.53353000  1.0 0.2931038802
C  C338  1  0.94899000  0.27970000  0.21559000  1.0 0.3110270443
C  C339  1  0.33812000  0.67460000  0.50652000  1.0 0.0431941355
C  C340  1  0.39964000  0.28430000  0.53674000  1.0 0.3007880812
C  C341  1  0.26444000  0.59900000  0.45414000  1.0 -0.028893523
C  C342  1  0.84862000  0.75690000  0.18172000  1.0 0.1010401071
C  C343  1  0.90161000  0.74910000  0.16441000  1.0 0.1100331738
C  C344  1  0.35721000  0.32070000  0.50731000  1.0 0.0431941355
C  C345  1  0.27923000  0.39100000  0.45283000  1.0 -0.0101824195
C  C346  1  0.23564000  0.42930000  0.42344000  1.0 0.5693384772
C  C347  1  0.92038000  0.23450000  0.16518000  1.0 0.1100331738
C  C348  1  0.40985000  0.76340000  0.58245000  1.0 0.120903665
C  C349  1  0.46406000  0.76590000  0.56526000  1.0 0.1010401071
C  C350  1  0.86563000  0.22680000  0.18093000  1.0 0.0908173387
C  C351  1  0.73348000  0.80250000  0.18548000  1.0 0.0765672391
C  C352  1  0.93089000  0.70380000  0.21469000  1.0 0.3007880812
C  C353  1  0.04776000  0.59540000  0.30006000  1.0 -0.028893523
C  C354  1  0.48815000  0.23440000  0.56995000  1.0 0.1010401071
C  C355  1  0.33594000  0.61430000  0.45834000  1.0 -0.088177641
C  C356  1  0.22512000  0.56030000  0.42542000  1.0 0.5693384772
C  C357  1  0.98560000  0.31720000  0.24450000  1.0 0.0431941355
C  C358  1  0.37305000  0.65050000  0.48475000  1.0 -0.1404085504
C  C359  1  0.80295000  0.16930000  0.13295000  1.0 -0.1486522141
C  C360  1  0.05794000  0.38950000  0.29934000  1.0 -0.0212397139
C  C361  1  0.43377000  0.23730000  0.58667000  1.0 0.1100331738
C  C362  1  0.09720000  0.42790000  0.32870000  1.0 0.5693384772
C  C363  1  0.26340000  0.66070000  0.50070000  1.0 -0.1316386397
C  C364  1  0.71608000  0.22890000  0.55218000  1.0 -0.088177641
C  C365  1  0.79082000  0.79170000  0.16782000  1.0 0.0106331812
C  C366  1  0.28107000  0.33090000  0.49987000  1.0 -0.1096514771
C  C367  1  0.78850000  0.81890000  0.13550000  1.0 -0.1404085504
C  C368  1  0.22911000  0.62310000  0.47591000  1.0 -0.080283356
C  C369  1  0.96956000  0.66560000  0.24376000  1.0 0.0499042039
C  C370  1  0.39131000  0.34660000  0.48521000  1.0 -0.1404085504
C  C371  1  0.97352000  0.21640000  0.11312000  1.0 0.0698592936
C  C372  1  0.68496000  0.81020000  0.52186000  1.0 -0.0101824195
C  C373  1  0.21385000  0.22770000  0.68805000  1.0 0.5593954836
C  C374  1  0.08930000  0.55860000  0.32930000  1.0 0.5693384772
C  C375  1  0.55345000  0.20510000  0.58585000  1.0 0.0106331812
C  C376  1  0.23706000  0.80670000  0.63266000  1.0 -0.080283356
C  C377  1  0.89737000  0.77540000  0.13097000  1.0 0.0278484495
C  C378  1  0.85721000  0.17710000  0.11631000  1.0 -0.1486522141
C  C379  1  0.95267000  0.76850000  0.11157000  1.0 0.0698592936
C  C380  1  0.63081000  0.77730000  0.20511000  1.0 -0.1205654499
C  C381  1  0.24477000  0.36570000  0.47397000  1.0 -0.080283356
C  C382  1  0.35330000  0.38020000  0.45870000  1.0 -0.088177641
C  C383  1  0.37962000  0.77260000  0.67172000  1.0 -0.1205654499
C  C384  1  0.69773000  0.77510000  0.55093000  1.0 -0.088177641
C  C385  1  0.25367000  0.78910000  0.66887000  1.0 -0.0212397139
C  C386  1  0.19613000  0.78610000  0.68703000  1.0 0.5593954836
C  C387  1  0.70696000  0.18920000  0.52606000  1.0 -0.0405205585
C  C388  1  0.40127000  0.23620000  0.67507000  1.0 -0.1096514771
C  C389  1  0.91690000  0.20920000  0.13160000  1.0 0.0177261461
C  C390  1  0.60881000  0.20000000  0.56551000  1.0 0.0765672391
C  C391  1  0.80598000  0.19470000  0.16528000  1.0 0.0177261461
C  C392  1  0.38354000  0.21520000  0.63874000  1.0 0.0765672391
C  C393  1  0.31229000  0.19720000  0.61989000  1.0 -0.1404085504
C  C394  1  0.52887000  0.79490000  0.58027000  1.0 0.0106331812
C  C395  1  0.36213000  0.78840000  0.63483000  1.0 0.0698592936
C  C396  1  0.84145000  0.81000000  0.11795000  1.0 -0.1486522141
C  C397  1  0.32740000  0.77270000  0.68900000  1.0 -0.0700921696
C  C398  1  0.41854000  0.78930000  0.61634000  1.0 0.0177261461
C  C399  1  0.50836000  0.18770000  0.63746000  1.0 -0.1404085504
C  C400  1  0.66558000  0.23360000  0.57138000  1.0 -0.1486522141
C  C401  1  0.74618000  0.18530000  0.18238000  1.0 0.0698592936
C  C402  1  0.29029000  0.80670000  0.61549000  1.0 -0.1598070298
C  C403  1  0.48476000  0.81360000  0.63206000  1.0 -0.1404085504
C  C404  1  0.58552000  0.79980000  0.56082000  1.0 0.0698592936
C  C405  1  0.27324000  0.22170000  0.67084000  1.0 -0.0212397139
C  C406  1  0.64968000  0.77020000  0.57038000  1.0 -0.1598070298
C  C407  1  0.98036000  0.61570000  0.29896000  1.0 -0.080283356
C  C408  1  0.63512000  0.16340000  0.21122000  1.0 -0.0101824195
C  C409  1  0.64883000  0.21210000  0.20393000  1.0 -0.0700921696
C  C410  1  0.57360000  0.15020000  0.22600000  1.0 0.5408388491
C  C411  1  0.68660000  0.76590000  0.19050000  1.0 -0.1404085504
C  C412  1  0.44328000  0.21260000  0.62138000  1.0 0.0278484495
C  C413  1  0.25850000  0.20060000  0.63610000  1.0 -0.0700921696
C  C414  1  0.53826000  0.81660000  0.61446000  1.0 -0.1486522141
C  C415  1  0.07975000  0.22540000  0.07875000  1.0 -0.0101824195
C  C416  1  0.56229000  0.18400000  0.61969000  1.0 -0.1486522141
C  C417  1  0.34681000  0.24010000  0.69051000  1.0 -0.088177641
C  C418  1  0.62280000  0.82450000  0.21580000  1.0 -0.0405205585
C  C419  1  0.70424000  0.22350000  0.18844000  1.0 -0.1598070298
C  C420  1  0.07990000  0.38140000  0.26910000  1.0 -0.088177641
C  C421  1  0.57330000  0.83460000  0.53230000  1.0 -0.1598070298
C  C422  1  0.72964000  0.13590000  0.18874000  1.0 -0.1316386397
C  C423  1  0.62240000  0.83890000  0.51300000  1.0 -0.080283356
C  C424  1  0.07404000  0.60890000  0.27174000  1.0 -0.080283356
C  C425  1  0.04520000  0.34560000  0.24270000  1.0 -0.1404085504
C  C426  1  0.03630000  0.64390000  0.24360000  1.0 -0.1486522141
C  C427  1  0.65270000  0.15670000  0.52180000  1.0 -0.080283356
C  C428  1  0.73660000  0.81320000  0.49970000  1.0 0.5507050668
C  C429  1  0.72060000  0.85120000  0.19350000  1.0 -0.1316386397
C  C430  1  0.94294000  0.65020000  0.27134000  1.0 -0.1404085504
C  C431  1  0.05713000  0.75990000  0.07523000  1.0 -0.0101824195
C  C432  1  0.11670000  0.75470000  0.05800000  1.0 0.5693384772
C  C433  1  0.67560000  0.12590000  0.20390000  1.0 -0.080283356
C  C434  1  0.56350000  0.84000000  0.23110000  1.0 0.5408388491
C  C435  1  0.14020000  0.23170000  0.06150000  1.0 0.5507050668
C  C436  1  0.75590000  0.18430000  0.50300000  1.0 0.5408388491
C  C437  1  0.60340000  0.16120000  0.54130000  1.0 -0.1486522141
C  C438  1  0.99740000  0.36320000  0.30140000  1.0 -0.080283356
C  C439  1  0.96450000  0.32680000  0.27470000  1.0 -0.1404085504
C  C440  1  0.95570000  0.23060000  0.07710000  1.0 -0.1205654499
C  C441  1  0.04900000  0.19980000  0.13270000  1.0 -0.1598070298
C  C442  1  0.10030000  0.20350000  0.11500000  1.0 -0.080283356
C  C443  1  0.66810000  0.86380000  0.20980000  1.0 -0.080283356
C  C444  1  0.00870000  0.23850000  0.05980000  1.0 -0.080283356
C  C445  1  0.97980000  0.80510000  0.09980000  1.0 -0.1205654499
C  C446  1  0.96080000  0.72100000  0.09820000  1.0 -0.1598070298
C  C447  1  0.01430000  0.71560000  0.07970000  1.0 -0.0405205585
C  C448  1  0.04600000  0.79880000  0.08970000  1.0 -0.0700921696
N  N1  1  0.97262000  0.23156000  0.68712000  1.0 -0.3582249629
N  N2  1  0.86847000  0.77164000  0.71397000  1.0 -0.3582249629
N  N3  1  0.44190000  0.76540000  0.03410000  1.0 -0.3388172025
N  N4  1  0.35579000  0.76899000  0.06239000  1.0 -0.3582249629
N  N5  1  0.88556000  0.24414000  0.71396000  1.0 -0.3582249629
N  N6  1  0.37736000  0.23135000  0.06506000  1.0 -0.3506762768
N  N7  1  0.95271000  0.78500000  0.68531000  1.0 -0.3506762768
N  N8  1  0.46485000  0.23570000  0.03765000  1.0 -0.3506762768
N  N9  1  0.02738000  0.73156000  0.81288000  1.0 -0.3582249629
N  N10  1  0.13153000  0.27164000  0.78603000  1.0 -0.3582249629
N  N11  1  0.55810000  0.26540000  0.46590000  1.0 -0.3388172025
N  N12  1  0.64421000  0.26899000  0.43761000  1.0 -0.3582249629
N  N13  1  0.11444000  0.74414000  0.78604000  1.0 -0.3582249629
N  N14  1  0.62264000  0.73135000  0.43494000  1.0 -0.3506762768
N  N15  1  0.04729000  0.28500000  0.81469000  1.0 -0.3506762768
N  N16  1  0.53515000  0.73570000  0.46235000  1.0 -0.3506762768
N  N17  1  0.02738000  0.76844000  0.31288000  1.0 -0.3582249629
N  N18  1  0.13153000  0.22836000  0.28603000  1.0 -0.3582249629
N  N19  1  0.55810000  0.23460000  0.96590000  1.0 -0.3388172025
N  N20  1  0.64421000  0.23101000  0.93761000  1.0 -0.3582249629
N  N21  1  0.11444000  0.75586000  0.28604000  1.0 -0.3582249629
N  N22  1  0.62264000  0.76865000  0.93494000  1.0 -0.3506762768
N  N23  1  0.04729000  0.21500000  0.31469000  1.0 -0.3506762768
N  N24  1  0.53515000  0.76430000  0.96235000  1.0 -0.3506762768
N  N25  1  0.97262000  0.26844000  0.18712000  1.0 -0.3582249629
N  N26  1  0.86847000  0.72836000  0.21397000  1.0 -0.3582249629
N  N27  1  0.44190000  0.73460000  0.53410000  1.0 -0.3388172025
N  N28  1  0.35579000  0.73101000  0.56239000  1.0 -0.3582249629
N  N29  1  0.88556000  0.25586000  0.21396000  1.0 -0.3582249629
N  N30  1  0.37736000  0.26865000  0.56506000  1.0 -0.3506762768
N  N31  1  0.95271000  0.71500000  0.18531000  1.0 -0.3506762768
N  N32  1  0.46485000  0.26430000  0.53765000  1.0 -0.3506762768
O  O1  1  0.26680000  0.05533000  0.90091000  1.0 -0.5071532761
O  O2  1  0.15256000  0.95417000  0.82932000  1.0 -0.5199110294
O  O3  1  0.05999000  0.95608000  0.85245000  1.0 -0.500542258
O  O4  1  0.25712000  0.95332000  0.90261000  1.0 -0.5199110294
O  O5  1  0.15871000  0.05668000  0.82841000  1.0 -0.5071532761
O  O6  1  0.16350000  0.95535000  0.92584000  1.0 -0.500542258
O  O7  1  0.06703000  0.05917000  0.85203000  1.0 -0.5071532761
O  O8  1  0.17359000  0.05811000  0.92419000  1.0 -0.500542258
O  O9  1  0.22708000  0.24340000  0.21598000  1.0 -0.4927021647
O  O10  1  0.53831000  0.31330000  0.73391000  1.0 -0.5665793503
O  O11  1  0.15418000  0.29550000  0.17298000  1.0 -0.4798898707
O  O12  1  0.51598000  0.69422000  0.73088000  1.0 -0.4277342269
O  O13  1  0.21182000  0.73660000  0.21742000  1.0 -0.4798898707
O  O14  1  0.13374000  0.69420000  0.16964000  1.0 -0.500542258
O  O15  1  0.78944000  0.71990000  0.00834000  1.0 -0.5766446079
O  O16  1  0.19807000  0.29630000  0.57687000  1.0 -0.5256290222
O  O17  1  0.80604000  0.28070000  0.00854000  1.0 -0.4798898707
O  O18  1  0.72370000  0.65610000  0.97350000  1.0 -0.5364792431
O  O19  1  0.16922000  0.71200000  0.57032000  1.0 -0.5199110294
O  O20  1  0.74641000  0.34880000  0.97991000  1.0 -0.4927021647
O  O21  1  0.13302000  0.23700000  0.53662000  1.0 -0.4798898707
O  O22  1  0.11449000  0.77910000  0.53619000  1.0 -0.4927021647
O  O23  1  0.56040000  0.39260000  0.73080000  1.0 -0.4277342269
O  O24  1  0.56210000  0.61900000  0.74510000  1.0 -0.4583784426
O  O25  1  0.73320000  0.55533000  0.59909000  1.0 -0.5071532761
O  O26  1  0.84744000  0.45417000  0.67068000  1.0 -0.5199110294
O  O27  1  0.94001000  0.45608000  0.64755000  1.0 -0.500542258
O  O28  1  0.74288000  0.45332000  0.59739000  1.0 -0.5199110294
O  O29  1  0.84129000  0.55668000  0.67159000  1.0 -0.5071532761
O  O30  1  0.83650000  0.45535000  0.57416000  1.0 -0.500542258
O  O31  1  0.93297000  0.55917000  0.64797000  1.0 -0.5071532761
O  O32  1  0.82641000  0.55811000  0.57581000  1.0 -0.500542258
O  O33  1  0.77292000  0.74340000  0.28402000  1.0 -0.4927021647
O  O34  1  0.46169000  0.81330000  0.76609000  1.0 -0.5665793503
O  O35  1  0.84582000  0.79550000  0.32702000  1.0 -0.4798898707
O  O36  1  0.48402000  0.19422000  0.76912000  1.0 -0.4277342269
O  O37  1  0.78818000  0.23660000  0.28258000  1.0 -0.4798898707
O  O38  1  0.86626000  0.19420000  0.33036000  1.0 -0.500542258
O  O39  1  0.21056000  0.21990000  0.49166000  1.0 -0.5766446079
O  O40  1  0.80193000  0.79630000  0.92313000  1.0 -0.5256290222
O  O41  1  0.19396000  0.78070000  0.49146000  1.0 -0.4798898707
O  O42  1  0.27630000  0.15610000  0.52650000  1.0 -0.5364792431
O  O43  1  0.83078000  0.21200000  0.92968000  1.0 -0.5199110294
O  O44  1  0.25359000  0.84880000  0.52009000  1.0 -0.4927021647
O  O45  1  0.86698000  0.73700000  0.96338000  1.0 -0.4798898707
O  O46  1  0.88551000  0.27910000  0.96381000  1.0 -0.4927021647
O  O47  1  0.43960000  0.89260000  0.76920000  1.0 -0.4277342269
O  O48  1  0.43790000  0.11900000  0.75490000  1.0 -0.4583784426
O  O49  1  0.73320000  0.94467000  0.09909000  1.0 -0.5071532761
O  O50  1  0.84744000  0.04583000  0.17068000  1.0 -0.5199110294
O  O51  1  0.94001000  0.04392000  0.14755000  1.0 -0.500542258
O  O52  1  0.74288000  0.04668000  0.09739000  1.0 -0.5199110294
O  O53  1  0.84129000  0.94332000  0.17159000  1.0 -0.5071532761
O  O54  1  0.83650000  0.04465000  0.07416000  1.0 -0.500542258
O  O55  1  0.93297000  0.94083000  0.14797000  1.0 -0.5071532761
O  O56  1  0.82641000  0.94189000  0.07581000  1.0 -0.500542258
O  O57  1  0.77292000  0.75660000  0.78402000  1.0 -0.4927021647
O  O58  1  0.46169000  0.68670000  0.26609000  1.0 -0.5665793503
O  O59  1  0.84582000  0.70450000  0.82702000  1.0 -0.4798898707
O  O60  1  0.48402000  0.30578000  0.26912000  1.0 -0.4277342269
O  O61  1  0.78818000  0.26340000  0.78258000  1.0 -0.4798898707
O  O62  1  0.86626000  0.30580000  0.83036000  1.0 -0.500542258
O  O63  1  0.21056000  0.28010000  0.99166000  1.0 -0.5766446079
O  O64  1  0.80193000  0.70370000  0.42313000  1.0 -0.5256290222
O  O65  1  0.19396000  0.71930000  0.99146000  1.0 -0.4798898707
O  O66  1  0.27630000  0.34390000  0.02650000  1.0 -0.5364792431
O  O67  1  0.83078000  0.28800000  0.42968000  1.0 -0.5199110294
O  O68  1  0.25359000  0.65120000  0.02009000  1.0 -0.4927021647
O  O69  1  0.86698000  0.76300000  0.46338000  1.0 -0.4798898707
O  O70  1  0.88551000  0.22090000  0.46381000  1.0 -0.4927021647
O  O71  1  0.43960000  0.60740000  0.26920000  1.0 -0.4277342269
O  O72  1  0.43790000  0.38100000  0.25490000  1.0 -0.4583784426
O  O73  1  0.26680000  0.44467000  0.40091000  1.0 -0.5071532761
O  O74  1  0.15256000  0.54583000  0.32932000  1.0 -0.5199110294
O  O75  1  0.05999000  0.54392000  0.35245000  1.0 -0.500542258
O  O76  1  0.25712000  0.54668000  0.40261000  1.0 -0.5199110294
O  O77  1  0.15871000  0.44332000  0.32841000  1.0 -0.5071532761
O  O78  1  0.16350000  0.54465000  0.42584000  1.0 -0.500542258
O  O79  1  0.06703000  0.44083000  0.35203000  1.0 -0.5071532761
O  O80  1  0.17359000  0.44189000  0.42419000  1.0 -0.500542258
O  O81  1  0.22708000  0.25660000  0.71598000  1.0 -0.4927021647
O  O82  1  0.53831000  0.18670000  0.23391000  1.0 -0.5665793503
O  O83  1  0.15418000  0.20450000  0.67298000  1.0 -0.4798898707
O  O84  1  0.51598000  0.80578000  0.23088000  1.0 -0.4277342269
O  O85  1  0.21182000  0.76340000  0.71742000  1.0 -0.4798898707
O  O86  1  0.13374000  0.80580000  0.66964000  1.0 -0.500542258
O  O87  1  0.78944000  0.78010000  0.50834000  1.0 -0.5766446079
O  O88  1  0.19807000  0.20370000  0.07687000  1.0 -0.5256290222
O  O89  1  0.80604000  0.21930000  0.50854000  1.0 -0.4798898707
O  O90  1  0.72370000  0.84390000  0.47350000  1.0 -0.5364792431
O  O91  1  0.16922000  0.78800000  0.07032000  1.0 -0.5199110294
O  O92  1  0.74641000  0.15120000  0.47991000  1.0 -0.4927021647
O  O93  1  0.13302000  0.26300000  0.03662000  1.0 -0.4798898707
O  O94  1  0.11449000  0.72090000  0.03619000  1.0 -0.4927021647
O  O95  1  0.56040000  0.10740000  0.23080000  1.0 -0.4277342269
O  O96  1  0.56210000  0.88100000  0.24510000  1.0 -0.4583784426
