# DDEC6 charges by PACMAN v1.1 (https://github.com/mtap-research/PACMAN-charge/)
data_PIXDEI_FSR_pacman
_symmetry_space_group_name_H-M   'P 1'
_cell_length_a   25.63770000
_cell_length_b   27.35350000
_cell_length_c   27.44040000
_cell_angle_alpha   90.00000000
_cell_angle_beta   90.00000000
_cell_angle_gamma   90.00000000
_symmetry_Int_Tables_number   1
_chemical_formula_structural   Fe2CoH34C56(NO4)4
_chemical_formula_sum   'Fe8 Co4 H136 C224 N16 O64'
_cell_volume   19243.42640384
_cell_formula_units_Z   4
loop_
 _symmetry_equiv_pos_site_id
 _symmetry_equiv_pos_as_xyz
  1  'x, y, z'
loop_
 _atom_site_type_symbol
 _atom_site_label
 _atom_site_symmetry_multiplicity
 _atom_site_fract_x
 _atom_site_fract_y
 _atom_site_fract_z
 _atom_site_occupancy
 _atom_site_charge
Fe  Fe1  1  0.64825000  0.65667000  0.75000000  1.0 1.2131293317
Fe  Fe2  1  0.69461000  0.54527000  0.75000000  1.0 1.1803655376
Fe  Fe3  1  0.14825000  0.84333000  0.25000000  1.0 1.2131293317
Fe  Fe4  1  0.19461000  0.95473000  0.25000000  1.0 1.1803655376
Fe  Fe5  1  0.35175000  0.34333000  0.25000000  1.0 1.2131293317
Fe  Fe6  1  0.30539000  0.45473000  0.25000000  1.0 1.1803655376
Fe  Fe7  1  0.85175000  0.15667000  0.75000000  1.0 1.2131293317
Fe  Fe8  1  0.80539000  0.04527000  0.75000000  1.0 1.1803655376
Co  Co1  1  0.56661000  0.56489000  0.75000000  1.0 1.2131293317
Co  Co2  1  0.06661000  0.93511000  0.25000000  1.0 1.2131293317
Co  Co3  1  0.43339000  0.43511000  0.25000000  1.0 1.2131293317
Co  Co4  1  0.93339000  0.06489000  0.75000000  1.0 1.2131293317
H  H1  1  0.43950000  0.66020000  0.49700000  1.0 0.2894060046
H  H2  1  0.45600000  0.53840000  0.37420000  1.0 0.1314770145
H  H3  1  0.46710000  0.63180000  0.64070000  1.0 0.1204057602
H  H4  1  0.22760000  0.79720000  0.37310000  1.0 0.1204057602
H  H5  1  0.30870000  0.91780000  0.36690000  1.0 0.1204057602
H  H6  1  0.46190000  0.60240000  0.42960000  1.0 0.1204057602
H  H7  1  0.28170000  0.76850000  0.43220000  1.0 0.1204057602
H  H8  1  0.31340000  0.57660000  0.33860000  1.0 0.11104017
H  H9  1  0.57340000  0.74020000  0.64270000  1.0 0.1204057602
H  H10  1  0.42370000  0.67010000  0.57740000  1.0 0.11104017
H  H11  1  0.52830000  0.77870000  0.57840000  1.0 0.1204057602
H  H12  1  0.36330000  0.88770000  0.42720000  1.0 0.11104017
H  H13  1  0.31820000  0.64740000  0.38620000  1.0 0.1314770145
H  H14  1  0.43670000  0.82310000  0.56550000  1.0 0.1204057602
H  H15  1  0.38400000  0.86100000  0.51050000  1.0 0.1204057602
H  H16  1  0.77510000  0.47080000  0.78160000  1.0 0.2303870742
H  H17  1  0.78770000  0.48500000  0.71850000  1.0 0.2303870742
H  H18  1  0.93950000  0.83980000  0.50300000  1.0 0.2894060046
H  H19  1  0.95600000  0.96160000  0.62580000  1.0 0.1314770145
H  H20  1  0.96710000  0.86820000  0.35930000  1.0 0.1204057602
H  H21  1  0.72760000  0.70280000  0.62690000  1.0 0.1204057602
H  H22  1  0.80870000  0.58220000  0.63310000  1.0 0.1204057602
H  H23  1  0.96190000  0.89760000  0.57040000  1.0 0.1204057602
H  H24  1  0.78170000  0.73150000  0.56780000  1.0 0.1204057602
H  H25  1  0.81340000  0.92340000  0.66140000  1.0 0.11104017
H  H26  1  0.07340000  0.75980000  0.35730000  1.0 0.1204057602
H  H27  1  0.92370000  0.82990000  0.42260000  1.0 0.11104017
H  H28  1  0.02830000  0.72130000  0.42160000  1.0 0.1204057602
H  H29  1  0.86330000  0.61230000  0.57280000  1.0 0.11104017
H  H30  1  0.81820000  0.85260000  0.61380000  1.0 0.1314770145
H  H31  1  0.93670000  0.67690000  0.43450000  1.0 0.1204057602
H  H32  1  0.88400000  0.63900000  0.48950000  1.0 0.1204057602
H  H33  1  0.27510000  0.02920000  0.21840000  1.0 0.2303870742
H  H34  1  0.28770000  0.01500000  0.28150000  1.0 0.2303870742
H  H35  1  0.56050000  0.33980000  0.99700000  1.0 0.2894060046
H  H36  1  0.54400000  0.46160000  0.87420000  1.0 0.1314770145
H  H37  1  0.53290000  0.36820000  0.14070000  1.0 0.1204057602
H  H38  1  0.77240000  0.20280000  0.87310000  1.0 0.1204057602
H  H39  1  0.69130000  0.08220000  0.86690000  1.0 0.1204057602
H  H40  1  0.53810000  0.39760000  0.92960000  1.0 0.1204057602
H  H41  1  0.71830000  0.23150000  0.93220000  1.0 0.1204057602
H  H42  1  0.68660000  0.42340000  0.83860000  1.0 0.11104017
H  H43  1  0.42660000  0.25980000  0.14270000  1.0 0.1204057602
H  H44  1  0.57630000  0.32990000  0.07740000  1.0 0.11104017
H  H45  1  0.47170000  0.22130000  0.07840000  1.0 0.1204057602
H  H46  1  0.63670000  0.11230000  0.92720000  1.0 0.11104017
H  H47  1  0.68180000  0.35260000  0.88620000  1.0 0.1314770145
H  H48  1  0.56330000  0.17690000  0.06550000  1.0 0.1204057602
H  H49  1  0.61600000  0.13900000  0.01050000  1.0 0.1204057602
H  H50  1  0.22490000  0.52920000  0.28160000  1.0 0.2303870742
H  H51  1  0.21230000  0.51500000  0.21850000  1.0 0.2303870742
H  H52  1  0.06050000  0.16020000  0.00300000  1.0 0.2894060046
H  H53  1  0.04400000  0.03840000  0.12580000  1.0 0.1314770145
H  H54  1  0.03290000  0.13180000  0.85930000  1.0 0.1204057602
H  H55  1  0.27240000  0.29720000  0.12690000  1.0 0.1204057602
H  H56  1  0.19130000  0.41780000  0.13310000  1.0 0.1204057602
H  H57  1  0.03810000  0.10240000  0.07040000  1.0 0.1204057602
H  H58  1  0.21830000  0.26850000  0.06780000  1.0 0.1204057602
H  H59  1  0.18660000  0.07660000  0.16140000  1.0 0.11104017
H  H60  1  0.92660000  0.24020000  0.85730000  1.0 0.1204057602
H  H61  1  0.07630000  0.17010000  0.92260000  1.0 0.11104017
H  H62  1  0.97170000  0.27870000  0.92160000  1.0 0.1204057602
H  H63  1  0.13670000  0.38770000  0.07280000  1.0 0.11104017
H  H64  1  0.18180000  0.14740000  0.11380000  1.0 0.1314770145
H  H65  1  0.06330000  0.32310000  0.93450000  1.0 0.1204057602
H  H66  1  0.11600000  0.36100000  0.98950000  1.0 0.1204057602
H  H67  1  0.72490000  0.97080000  0.71840000  1.0 0.2303870742
H  H68  1  0.71230000  0.98500000  0.78150000  1.0 0.2303870742
H  H69  1  0.56050000  0.33980000  0.50300000  1.0 0.2894060046
H  H70  1  0.54400000  0.46160000  0.62580000  1.0 0.1314770145
H  H71  1  0.53290000  0.36820000  0.35930000  1.0 0.1204057602
H  H72  1  0.77240000  0.20280000  0.62690000  1.0 0.1204057602
H  H73  1  0.69130000  0.08220000  0.63310000  1.0 0.1204057602
H  H74  1  0.53810000  0.39760000  0.57040000  1.0 0.1204057602
H  H75  1  0.71830000  0.23150000  0.56780000  1.0 0.1204057602
H  H76  1  0.68660000  0.42340000  0.66140000  1.0 0.11104017
H  H77  1  0.42660000  0.25980000  0.35730000  1.0 0.1204057602
H  H78  1  0.57630000  0.32990000  0.42260000  1.0 0.11104017
H  H79  1  0.47170000  0.22130000  0.42160000  1.0 0.1204057602
H  H80  1  0.63670000  0.11230000  0.57280000  1.0 0.11104017
H  H81  1  0.68180000  0.35260000  0.61380000  1.0 0.1314770145
H  H82  1  0.56330000  0.17690000  0.43450000  1.0 0.1204057602
H  H83  1  0.61600000  0.13900000  0.48950000  1.0 0.1204057602
H  H84  1  0.22490000  0.52920000  0.21840000  1.0 0.2303870742
H  H85  1  0.21230000  0.51500000  0.28150000  1.0 0.2303870742
H  H86  1  0.06050000  0.16020000  0.49700000  1.0 0.2894060046
H  H87  1  0.04400000  0.03840000  0.37420000  1.0 0.1314770145
H  H88  1  0.03290000  0.13180000  0.64070000  1.0 0.1204057602
H  H89  1  0.27240000  0.29720000  0.37310000  1.0 0.1204057602
H  H90  1  0.19130000  0.41780000  0.36690000  1.0 0.1204057602
H  H91  1  0.03810000  0.10240000  0.42960000  1.0 0.1204057602
H  H92  1  0.21830000  0.26850000  0.43220000  1.0 0.1204057602
H  H93  1  0.18660000  0.07660000  0.33860000  1.0 0.11104017
H  H94  1  0.92660000  0.24020000  0.64270000  1.0 0.1204057602
H  H95  1  0.07630000  0.17010000  0.57740000  1.0 0.11104017
H  H96  1  0.97170000  0.27870000  0.57840000  1.0 0.1204057602
H  H97  1  0.13670000  0.38770000  0.42720000  1.0 0.11104017
H  H98  1  0.18180000  0.14740000  0.38620000  1.0 0.1314770145
H  H99  1  0.06330000  0.32310000  0.56550000  1.0 0.1204057602
H  H100  1  0.11600000  0.36100000  0.51050000  1.0 0.1204057602
H  H101  1  0.72490000  0.97080000  0.78160000  1.0 0.2303870742
H  H102  1  0.71230000  0.98500000  0.71850000  1.0 0.2303870742
H  H103  1  0.43950000  0.66020000  0.00300000  1.0 0.2894060046
H  H104  1  0.45600000  0.53840000  0.12580000  1.0 0.1314770145
H  H105  1  0.46710000  0.63180000  0.85930000  1.0 0.1204057602
H  H106  1  0.22760000  0.79720000  0.12690000  1.0 0.1204057602
H  H107  1  0.30870000  0.91780000  0.13310000  1.0 0.1204057602
H  H108  1  0.46190000  0.60240000  0.07040000  1.0 0.1204057602
H  H109  1  0.28170000  0.76850000  0.06780000  1.0 0.1204057602
H  H110  1  0.31340000  0.57660000  0.16140000  1.0 0.11104017
H  H111  1  0.57340000  0.74020000  0.85730000  1.0 0.1204057602
H  H112  1  0.42370000  0.67010000  0.92260000  1.0 0.11104017
H  H113  1  0.52830000  0.77870000  0.92160000  1.0 0.1204057602
H  H114  1  0.36330000  0.88770000  0.07280000  1.0 0.11104017
H  H115  1  0.31820000  0.64740000  0.11380000  1.0 0.1314770145
H  H116  1  0.43670000  0.82310000  0.93450000  1.0 0.1204057602
H  H117  1  0.38400000  0.86100000  0.98950000  1.0 0.1204057602
H  H118  1  0.77510000  0.47080000  0.71840000  1.0 0.2303870742
H  H119  1  0.78770000  0.48500000  0.78150000  1.0 0.2303870742
H  H120  1  0.93950000  0.83980000  0.99700000  1.0 0.2894060046
H  H121  1  0.95600000  0.96160000  0.87420000  1.0 0.1314770145
H  H122  1  0.96710000  0.86820000  0.14070000  1.0 0.1204057602
H  H123  1  0.72760000  0.70280000  0.87310000  1.0 0.1204057602
H  H124  1  0.80870000  0.58220000  0.86690000  1.0 0.1204057602
H  H125  1  0.96190000  0.89760000  0.92960000  1.0 0.1204057602
H  H126  1  0.78170000  0.73150000  0.93220000  1.0 0.1204057602
H  H127  1  0.81340000  0.92340000  0.83860000  1.0 0.11104017
H  H128  1  0.07340000  0.75980000  0.14270000  1.0 0.1204057602
H  H129  1  0.92370000  0.82990000  0.07740000  1.0 0.11104017
H  H130  1  0.02830000  0.72130000  0.07840000  1.0 0.1204057602
H  H131  1  0.86330000  0.61230000  0.92720000  1.0 0.11104017
H  H132  1  0.81820000  0.85260000  0.88620000  1.0 0.1314770145
H  H133  1  0.93670000  0.67690000  0.06550000  1.0 0.1204057602
H  H134  1  0.88400000  0.63900000  0.01050000  1.0 0.1204057602
H  H135  1  0.27510000  0.02920000  0.28160000  1.0 0.2303870742
H  H136  1  0.28770000  0.01500000  0.21850000  1.0 0.2303870742
C  C1  1  0.37910000  0.50942000  0.31662000  1.0 0.5862263789
C  C2  1  0.38530000  0.55120000  0.35023000  1.0 -0.0509209285
C  C3  1  0.55670000  0.65500000  0.68470000  1.0 0.5766416838
C  C4  1  0.26500000  0.86110000  0.35980000  1.0 -0.0896261353
C  C5  1  0.23430000  0.87780000  0.32010000  1.0 0.5766416838
C  C6  1  0.52630000  0.68150000  0.64680000  1.0 -0.0599965422
C  C7  1  0.42800000  0.55980000  0.37720000  1.0 -0.0799834844
C  C8  1  0.47980000  0.66100000  0.62820000  1.0 -0.0799834844
C  C9  1  0.39590000  0.67880000  0.44000000  1.0 0.2894060046
C  C10  1  0.25630000  0.81580000  0.38240000  1.0 -0.0896261353
C  C11  1  0.30310000  0.88620000  0.37830000  1.0 -0.0799834844
C  C12  1  0.43270000  0.59910000  0.40960000  1.0 -0.1688002825
C  C13  1  0.46910000  0.72930000  0.57410000  1.0 0.0706193264
C  C14  1  0.28910000  0.79850000  0.41780000  1.0 -0.1579164236
C  C15  1  0.33180000  0.82320000  0.43250000  1.0 0.0706193264
C  C16  1  0.39240000  0.63280000  0.41100000  1.0 0.0324019519
C  C17  1  0.34410000  0.58330000  0.35540000  1.0 -0.1046026598
C  C18  1  0.54370000  0.72590000  0.62960000  1.0 -0.0896261353
C  C19  1  0.45310000  0.68480000  0.59100000  1.0 -0.1754274319
C  C20  1  0.38370000  0.75230000  0.46340000  1.0 0.0830577196
C  C21  1  0.51570000  0.74970000  0.59160000  1.0 -0.1688002825
C  C22  1  0.41480000  0.73000000  0.49740000  1.0 0.0603845002
C  C23  1  0.33690000  0.86780000  0.41510000  1.0 -0.1579164236
C  C24  1  0.34600000  0.62550000  0.38450000  1.0 -0.1290680402
C  C25  1  0.36750000  0.80200000  0.46790000  1.0 0.0324019519
C  C26  1  0.42250000  0.80450000  0.54040000  1.0 -0.1537096749
C  C27  1  0.39050000  0.82770000  0.50710000  1.0 -0.1688002825
C  C28  1  0.43470000  0.75490000  0.53860000  1.0 -0.0084258598
C  C29  1  0.87910000  0.99058000  0.68338000  1.0 0.5862263789
C  C30  1  0.88530000  0.94880000  0.64977000  1.0 -0.0509209285
C  C31  1  0.05670000  0.84500000  0.31530000  1.0 0.5766416838
C  C32  1  0.76500000  0.63890000  0.64020000  1.0 -0.0896261353
C  C33  1  0.73430000  0.62220000  0.67990000  1.0 0.5766416838
C  C34  1  0.02630000  0.81850000  0.35320000  1.0 -0.0599965422
C  C35  1  0.92800000  0.94020000  0.62280000  1.0 -0.0799834844
C  C36  1  0.97980000  0.83900000  0.37180000  1.0 -0.0799834844
C  C37  1  0.89590000  0.82120000  0.56000000  1.0 0.2894060046
C  C38  1  0.75630000  0.68420000  0.61760000  1.0 -0.0896261353
C  C39  1  0.80310000  0.61380000  0.62170000  1.0 -0.0799834844
C  C40  1  0.93270000  0.90090000  0.59040000  1.0 -0.1688002825
C  C41  1  0.96910000  0.77070000  0.42590000  1.0 0.0706193264
C  C42  1  0.78910000  0.70150000  0.58220000  1.0 -0.1579164236
C  C43  1  0.83180000  0.67680000  0.56750000  1.0 0.0706193264
C  C44  1  0.89240000  0.86720000  0.58900000  1.0 0.0324019519
C  C45  1  0.84410000  0.91670000  0.64460000  1.0 -0.1046026598
C  C46  1  0.04370000  0.77410000  0.37040000  1.0 -0.0896261353
C  C47  1  0.95310000  0.81520000  0.40900000  1.0 -0.1688002825
C  C48  1  0.88370000  0.74770000  0.53660000  1.0 0.0830577196
C  C49  1  0.01570000  0.75030000  0.40840000  1.0 -0.1688002825
C  C50  1  0.91480000  0.77000000  0.50260000  1.0 0.0603845002
C  C51  1  0.83690000  0.63220000  0.58490000  1.0 -0.1579164236
C  C52  1  0.84600000  0.87450000  0.61550000  1.0 -0.1290680402
C  C53  1  0.86750000  0.69800000  0.53210000  1.0 0.0350300645
C  C54  1  0.92250000  0.69550000  0.45960000  1.0 -0.1537096749
C  C55  1  0.89050000  0.67230000  0.49290000  1.0 -0.1688002825
C  C56  1  0.93470000  0.74510000  0.46140000  1.0 -0.0084258598
C  C57  1  0.62090000  0.49058000  0.81662000  1.0 0.5862263789
C  C58  1  0.61470000  0.44880000  0.85023000  1.0 -0.0509209285
C  C59  1  0.44330000  0.34500000  0.18470000  1.0 0.5766416838
C  C60  1  0.73500000  0.13890000  0.85980000  1.0 -0.0896261353
C  C61  1  0.76570000  0.12220000  0.82010000  1.0 0.5766416838
C  C62  1  0.47370000  0.31850000  0.14680000  1.0 -0.0599965422
C  C63  1  0.57200000  0.44020000  0.87720000  1.0 -0.0799834844
C  C64  1  0.52020000  0.33900000  0.12820000  1.0 -0.0896261353
C  C65  1  0.60410000  0.32120000  0.94000000  1.0 0.2894060046
C  C66  1  0.74370000  0.18420000  0.88240000  1.0 -0.0896261353
C  C67  1  0.69690000  0.11380000  0.87830000  1.0 -0.0799834844
C  C68  1  0.56730000  0.40090000  0.90960000  1.0 -0.1688002825
C  C69  1  0.53090000  0.27070000  0.07410000  1.0 0.0706193264
C  C70  1  0.71090000  0.20150000  0.91780000  1.0 -0.1579164236
C  C71  1  0.66820000  0.17680000  0.93250000  1.0 0.0706193264
C  C72  1  0.60760000  0.36720000  0.91100000  1.0 0.0350300645
C  C73  1  0.65590000  0.41670000  0.85540000  1.0 -0.1046026598
C  C74  1  0.45630000  0.27410000  0.12960000  1.0 -0.0896261353
C  C75  1  0.54690000  0.31520000  0.09100000  1.0 -0.1688002825
C  C76  1  0.61630000  0.24770000  0.96340000  1.0 0.0830577196
C  C77  1  0.48430000  0.25030000  0.09160000  1.0 -0.1688002825
C  C78  1  0.58520000  0.27000000  0.99740000  1.0 0.0603845002
C  C79  1  0.66310000  0.13220000  0.91510000  1.0 -0.1579164236
C  C80  1  0.65400000  0.37450000  0.88450000  1.0 -0.1290680402
C  C81  1  0.63250000  0.19800000  0.96790000  1.0 0.0350300645
C  C82  1  0.57750000  0.19550000  0.04040000  1.0 -0.1537096749
C  C83  1  0.60950000  0.17230000  0.00710000  1.0 -0.1688002825
C  C84  1  0.56530000  0.24510000  0.03860000  1.0 -0.0084258598
C  C85  1  0.12090000  0.00942000  0.18338000  1.0 0.5862263789
C  C86  1  0.11470000  0.05120000  0.14977000  1.0 -0.0509209285
C  C87  1  0.94330000  0.15500000  0.81530000  1.0 0.5766416838
C  C88  1  0.23500000  0.36110000  0.14020000  1.0 -0.0896261353
C  C89  1  0.26570000  0.37780000  0.17990000  1.0 0.5766416838
C  C90  1  0.97370000  0.18150000  0.85320000  1.0 -0.0599965422
C  C91  1  0.07200000  0.05980000  0.12280000  1.0 -0.0799834844
C  C92  1  0.02020000  0.16100000  0.87180000  1.0 -0.0799834844
C  C93  1  0.10410000  0.17880000  0.06000000  1.0 0.2894060046
C  C94  1  0.24370000  0.31580000  0.11760000  1.0 -0.0896261353
C  C95  1  0.19690000  0.38620000  0.12170000  1.0 -0.0799834844
C  C96  1  0.06730000  0.09910000  0.09040000  1.0 -0.1688002825
C  C97  1  0.03090000  0.22930000  0.92590000  1.0 0.0706193264
C  C98  1  0.21090000  0.29850000  0.08220000  1.0 -0.1579164236
C  C99  1  0.16820000  0.32320000  0.06750000  1.0 0.0706193264
C  C100  1  0.10760000  0.13280000  0.08900000  1.0 0.0324019519
C  C101  1  0.15590000  0.08330000  0.14460000  1.0 -0.1046026598
C  C102  1  0.95630000  0.22590000  0.87040000  1.0 -0.0896261353
C  C103  1  0.04690000  0.18480000  0.90900000  1.0 -0.1688002825
C  C104  1  0.11630000  0.25230000  0.03660000  1.0 0.0830577196
C  C105  1  0.98430000  0.24970000  0.90840000  1.0 -0.1688002825
C  C106  1  0.08520000  0.23000000  0.00260000  1.0 0.0603845002
C  C107  1  0.16310000  0.36780000  0.08490000  1.0 -0.1579164236
C  C108  1  0.15400000  0.12550000  0.11550000  1.0 -0.1290680402
C  C109  1  0.13250000  0.30200000  0.03210000  1.0 0.0350300645
C  C110  1  0.07750000  0.30450000  0.95960000  1.0 -0.1537096749
C  C111  1  0.10950000  0.32770000  0.99290000  1.0 -0.1688002825
C  C112  1  0.06530000  0.25490000  0.96140000  1.0 -0.0084258598
C  C113  1  0.62090000  0.49058000  0.68338000  1.0 0.5862263789
C  C114  1  0.61470000  0.44880000  0.64977000  1.0 -0.0509209285
C  C115  1  0.44330000  0.34500000  0.31530000  1.0 0.5766416838
C  C116  1  0.73500000  0.13890000  0.64020000  1.0 -0.0896261353
C  C117  1  0.76570000  0.12220000  0.67990000  1.0 0.5766416838
C  C118  1  0.47370000  0.31850000  0.35320000  1.0 -0.0599965422
C  C119  1  0.57200000  0.44020000  0.62280000  1.0 -0.0799834844
C  C120  1  0.52020000  0.33900000  0.37180000  1.0 -0.0799834844
C  C121  1  0.60410000  0.32120000  0.56000000  1.0 0.2894060046
C  C122  1  0.74370000  0.18420000  0.61760000  1.0 -0.0896261353
C  C123  1  0.69690000  0.11380000  0.62170000  1.0 -0.0799834844
C  C124  1  0.56730000  0.40090000  0.59040000  1.0 -0.1688002825
C  C125  1  0.53090000  0.27070000  0.42590000  1.0 0.0706193264
C  C126  1  0.71090000  0.20150000  0.58220000  1.0 -0.1579164236
C  C127  1  0.66820000  0.17680000  0.56750000  1.0 0.0706193264
C  C128  1  0.60760000  0.36720000  0.58900000  1.0 0.0324019519
C  C129  1  0.65590000  0.41670000  0.64460000  1.0 -0.1046026598
C  C130  1  0.45630000  0.27410000  0.37040000  1.0 -0.0896261353
C  C131  1  0.54690000  0.31520000  0.40900000  1.0 -0.1688002825
C  C132  1  0.61630000  0.24770000  0.53660000  1.0 0.0830577196
C  C133  1  0.48430000  0.25030000  0.40840000  1.0 -0.1688002825
C  C134  1  0.58520000  0.27000000  0.50260000  1.0 0.0603845002
C  C135  1  0.66310000  0.13220000  0.58490000  1.0 -0.1579164236
C  C136  1  0.65400000  0.37450000  0.61550000  1.0 -0.1290680402
C  C137  1  0.63250000  0.19800000  0.53210000  1.0 0.0350300645
C  C138  1  0.57750000  0.19550000  0.45960000  1.0 -0.1537096749
C  C139  1  0.60950000  0.17230000  0.49290000  1.0 -0.1688002825
C  C140  1  0.56530000  0.24510000  0.46140000  1.0 -0.0084258598
C  C141  1  0.12090000  0.00942000  0.31662000  1.0 0.5862263789
C  C142  1  0.11470000  0.05120000  0.35023000  1.0 -0.0509209285
C  C143  1  0.94330000  0.15500000  0.68470000  1.0 0.5766416838
C  C144  1  0.23500000  0.36110000  0.35980000  1.0 -0.0896261353
C  C145  1  0.26570000  0.37780000  0.32010000  1.0 0.5766416838
C  C146  1  0.97370000  0.18150000  0.64680000  1.0 -0.0599965422
C  C147  1  0.07200000  0.05980000  0.37720000  1.0 -0.0799834844
C  C148  1  0.02020000  0.16100000  0.62820000  1.0 -0.0799834844
C  C149  1  0.10410000  0.17880000  0.44000000  1.0 0.2894060046
C  C150  1  0.24370000  0.31580000  0.38240000  1.0 -0.0896261353
C  C151  1  0.19690000  0.38620000  0.37830000  1.0 -0.0799834844
C  C152  1  0.06730000  0.09910000  0.40960000  1.0 -0.1688002825
C  C153  1  0.03090000  0.22930000  0.57410000  1.0 0.0706193264
C  C154  1  0.21090000  0.29850000  0.41780000  1.0 -0.1579164236
C  C155  1  0.16820000  0.32320000  0.43250000  1.0 0.0706193264
C  C156  1  0.10760000  0.13280000  0.41100000  1.0 0.0324019519
C  C157  1  0.15590000  0.08330000  0.35540000  1.0 -0.1046026598
C  C158  1  0.95630000  0.22590000  0.62960000  1.0 -0.0896261353
C  C159  1  0.04690000  0.18480000  0.59100000  1.0 -0.1688002825
C  C160  1  0.11630000  0.25230000  0.46340000  1.0 0.0830577196
C  C161  1  0.98430000  0.24970000  0.59160000  1.0 -0.1688002825
C  C162  1  0.08520000  0.23000000  0.49740000  1.0 0.0603845002
C  C163  1  0.16310000  0.36780000  0.41510000  1.0 -0.1579164236
C  C164  1  0.15400000  0.12550000  0.38450000  1.0 -0.1290680402
C  C165  1  0.13250000  0.30200000  0.46790000  1.0 0.0350300645
C  C166  1  0.07750000  0.30450000  0.54040000  1.0 -0.1537096749
C  C167  1  0.10950000  0.32770000  0.50710000  1.0 -0.1688002825
C  C168  1  0.06530000  0.25490000  0.53860000  1.0 -0.0084258598
C  C169  1  0.37910000  0.50942000  0.18338000  1.0 0.5862263789
C  C170  1  0.38530000  0.55120000  0.14977000  1.0 -0.0509209285
C  C171  1  0.55670000  0.65500000  0.81530000  1.0 0.5766416838
C  C172  1  0.26500000  0.86110000  0.14020000  1.0 -0.0896261353
C  C173  1  0.23430000  0.87780000  0.17990000  1.0 0.5766416838
C  C174  1  0.52630000  0.68150000  0.85320000  1.0 -0.0599965422
C  C175  1  0.42800000  0.55980000  0.12280000  1.0 -0.0799834844
C  C176  1  0.47980000  0.66100000  0.87180000  1.0 -0.0799834844
C  C177  1  0.39590000  0.67880000  0.06000000  1.0 0.2894060046
C  C178  1  0.25630000  0.81580000  0.11760000  1.0 -0.0896261353
C  C179  1  0.30310000  0.88620000  0.12170000  1.0 -0.0799834844
C  C180  1  0.43270000  0.59910000  0.09040000  1.0 -0.1688002825
C  C181  1  0.46910000  0.72930000  0.92590000  1.0 0.0706193264
C  C182  1  0.28910000  0.79850000  0.08220000  1.0 -0.1579164236
C  C183  1  0.33180000  0.82320000  0.06750000  1.0 0.0706193264
C  C184  1  0.39240000  0.63280000  0.08900000  1.0 0.0324019519
C  C185  1  0.34410000  0.58330000  0.14460000  1.0 -0.1046026598
C  C186  1  0.54370000  0.72590000  0.87040000  1.0 -0.0896261353
C  C187  1  0.45310000  0.68480000  0.90900000  1.0 -0.1754274319
C  C188  1  0.38370000  0.75230000  0.03660000  1.0 0.0830577196
C  C189  1  0.51570000  0.74970000  0.90840000  1.0 -0.1688002825
C  C190  1  0.41480000  0.73000000  0.00260000  1.0 0.0603845002
C  C191  1  0.33690000  0.86780000  0.08490000  1.0 -0.1579164236
C  C192  1  0.34600000  0.62550000  0.11550000  1.0 -0.1290680402
C  C193  1  0.36750000  0.80200000  0.03210000  1.0 0.0324019519
C  C194  1  0.42250000  0.80450000  0.95960000  1.0 -0.1537096749
C  C195  1  0.39050000  0.82770000  0.99290000  1.0 -0.1688002825
C  C196  1  0.43470000  0.75490000  0.96140000  1.0 -0.0084258598
C  C197  1  0.87910000  0.99058000  0.81662000  1.0 0.5862263789
C  C198  1  0.88530000  0.94880000  0.85023000  1.0 -0.0509209285
C  C199  1  0.05670000  0.84500000  0.18470000  1.0 0.5766416838
C  C200  1  0.76500000  0.63890000  0.85980000  1.0 -0.0896261353
C  C201  1  0.73430000  0.62220000  0.82010000  1.0 0.5766416838
C  C202  1  0.02630000  0.81850000  0.14680000  1.0 -0.0599965422
C  C203  1  0.92800000  0.94020000  0.87720000  1.0 -0.0799834844
C  C204  1  0.97980000  0.83900000  0.12820000  1.0 -0.0799834844
C  C205  1  0.89590000  0.82120000  0.94000000  1.0 0.2894060046
C  C206  1  0.75630000  0.68420000  0.88240000  1.0 -0.0896261353
C  C207  1  0.80310000  0.61380000  0.87830000  1.0 -0.0799834844
C  C208  1  0.93270000  0.90090000  0.90960000  1.0 -0.1688002825
C  C209  1  0.96910000  0.77070000  0.07410000  1.0 0.0706193264
C  C210  1  0.78910000  0.70150000  0.91780000  1.0 -0.1579164236
C  C211  1  0.83180000  0.67680000  0.93250000  1.0 0.0706193264
C  C212  1  0.89240000  0.86720000  0.91100000  1.0 0.0324019519
C  C213  1  0.84410000  0.91670000  0.85540000  1.0 -0.1046026598
C  C214  1  0.04370000  0.77410000  0.12960000  1.0 -0.0896261353
C  C215  1  0.95310000  0.81520000  0.09100000  1.0 -0.1688002825
C  C216  1  0.88370000  0.74770000  0.96340000  1.0 0.0830577196
C  C217  1  0.01570000  0.75030000  0.09160000  1.0 -0.1688002825
C  C218  1  0.91480000  0.77000000  0.99740000  1.0 0.0603845002
C  C219  1  0.83690000  0.63220000  0.91510000  1.0 -0.1579164236
C  C220  1  0.84600000  0.87450000  0.88450000  1.0 -0.1290680402
C  C221  1  0.86750000  0.69800000  0.96790000  1.0 0.0350300645
C  C222  1  0.92250000  0.69550000  0.04040000  1.0 -0.1537096749
C  C223  1  0.89050000  0.67230000  0.00710000  1.0 -0.1688002825
C  C224  1  0.93470000  0.74510000  0.03860000  1.0 -0.0084258598
N  N1  1  0.42200000  0.68267000  0.48240000  1.0 -0.3009226273
N  N2  1  0.37100000  0.71842000  0.42840000  1.0 -0.3665852423
N  N3  1  0.92200000  0.81733000  0.51760000  1.0 -0.3009226273
N  N4  1  0.87100000  0.78158000  0.57160000  1.0 -0.3665852423
N  N5  1  0.57800000  0.31733000  0.98240000  1.0 -0.3009226273
N  N6  1  0.62900000  0.28158000  0.92840000  1.0 -0.3665852423
N  N7  1  0.07800000  0.18267000  0.01760000  1.0 -0.3009226273
N  N8  1  0.12900000  0.21842000  0.07160000  1.0 -0.3665852423
N  N9  1  0.57800000  0.31733000  0.51760000  1.0 -0.3009226273
N  N10  1  0.62900000  0.28158000  0.57160000  1.0 -0.3665852423
N  N11  1  0.07800000  0.18267000  0.48240000  1.0 -0.3009226273
N  N12  1  0.12900000  0.21842000  0.42840000  1.0 -0.3665852423
N  N13  1  0.42200000  0.68267000  0.01760000  1.0 -0.3009226273
N  N14  1  0.37100000  0.71842000  0.07160000  1.0 -0.3665852423
N  N15  1  0.92200000  0.81733000  0.98240000  1.0 -0.3009226273
N  N16  1  0.87100000  0.78158000  0.92840000  1.0 -0.3665852423
O  O1  1  0.54051000  0.61225000  0.69722000  1.0 -0.5522968571
O  O2  1  0.33452000  0.49907000  0.30154000  1.0 -0.5364406059
O  O3  1  0.42016000  0.48764000  0.30408000  1.0 -0.5295136372
O  O4  1  0.23616000  0.92023000  0.30332000  1.0 -0.5295136372
O  O5  1  0.59650000  0.67606000  0.69994000  1.0 -0.507625098
O  O6  1  0.20276000  0.84543000  0.30227000  1.0 -0.5203414093
O  O7  1  0.04051000  0.88775000  0.30278000  1.0 -0.5522968571
O  O8  1  0.83452000  0.00093000  0.69846000  1.0 -0.5364406059
O  O9  1  0.92016000  0.01236000  0.69592000  1.0 -0.5295136372
O  O10  1  0.73616000  0.57977000  0.69668000  1.0 -0.5295136372
O  O11  1  0.09650000  0.82394000  0.30006000  1.0 -0.507625098
O  O12  1  0.70276000  0.65457000  0.69773000  1.0 -0.5203414093
O  O13  1  0.45949000  0.38775000  0.19722000  1.0 -0.5522968571
O  O14  1  0.66548000  0.50093000  0.80154000  1.0 -0.5364406059
O  O15  1  0.57984000  0.51236000  0.80408000  1.0 -0.5295136372
O  O16  1  0.76384000  0.07977000  0.80332000  1.0 -0.5295136372
O  O17  1  0.40350000  0.32394000  0.19994000  1.0 -0.507625098
O  O18  1  0.79724000  0.15457000  0.80227000  1.0 -0.5203414093
O  O19  1  0.95949000  0.11225000  0.80278000  1.0 -0.5522968571
O  O20  1  0.16548000  0.99907000  0.19846000  1.0 -0.5364406059
O  O21  1  0.07984000  0.98764000  0.19592000  1.0 -0.5295136372
O  O22  1  0.26384000  0.42023000  0.19668000  1.0 -0.5295136372
O  O23  1  0.90350000  0.17606000  0.80006000  1.0 -0.5049086462
O  O24  1  0.29724000  0.34543000  0.19773000  1.0 -0.5203414093
O  O25  1  0.45949000  0.38775000  0.30278000  1.0 -0.5522968571
O  O26  1  0.66548000  0.50093000  0.69846000  1.0 -0.5364406059
O  O27  1  0.57984000  0.51236000  0.69592000  1.0 -0.5295136372
O  O28  1  0.76384000  0.07977000  0.69668000  1.0 -0.5295136372
O  O29  1  0.40350000  0.32394000  0.30006000  1.0 -0.507625098
O  O30  1  0.79724000  0.15457000  0.69773000  1.0 -0.5203414093
O  O31  1  0.95949000  0.11225000  0.69722000  1.0 -0.5522968571
O  O32  1  0.16548000  0.99907000  0.30154000  1.0 -0.5364406059
O  O33  1  0.07984000  0.98764000  0.30408000  1.0 -0.5295136372
O  O34  1  0.26384000  0.42023000  0.30332000  1.0 -0.5295136372
O  O35  1  0.90350000  0.17606000  0.69994000  1.0 -0.5049086462
O  O36  1  0.29724000  0.34543000  0.30227000  1.0 -0.5203414093
O  O37  1  0.54051000  0.61225000  0.80278000  1.0 -0.5522968571
O  O38  1  0.33452000  0.49907000  0.19846000  1.0 -0.5364406059
O  O39  1  0.42016000  0.48764000  0.19592000  1.0 -0.5295136372
O  O40  1  0.23616000  0.92023000  0.19668000  1.0 -0.5295136372
O  O41  1  0.59650000  0.67606000  0.80006000  1.0 -0.507625098
O  O42  1  0.20276000  0.84543000  0.19773000  1.0 -0.5203414093
O  O43  1  0.04051000  0.88775000  0.19722000  1.0 -0.5522968571
O  O44  1  0.83452000  0.00093000  0.80154000  1.0 -0.5364406059
O  O45  1  0.92016000  0.01236000  0.80408000  1.0 -0.5295136372
O  O46  1  0.73616000  0.57977000  0.80332000  1.0 -0.5295136372
O  O47  1  0.09650000  0.82394000  0.19994000  1.0 -0.507625098
O  O48  1  0.70276000  0.65457000  0.80227000  1.0 -0.5203414093
O  O49  1  0.63657000  0.58904000  0.75000000  1.0 -0.9216459642
O  O50  1  0.75760000  0.49640000  0.75000000  1.0 -0.5203414093
O  O51  1  0.66370000  0.73390000  0.75000000  1.0 0.0241732517
O  O52  1  0.48860000  0.53760000  0.75000000  1.0 -0.1189393948
O  O53  1  0.13657000  0.91096000  0.25000000  1.0 -0.9216459642
O  O54  1  0.25760000  0.00360000  0.25000000  1.0 -0.507625098
O  O55  1  0.16370000  0.76610000  0.25000000  1.0 0.0324019519
O  O56  1  0.98860000  0.96240000  0.25000000  1.0 -0.1130677934
O  O57  1  0.36343000  0.41096000  0.25000000  1.0 -0.9216459642
O  O58  1  0.24240000  0.50360000  0.25000000  1.0 -0.507625098
O  O59  1  0.33630000  0.26610000  0.25000000  1.0 0.0324019519
O  O60  1  0.51140000  0.46240000  0.25000000  1.0 -0.1130677934
O  O61  1  0.86343000  0.08904000  0.75000000  1.0 -0.9216459642
O  O62  1  0.74240000  0.99640000  0.75000000  1.0 -0.5203414093
O  O63  1  0.83630000  0.23390000  0.75000000  1.0 0.0324019519
O  O64  1  0.01140000  0.03760000  0.75000000  1.0 -0.1290680402
