# DDEC6 charges by PACMAN v1.1 (https://github.com/mtap-research/PACMAN-charge/)
data_POBVIN_ASR_pacman
_symmetry_space_group_name_H-M   'P 1'
_cell_length_a   30.89020000
_cell_length_b   30.89020000
_cell_length_c   30.89020000
_cell_angle_alpha   120.92200000
_cell_angle_beta   120.92200000
_cell_angle_gamma   88.41090000
_symmetry_Int_Tables_number   1
_chemical_formula_structural   MnZn4H20C52N4(ClO8)2
_chemical_formula_sum   'Mn8 Zn32 H160 C416 N32 Cl16 O128'
_cell_volume   20543.23314976
_cell_formula_units_Z   8
loop_
 _symmetry_equiv_pos_site_id
 _symmetry_equiv_pos_as_xyz
  1  'x, y, z'
loop_
 _atom_site_type_symbol
 _atom_site_label
 _atom_site_symmetry_multiplicity
 _atom_site_fract_x
 _atom_site_fract_y
 _atom_site_fract_z
 _atom_site_occupancy
 _atom_site_charge
Mn  Mn1  1  0.26769000  0.76769000  0.03538000  1.0 0.7479293249
Mn  Mn2  1  0.73231000  0.23231000  0.96462000  1.0 0.7479293249
Mn  Mn3  1  0.76769000  0.73231000  0.50000000  1.0 0.7479293249
Mn  Mn4  1  0.23231000  0.26769000  0.50000000  1.0 0.7479293249
Mn  Mn5  1  0.50000000  0.00000000  0.50000000  1.0 0.4820841453
Mn  Mn6  1  0.00000000  0.50000000  0.50000000  1.0 0.4820841453
Mn  Mn7  1  0.75000000  0.25000000  0.50000000  1.0 0.7770114146
Mn  Mn8  1  0.25000000  0.75000000  0.50000000  1.0 0.7770114146
Zn  Zn1  1  0.37484000  0.15171000  0.26645000  1.0 0.935477992
Zn  Zn2  1  0.88526000  0.10839000  0.73355000  1.0 0.9347261987
Zn  Zn3  1  0.15171000  0.88526000  0.77687000  1.0 0.9347261987
Zn  Zn4  1  0.10839000  0.37484000  0.22313000  1.0 0.935477992
Zn  Zn5  1  0.61474000  0.34829000  0.22313000  1.0 0.935477992
Zn  Zn6  1  0.12516000  0.39161000  0.77687000  1.0 0.9347261987
Zn  Zn7  1  0.39161000  0.61474000  0.26645000  1.0 0.935477992
Zn  Zn8  1  0.34829000  0.12516000  0.73355000  1.0 0.9347261987
Zn  Zn9  1  0.62516000  0.84829000  0.73355000  1.0 0.9347261987
Zn  Zn10  1  0.11474000  0.89161000  0.26645000  1.0 0.935477992
Zn  Zn11  1  0.84829000  0.11474000  0.22313000  1.0 0.9347261987
Zn  Zn12  1  0.89161000  0.62516000  0.77687000  1.0 0.9347261987
Zn  Zn13  1  0.38526000  0.65171000  0.77687000  1.0 0.9347261987
Zn  Zn14  1  0.87484000  0.60839000  0.22313000  1.0 0.9347261987
Zn  Zn15  1  0.60839000  0.38526000  0.73355000  1.0 0.9347261987
Zn  Zn16  1  0.65171000  0.87484000  0.26645000  1.0 0.9347261987
Zn  Zn17  1  0.32395000  0.18569000  0.16336000  1.0 1.1016275636
Zn  Zn18  1  0.02233000  0.16059000  0.83664000  1.0 1.1016275636
Zn  Zn19  1  0.18569000  0.02233000  0.86174000  1.0 1.1016275636
Zn  Zn20  1  0.16059000  0.32395000  0.13826000  1.0 1.1016275636
Zn  Zn21  1  0.47767000  0.31431000  0.13826000  1.0 1.1016275636
Zn  Zn22  1  0.17605000  0.33941000  0.86174000  1.0 1.1016275636
Zn  Zn23  1  0.33941000  0.47767000  0.16336000  1.0 1.1016275636
Zn  Zn24  1  0.31431000  0.17605000  0.83664000  1.0 1.1016275636
Zn  Zn25  1  0.67605000  0.81431000  0.83664000  1.0 1.1016275636
Zn  Zn26  1  0.97767000  0.83941000  0.16336000  1.0 1.1016275636
Zn  Zn27  1  0.81431000  0.97767000  0.13826000  1.0 1.1016275636
Zn  Zn28  1  0.83941000  0.67605000  0.86174000  1.0 1.1016275636
Zn  Zn29  1  0.52233000  0.68569000  0.86174000  1.0 1.1016275636
Zn  Zn30  1  0.82395000  0.66059000  0.13826000  1.0 1.1016275636
Zn  Zn31  1  0.66059000  0.52233000  0.83664000  1.0 1.1016275636
Zn  Zn32  1  0.68569000  0.82395000  0.16336000  1.0 1.1016275636
H  H1  1  0.34940000  0.90580000  0.02960000  1.0 0.1278068294
H  H2  1  0.87620000  0.31980000  0.97040000  1.0 0.1278068294
H  H3  1  0.90580000  0.87620000  0.55640000  1.0 0.1278068294
H  H4  1  0.31980000  0.34940000  0.44360000  1.0 0.1278068294
H  H5  1  0.62380000  0.59420000  0.44360000  1.0 0.1278068294
H  H6  1  0.15060000  0.18020000  0.55640000  1.0 0.1278068294
H  H7  1  0.18020000  0.62380000  0.02960000  1.0 0.1278068294
H  H8  1  0.59420000  0.15060000  0.97040000  1.0 0.1278068294
H  H9  1  0.65060000  0.09420000  0.97040000  1.0 0.1278068294
H  H10  1  0.12380000  0.68020000  0.02960000  1.0 0.1278068294
H  H11  1  0.09420000  0.12380000  0.44360000  1.0 0.1278068294
H  H12  1  0.68020000  0.65060000  0.55640000  1.0 0.1278068294
H  H13  1  0.37620000  0.40580000  0.55640000  1.0 0.1278068294
H  H14  1  0.84940000  0.81980000  0.44360000  1.0 0.1278068294
H  H15  1  0.81980000  0.37620000  0.97040000  1.0 0.1278068294
H  H16  1  0.40580000  0.84940000  0.02960000  1.0 0.1278068294
H  H17  1  0.17630000  0.90740000  0.02590000  1.0 0.1278068294
H  H18  1  0.88150000  0.15040000  0.97410000  1.0 0.1278068294
H  H19  1  0.90740000  0.88150000  0.73110000  1.0 0.1278068294
H  H20  1  0.15040000  0.17630000  0.26890000  1.0 0.1278068294
H  H21  1  0.61850000  0.59260000  0.26890000  1.0 0.1278068294
H  H22  1  0.32370000  0.34960000  0.73110000  1.0 0.1278068294
H  H23  1  0.34960000  0.61850000  0.02590000  1.0 0.1278068294
H  H24  1  0.59260000  0.32370000  0.97410000  1.0 0.1278068294
H  H25  1  0.82370000  0.09260000  0.97410000  1.0 0.1278068294
H  H26  1  0.11850000  0.84960000  0.02590000  1.0 0.1278068294
H  H27  1  0.09260000  0.11850000  0.26890000  1.0 0.1278068294
H  H28  1  0.84960000  0.82370000  0.73110000  1.0 0.1278068294
H  H29  1  0.38150000  0.40740000  0.73110000  1.0 0.1278068294
H  H30  1  0.67630000  0.65040000  0.26890000  1.0 0.1278068294
H  H31  1  0.65040000  0.38150000  0.97410000  1.0 0.1278068294
H  H32  1  0.40740000  0.67630000  0.02590000  1.0 0.1278068294
H  H33  1  0.26100000  0.04130000  0.02450000  1.0 0.1278068294
H  H34  1  0.01680000  0.23650000  0.97550000  1.0 0.1278068294
H  H35  1  0.04130000  0.01680000  0.78030000  1.0 0.1278068294
H  H36  1  0.23650000  0.26100000  0.21970000  1.0 0.1278068294
H  H37  1  0.48320000  0.45870000  0.21970000  1.0 0.1278068294
H  H38  1  0.23900000  0.26350000  0.78030000  1.0 0.1278068294
H  H39  1  0.26350000  0.48320000  0.02450000  1.0 0.1278068294
H  H40  1  0.45870000  0.23900000  0.97550000  1.0 0.1278068294
H  H41  1  0.73900000  0.95870000  0.97550000  1.0 0.1278068294
H  H42  1  0.98320000  0.76350000  0.02450000  1.0 0.1278068294
H  H43  1  0.95870000  0.98320000  0.21970000  1.0 0.1278068294
H  H44  1  0.76350000  0.73900000  0.78030000  1.0 0.1278068294
H  H45  1  0.51680000  0.54130000  0.78030000  1.0 0.1278068294
H  H46  1  0.76100000  0.73650000  0.21970000  1.0 0.1278068294
H  H47  1  0.73650000  0.51680000  0.97550000  1.0 0.1278068294
H  H48  1  0.54130000  0.76100000  0.02450000  1.0 0.1278068294
H  H49  1  0.22600000  0.88450000  0.93590000  1.0 0.1393562979
H  H50  1  0.94860000  0.29010000  0.06410000  1.0 0.1393562979
H  H51  1  0.88450000  0.94860000  0.65850000  1.0 0.1393562979
H  H52  1  0.29010000  0.22600000  0.34150000  1.0 0.1393562979
H  H53  1  0.55140000  0.61550000  0.34150000  1.0 0.1393562979
H  H54  1  0.27400000  0.20990000  0.65850000  1.0 0.1393562979
H  H55  1  0.20990000  0.55140000  0.93590000  1.0 0.1393562979
H  H56  1  0.61550000  0.27400000  0.06410000  1.0 0.1393562979
H  H57  1  0.77400000  0.11550000  0.06410000  1.0 0.1393562979
H  H58  1  0.05140000  0.70990000  0.93590000  1.0 0.1393562979
H  H59  1  0.11550000  0.05140000  0.34150000  1.0 0.1393562979
H  H60  1  0.70990000  0.77400000  0.65850000  1.0 0.1393562979
H  H61  1  0.44860000  0.38450000  0.65850000  1.0 0.1393562979
H  H62  1  0.72600000  0.79010000  0.34150000  1.0 0.1393562979
H  H63  1  0.79010000  0.44860000  0.06410000  1.0 0.1393562979
H  H64  1  0.38450000  0.72600000  0.93590000  1.0 0.1393562979
H  H65  1  0.30570000  0.98040000  0.12070000  1.0 0.1278068294
H  H66  1  0.85970000  0.18500000  0.87930000  1.0 0.1278068294
H  H67  1  0.98040000  0.85970000  0.67470000  1.0 0.1278068294
H  H68  1  0.18500000  0.30570000  0.32530000  1.0 0.1278068294
H  H69  1  0.64030000  0.51960000  0.32530000  1.0 0.1278068294
H  H70  1  0.19430000  0.31500000  0.67470000  1.0 0.1278068294
H  H71  1  0.31500000  0.64030000  0.12070000  1.0 0.1278068294
H  H72  1  0.51960000  0.19430000  0.87930000  1.0 0.1278068294
H  H73  1  0.69430000  0.01960000  0.87930000  1.0 0.1278068294
H  H74  1  0.14030000  0.81500000  0.12070000  1.0 0.1278068294
H  H75  1  0.01960000  0.14030000  0.32530000  1.0 0.1278068294
H  H76  1  0.81500000  0.69430000  0.67470000  1.0 0.1278068294
H  H77  1  0.35970000  0.48040000  0.67470000  1.0 0.1278068294
H  H78  1  0.80570000  0.68500000  0.32530000  1.0 0.1278068294
H  H79  1  0.68500000  0.35970000  0.87930000  1.0 0.1278068294
H  H80  1  0.48040000  0.80570000  0.12070000  1.0 0.1278068294
H  H81  1  0.41110000  0.14250000  0.50000000  1.0 0.1393562979
H  H82  1  0.64250000  0.91110000  0.50000000  1.0 0.1393562979
H  H83  1  0.14250000  0.64250000  0.73140000  1.0 0.1393562979
H  H84  1  0.91110000  0.41110000  0.26860000  1.0 0.1393562979
H  H85  1  0.85750000  0.35750000  0.26860000  1.0 0.1393562979
H  H86  1  0.08890000  0.58890000  0.73140000  1.0 0.1393562979
H  H87  1  0.58890000  0.85750000  0.50000000  1.0 0.1393562979
H  H88  1  0.35750000  0.08890000  0.50000000  1.0 0.1393562979
H  H89  1  0.58120000  0.13840000  0.50000000  1.0 0.1278068294
H  H90  1  0.63840000  0.08120000  0.50000000  1.0 0.1278068294
H  H91  1  0.13840000  0.63840000  0.55720000  1.0 0.1278068294
H  H92  1  0.08120000  0.58120000  0.44280000  1.0 0.1278068294
H  H93  1  0.86160000  0.36160000  0.44280000  1.0 0.1278068294
H  H94  1  0.91880000  0.41880000  0.55720000  1.0 0.1278068294
H  H95  1  0.41880000  0.86160000  0.50000000  1.0 0.1278068294
H  H96  1  0.36160000  0.91880000  0.50000000  1.0 0.1278068294
H  H97  1  0.50500000  0.27920000  0.50000000  1.0 0.1517075408
H  H98  1  0.77920000  0.00500000  0.50000000  1.0 0.1517075408
H  H99  1  0.27920000  0.77920000  0.77420000  1.0 0.1517075408
H  H100  1  0.00500000  0.50500000  0.22580000  1.0 0.1517075408
H  H101  1  0.72080000  0.22080000  0.22580000  1.0 0.1517075408
H  H102  1  0.99500000  0.49500000  0.77420000  1.0 0.1517075408
H  H103  1  0.49500000  0.72080000  0.50000000  1.0 0.1517075408
H  H104  1  0.22080000  0.99500000  0.50000000  1.0 0.1517075408
H  H105  1  0.45460000  0.12510000  0.40830000  1.0 0.1393562979
H  H106  1  0.71680000  0.04630000  0.59170000  1.0 0.1393562979
H  H107  1  0.12510000  0.71680000  0.67050000  1.0 0.1393562979
H  H108  1  0.04630000  0.45460000  0.32950000  1.0 0.1393562979
H  H109  1  0.78320000  0.37490000  0.32950000  1.0 0.1393562979
H  H110  1  0.04540000  0.45370000  0.67050000  1.0 0.1393562979
H  H111  1  0.45370000  0.78320000  0.40830000  1.0 0.1393562979
H  H112  1  0.37490000  0.04540000  0.59170000  1.0 0.1393562979
H  H113  1  0.54540000  0.87490000  0.59170000  1.0 0.1393562979
H  H114  1  0.28320000  0.95370000  0.40830000  1.0 0.1393562979
H  H115  1  0.87490000  0.28320000  0.32950000  1.0 0.1393562979
H  H116  1  0.95370000  0.54540000  0.67050000  1.0 0.1393562979
H  H117  1  0.21680000  0.62510000  0.67050000  1.0 0.1393562979
H  H118  1  0.95460000  0.54630000  0.32950000  1.0 0.1393562979
H  H119  1  0.54630000  0.21680000  0.59170000  1.0 0.1393562979
H  H120  1  0.62510000  0.95460000  0.40830000  1.0 0.1393562979
H  H121  1  0.61050000  0.33950000  0.44340000  1.0 0.1278068294
H  H122  1  0.89610000  0.16710000  0.55660000  1.0 0.1278068294
H  H123  1  0.33950000  0.89610000  0.72900000  1.0 0.1278068294
H  H124  1  0.16710000  0.61050000  0.27100000  1.0 0.1278068294
H  H125  1  0.60390000  0.16050000  0.27100000  1.0 0.1278068294
H  H126  1  0.88950000  0.33290000  0.72900000  1.0 0.1278068294
H  H127  1  0.33290000  0.60390000  0.44340000  1.0 0.1278068294
H  H128  1  0.16050000  0.88950000  0.55660000  1.0 0.1278068294
H  H129  1  0.38950000  0.66050000  0.55660000  1.0 0.1278068294
H  H130  1  0.10390000  0.83290000  0.44340000  1.0 0.1278068294
H  H131  1  0.66050000  0.10390000  0.27100000  1.0 0.1278068294
H  H132  1  0.83290000  0.38950000  0.72900000  1.0 0.1278068294
H  H133  1  0.39610000  0.83950000  0.72900000  1.0 0.1278068294
H  H134  1  0.11050000  0.66710000  0.27100000  1.0 0.1278068294
H  H135  1  0.66710000  0.39610000  0.55660000  1.0 0.1278068294
H  H136  1  0.83950000  0.11050000  0.44340000  1.0 0.1278068294
H  H137  1  0.46470000  0.25000000  0.21470000  1.0 0.1393562979
H  H138  1  0.03530000  0.25000000  0.78530000  1.0 0.1393562979
H  H139  1  0.25000000  0.03530000  0.78530000  1.0 0.1393562979
H  H140  1  0.25000000  0.46470000  0.21470000  1.0 0.1393562979
H  H141  1  0.53530000  0.75000000  0.78530000  1.0 0.1393562979
H  H142  1  0.96470000  0.75000000  0.21470000  1.0 0.1393562979
H  H143  1  0.75000000  0.96470000  0.21470000  1.0 0.1393562979
H  H144  1  0.75000000  0.53530000  0.78530000  1.0 0.1393562979
H  H145  1  0.53660000  0.21140000  0.33200000  1.0 0.1393562979
H  H146  1  0.87940000  0.20460000  0.66800000  1.0 0.1393562979
H  H147  1  0.21140000  0.87940000  0.67480000  1.0 0.1393562979
H  H148  1  0.20460000  0.53660000  0.32520000  1.0 0.1393562979
H  H149  1  0.62060000  0.28860000  0.32520000  1.0 0.1393562979
H  H150  1  0.96340000  0.29540000  0.67480000  1.0 0.1393562979
H  H151  1  0.29540000  0.62060000  0.33200000  1.0 0.1393562979
H  H152  1  0.28860000  0.96340000  0.66800000  1.0 0.1393562979
H  H153  1  0.46340000  0.78860000  0.66800000  1.0 0.1393562979
H  H154  1  0.12060000  0.79540000  0.33200000  1.0 0.1393562979
H  H155  1  0.78860000  0.12060000  0.32520000  1.0 0.1393562979
H  H156  1  0.79540000  0.46340000  0.67480000  1.0 0.1393562979
H  H157  1  0.37940000  0.71140000  0.67480000  1.0 0.1393562979
H  H158  1  0.03660000  0.70460000  0.32520000  1.0 0.1393562979
H  H159  1  0.70460000  0.37940000  0.66800000  1.0 0.1393562979
H  H160  1  0.71140000  0.03660000  0.33200000  1.0 0.1393562979
C  C1  1  0.34600000  0.87640000  0.03040000  1.0 -0.167853874
C  C2  1  0.84600000  0.31560000  0.96960000  1.0 -0.167853874
C  C3  1  0.87640000  0.84600000  0.53040000  1.0 -0.167853874
C  C4  1  0.31560000  0.34600000  0.46960000  1.0 -0.167853874
C  C5  1  0.65400000  0.62360000  0.46960000  1.0 -0.167853874
C  C6  1  0.15400000  0.18440000  0.53040000  1.0 -0.167853874
C  C7  1  0.18440000  0.65400000  0.03040000  1.0 -0.167853874
C  C8  1  0.62360000  0.15400000  0.96960000  1.0 -0.167853874
C  C9  1  0.65400000  0.12360000  0.96960000  1.0 -0.167853874
C  C10  1  0.15400000  0.68440000  0.03040000  1.0 -0.167853874
C  C11  1  0.12360000  0.15400000  0.46960000  1.0 -0.167853874
C  C12  1  0.68440000  0.65400000  0.53040000  1.0 -0.167853874
C  C13  1  0.34600000  0.37640000  0.53040000  1.0 -0.167853874
C  C14  1  0.84600000  0.81560000  0.46960000  1.0 -0.167853874
C  C15  1  0.81560000  0.34600000  0.96960000  1.0 -0.167853874
C  C16  1  0.37640000  0.84600000  0.03040000  1.0 -0.167853874
C  C17  1  0.30970000  0.85710000  0.03160000  1.0 0.1278068294
C  C18  1  0.82550000  0.27810000  0.96840000  1.0 0.1278068294
C  C19  1  0.85710000  0.82550000  0.54740000  1.0 0.1278068294
C  C20  1  0.27810000  0.30970000  0.45260000  1.0 0.1278068294
C  C21  1  0.67450000  0.64290000  0.45260000  1.0 0.1278068294
C  C22  1  0.19030000  0.22190000  0.54740000  1.0 0.1278068294
C  C23  1  0.22190000  0.67450000  0.03160000  1.0 0.1278068294
C  C24  1  0.64290000  0.19030000  0.96840000  1.0 0.1278068294
C  C25  1  0.69030000  0.14290000  0.96840000  1.0 0.1278068294
C  C26  1  0.17450000  0.72190000  0.03160000  1.0 0.1278068294
C  C27  1  0.14290000  0.17450000  0.45260000  1.0 0.1278068294
C  C28  1  0.72190000  0.69030000  0.54740000  1.0 0.1278068294
C  C29  1  0.32550000  0.35710000  0.54740000  1.0 0.1278068294
C  C30  1  0.80970000  0.77810000  0.45260000  1.0 0.1278068294
C  C31  1  0.77810000  0.32550000  0.96840000  1.0 0.1278068294
C  C32  1  0.35710000  0.80970000  0.03160000  1.0 0.1278068294
C  C33  1  0.26040000  0.87590000  0.03310000  1.0 0.0584318138
C  C34  1  0.84280000  0.22730000  0.96690000  1.0 0.0584318138
C  C35  1  0.87590000  0.84280000  0.61550000  1.0 0.0584318138
C  C36  1  0.22730000  0.26040000  0.38450000  1.0 0.0584318138
C  C37  1  0.65720000  0.62410000  0.38450000  1.0 0.0584318138
C  C38  1  0.23960000  0.27270000  0.61550000  1.0 0.0584318138
C  C39  1  0.27270000  0.65720000  0.03310000  1.0 0.0584318138
C  C40  1  0.62410000  0.23960000  0.96690000  1.0 0.0584318138
C  C41  1  0.73960000  0.12410000  0.96690000  1.0 0.0584318138
C  C42  1  0.15720000  0.77270000  0.03310000  1.0 0.0584318138
C  C43  1  0.12410000  0.15720000  0.38450000  1.0 0.0584318138
C  C44  1  0.77270000  0.73960000  0.61550000  1.0 0.0584318138
C  C45  1  0.34280000  0.37590000  0.61550000  1.0 0.0584318138
C  C46  1  0.76040000  0.72730000  0.38450000  1.0 0.0584318138
C  C47  1  0.72730000  0.34280000  0.96690000  1.0 0.0584318138
C  C48  1  0.37590000  0.76040000  0.03310000  1.0 0.0584318138
C  C49  1  0.21500000  0.85230000  0.02810000  1.0 0.1716736929
C  C50  1  0.82420000  0.18690000  0.97190000  1.0 0.1716736929
C  C51  1  0.85230000  0.82420000  0.63730000  1.0 0.1716736929
C  C52  1  0.18690000  0.21500000  0.36270000  1.0 0.1716736929
C  C53  1  0.67580000  0.64770000  0.36270000  1.0 0.1716736929
C  C54  1  0.28500000  0.31310000  0.63730000  1.0 0.1716736929
C  C55  1  0.31310000  0.67580000  0.02810000  1.0 0.1716736929
C  C56  1  0.64770000  0.28500000  0.97190000  1.0 0.1716736929
C  C57  1  0.78500000  0.14770000  0.97190000  1.0 0.1716736929
C  C58  1  0.17580000  0.81310000  0.02810000  1.0 0.1716736929
C  C59  1  0.14770000  0.17580000  0.36270000  1.0 0.1716736929
C  C60  1  0.81310000  0.78500000  0.63730000  1.0 0.1716736929
C  C61  1  0.32420000  0.35230000  0.63730000  1.0 0.1716736929
C  C62  1  0.71500000  0.68690000  0.36270000  1.0 0.1716736929
C  C63  1  0.68690000  0.32420000  0.97190000  1.0 0.1716736929
C  C64  1  0.35230000  0.71500000  0.02810000  1.0 0.1716736929
C  C65  1  0.17940000  0.87770000  0.02670000  1.0 -0.167853874
C  C66  1  0.85100000  0.15270000  0.97330000  1.0 -0.167853874
C  C67  1  0.87770000  0.85100000  0.69830000  1.0 -0.167853874
C  C68  1  0.15270000  0.17940000  0.30170000  1.0 -0.167853874
C  C69  1  0.64900000  0.62230000  0.30170000  1.0 -0.167853874
C  C70  1  0.32060000  0.34730000  0.69830000  1.0 -0.167853874
C  C71  1  0.34730000  0.64900000  0.02670000  1.0 -0.167853874
C  C72  1  0.62230000  0.32060000  0.97330000  1.0 -0.167853874
C  C73  1  0.82060000  0.12230000  0.97330000  1.0 -0.167853874
C  C74  1  0.14900000  0.84730000  0.02670000  1.0 -0.167853874
C  C75  1  0.12230000  0.14900000  0.30170000  1.0 -0.167853874
C  C76  1  0.84730000  0.82060000  0.69830000  1.0 -0.167853874
C  C77  1  0.35100000  0.37770000  0.69830000  1.0 -0.167853874
C  C78  1  0.67940000  0.65270000  0.30170000  1.0 -0.167853874
C  C79  1  0.65270000  0.35100000  0.97330000  1.0 -0.167853874
C  C80  1  0.37770000  0.67940000  0.02670000  1.0 -0.167853874
C  C81  1  0.31380000  0.07210000  0.14470000  1.0 0.5680528335
C  C82  1  0.92740000  0.16910000  0.85530000  1.0 0.5680528335
C  C83  1  0.07210000  0.92740000  0.75830000  1.0 0.5680528335
C  C84  1  0.16910000  0.31380000  0.24170000  1.0 0.5680528335
C  C85  1  0.57260000  0.42790000  0.24170000  1.0 0.5680528335
C  C86  1  0.18620000  0.33090000  0.75830000  1.0 0.5680528335
C  C87  1  0.33090000  0.57260000  0.14470000  1.0 0.5680528335
C  C88  1  0.42790000  0.18620000  0.85530000  1.0 0.5680528335
C  C89  1  0.68620000  0.92790000  0.85530000  1.0 0.5680528335
C  C90  1  0.07260000  0.83090000  0.14470000  1.0 0.5680528335
C  C91  1  0.92790000  0.07260000  0.24170000  1.0 0.5680528335
C  C92  1  0.83090000  0.68620000  0.75830000  1.0 0.5680528335
C  C93  1  0.42740000  0.57210000  0.75830000  1.0 0.5680528335
C  C94  1  0.81380000  0.66910000  0.24170000  1.0 0.5680528335
C  C95  1  0.66910000  0.42740000  0.85530000  1.0 0.5680528335
C  C96  1  0.57210000  0.81380000  0.14470000  1.0 0.5680528335
C  C97  1  0.28440000  0.02280000  0.08380000  1.0 -0.0627855649
C  C98  1  0.93900000  0.20060000  0.91620000  1.0 -0.0627855649
C  C99  1  0.02280000  0.93900000  0.73840000  1.0 -0.0627855649
C  C100  1  0.20060000  0.28440000  0.26160000  1.0 -0.0627855649
C  C101  1  0.56100000  0.47720000  0.26160000  1.0 -0.0627855649
C  C102  1  0.21560000  0.29940000  0.73840000  1.0 -0.0627855649
C  C103  1  0.29940000  0.56100000  0.08380000  1.0 -0.0627855649
C  C104  1  0.47720000  0.21560000  0.91620000  1.0 -0.0627855649
C  C105  1  0.71560000  0.97720000  0.91620000  1.0 -0.0627855649
C  C106  1  0.06100000  0.79940000  0.08380000  1.0 -0.0627855649
C  C107  1  0.97720000  0.06100000  0.26160000  1.0 -0.0627855649
C  C108  1  0.79940000  0.71560000  0.73840000  1.0 -0.0627855649
C  C109  1  0.43900000  0.52280000  0.73840000  1.0 -0.0627855649
C  C110  1  0.78440000  0.70060000  0.26160000  1.0 -0.0627855649
C  C111  1  0.70060000  0.43900000  0.91620000  1.0 -0.0627855649
C  C112  1  0.52280000  0.78440000  0.08380000  1.0 -0.0627855649
C  C113  1  0.26080000  0.01230000  0.02650000  1.0 -0.0695670376
C  C114  1  0.98580000  0.23430000  0.97350000  1.0 -0.0695670376
C  C115  1  0.01230000  0.98580000  0.75150000  1.0 -0.0695670376
C  C116  1  0.23430000  0.26080000  0.24850000  1.0 -0.0695670376
C  C117  1  0.51420000  0.48770000  0.24850000  1.0 -0.0695670376
C  C118  1  0.23920000  0.26570000  0.75150000  1.0 -0.0695670376
C  C119  1  0.26570000  0.51420000  0.02650000  1.0 -0.0695670376
C  C120  1  0.48770000  0.23920000  0.97350000  1.0 -0.0695670376
C  C121  1  0.73920000  0.98770000  0.97350000  1.0 -0.0695670376
C  C122  1  0.01420000  0.76570000  0.02650000  1.0 -0.0695670376
C  C123  1  0.98770000  0.01420000  0.24850000  1.0 -0.0695670376
C  C124  1  0.76570000  0.73920000  0.75150000  1.0 -0.0695670376
C  C125  1  0.48580000  0.51230000  0.75150000  1.0 -0.0695670376
C  C126  1  0.76080000  0.73430000  0.24850000  1.0 -0.0695670376
C  C127  1  0.73430000  0.48580000  0.97350000  1.0 -0.0695670376
C  C128  1  0.51230000  0.76080000  0.02650000  1.0 -0.0695670376
C  C129  1  0.23720000  0.96340000  0.97280000  1.0 -0.0695670376
C  C130  1  0.99060000  0.26440000  0.02720000  1.0 -0.0695670376
C  C131  1  0.96340000  0.99060000  0.72620000  1.0 -0.0695670376
C  C132  1  0.26440000  0.23720000  0.27380000  1.0 -0.0695670376
C  C133  1  0.50940000  0.53660000  0.27380000  1.0 -0.0695670376
C  C134  1  0.26280000  0.23560000  0.72620000  1.0 -0.0627855649
C  C135  1  0.23560000  0.50940000  0.97280000  1.0 -0.0695670376
C  C136  1  0.53660000  0.26280000  0.02720000  1.0 -0.0695670376
C  C137  1  0.76280000  0.03660000  0.02720000  1.0 -0.0695670376
C  C138  1  0.00940000  0.73560000  0.97280000  1.0 -0.0695670376
C  C139  1  0.03660000  0.00940000  0.27380000  1.0 -0.0695670376
C  C140  1  0.73560000  0.76280000  0.72620000  1.0 -0.0695670376
C  C141  1  0.49060000  0.46340000  0.72620000  1.0 -0.0695670376
C  C142  1  0.73720000  0.76440000  0.27380000  1.0 -0.0695670376
C  C143  1  0.76440000  0.49060000  0.02720000  1.0 -0.0695670376
C  C144  1  0.46340000  0.73720000  0.97280000  1.0 -0.0695670376
C  C145  1  0.21480000  0.95350000  0.91510000  1.0 0.5406480147
C  C146  1  0.03840000  0.29970000  0.08490000  1.0 0.5406480147
C  C147  1  0.95350000  0.03840000  0.73870000  1.0 0.5406480147
C  C148  1  0.29970000  0.21480000  0.26130000  1.0 0.5406480147
C  C149  1  0.46160000  0.54650000  0.26130000  1.0 0.5406480147
C  C150  1  0.28520000  0.20030000  0.73870000  1.0 0.5406480147
C  C151  1  0.20030000  0.46160000  0.91510000  1.0 0.5406480147
C  C152  1  0.54650000  0.28520000  0.08490000  1.0 0.5406480147
C  C153  1  0.78520000  0.04650000  0.08490000  1.0 0.5406480147
C  C154  1  0.96160000  0.70030000  0.91510000  1.0 0.5406480147
C  C155  1  0.04650000  0.96160000  0.26130000  1.0 0.5406480147
C  C156  1  0.70030000  0.78520000  0.73870000  1.0 0.5406480147
C  C157  1  0.53840000  0.45350000  0.73870000  1.0 0.5406480147
C  C158  1  0.71480000  0.79970000  0.26130000  1.0 0.5406480147
C  C159  1  0.79970000  0.53840000  0.08490000  1.0 0.5406480147
C  C160  1  0.45350000  0.71480000  0.91510000  1.0 0.5406480147
C  C161  1  0.23880000  0.91790000  0.97250000  1.0 -0.1165088997
C  C162  1  0.94540000  0.26630000  0.02750000  1.0 -0.1165088997
C  C163  1  0.91790000  0.94540000  0.67910000  1.0 -0.1165088997
C  C164  1  0.26630000  0.23880000  0.32090000  1.0 -0.1165088997
C  C165  1  0.55460000  0.58210000  0.32090000  1.0 -0.1165088997
C  C166  1  0.26120000  0.23370000  0.67910000  1.0 -0.1165088997
C  C167  1  0.23370000  0.55460000  0.97250000  1.0 -0.1165088997
C  C168  1  0.58210000  0.26120000  0.02750000  1.0 -0.1165088997
C  C169  1  0.76120000  0.08210000  0.02750000  1.0 -0.1165088997
C  C170  1  0.05460000  0.73370000  0.97250000  1.0 -0.1165088997
C  C171  1  0.08210000  0.05460000  0.32090000  1.0 -0.1165088997
C  C172  1  0.73370000  0.76120000  0.67910000  1.0 -0.1165088997
C  C173  1  0.44540000  0.41790000  0.67910000  1.0 -0.1165088997
C  C174  1  0.73880000  0.76630000  0.32090000  1.0 -0.1165088997
C  C175  1  0.76630000  0.44540000  0.02750000  1.0 -0.1165088997
C  C176  1  0.41790000  0.73880000  0.97250000  1.0 -0.1165088997
C  C177  1  0.25990000  0.92350000  0.02760000  1.0 0.0463751066
C  C178  1  0.89590000  0.23230000  0.97240000  1.0 0.0463751066
C  C179  1  0.92350000  0.89590000  0.66360000  1.0 0.0463751066
C  C180  1  0.23230000  0.25990000  0.33640000  1.0 0.0463751066
C  C181  1  0.60410000  0.57650000  0.33640000  1.0 0.0463751066
C  C182  1  0.24010000  0.26770000  0.66360000  1.0 0.0463751066
C  C183  1  0.26770000  0.60410000  0.02760000  1.0 0.0463751066
C  C184  1  0.57650000  0.24010000  0.97240000  1.0 0.0463751066
C  C185  1  0.74010000  0.07650000  0.97240000  1.0 0.0463751066
C  C186  1  0.10410000  0.76770000  0.02760000  1.0 0.0463751066
C  C187  1  0.07650000  0.10410000  0.33640000  1.0 0.0463751066
C  C188  1  0.76770000  0.74010000  0.66360000  1.0 0.0463751066
C  C189  1  0.39590000  0.42350000  0.66360000  1.0 0.0463751066
C  C190  1  0.75990000  0.73230000  0.33640000  1.0 0.0463751066
C  C191  1  0.73230000  0.39590000  0.97240000  1.0 0.0463751066
C  C192  1  0.42350000  0.75990000  0.02760000  1.0 0.0463751066
C  C193  1  0.28620000  0.97610000  0.08290000  1.0 -0.1418691259
C  C194  1  0.89320000  0.20330000  0.91710000  1.0 -0.1418691259
C  C195  1  0.97610000  0.89320000  0.68990000  1.0 -0.1418691259
C  C196  1  0.20330000  0.28620000  0.31010000  1.0 -0.1418691259
C  C197  1  0.60680000  0.52390000  0.31010000  1.0 -0.1418691259
C  C198  1  0.21380000  0.29670000  0.68990000  1.0 -0.1418691259
C  C199  1  0.29670000  0.60680000  0.08290000  1.0 -0.1418691259
C  C200  1  0.52390000  0.21380000  0.91710000  1.0 -0.1418691259
C  C201  1  0.71380000  0.02390000  0.91710000  1.0 -0.1418691259
C  C202  1  0.10680000  0.79670000  0.08290000  1.0 -0.1418691259
C  C203  1  0.02390000  0.10680000  0.31010000  1.0 -0.1418691259
C  C204  1  0.79670000  0.71380000  0.68990000  1.0 -0.1418691259
C  C205  1  0.39320000  0.47610000  0.68990000  1.0 -0.1418691259
C  C206  1  0.78620000  0.70330000  0.31010000  1.0 -0.1418691259
C  C207  1  0.70330000  0.39320000  0.91710000  1.0 -0.1418691259
C  C208  1  0.47610000  0.78620000  0.08290000  1.0 -0.1418691259
C  C209  1  0.41600000  0.11260000  0.50000000  1.0 -0.1418691259
C  C210  1  0.61260000  0.91600000  0.50000000  1.0 -0.1450772681
C  C211  1  0.11260000  0.61260000  0.69660000  1.0 -0.1450772681
C  C212  1  0.91600000  0.41600000  0.30340000  1.0 -0.1418691259
C  C213  1  0.88740000  0.38740000  0.30340000  1.0 -0.1450772681
C  C214  1  0.08400000  0.58400000  0.69660000  1.0 -0.1450772681
C  C215  1  0.58400000  0.88740000  0.50000000  1.0 -0.1450772681
C  C216  1  0.38740000  0.08400000  0.50000000  1.0 -0.1450772681
C  C217  1  0.45890000  0.08950000  0.50000000  1.0 0.1716736929
C  C218  1  0.58950000  0.95890000  0.50000000  1.0 0.1716736929
C  C219  1  0.08950000  0.58950000  0.63060000  1.0 0.1716736929
C  C220  1  0.95890000  0.45890000  0.36940000  1.0 0.1716736929
C  C221  1  0.91050000  0.41050000  0.36940000  1.0 0.1716736929
C  C222  1  0.04110000  0.54110000  0.63060000  1.0 0.1716736929
C  C223  1  0.54110000  0.91050000  0.50000000  1.0 0.1716736929
C  C224  1  0.41050000  0.04110000  0.50000000  1.0 0.1716736929
C  C225  1  0.50070000  0.10950000  0.50000000  1.0 -0.0275704914
C  C226  1  0.60950000  0.00070000  0.50000000  1.0 -0.0275704914
C  C227  1  0.10950000  0.60950000  0.60880000  1.0 -0.0275704914
C  C228  1  0.00070000  0.50070000  0.39120000  1.0 -0.0275704914
C  C229  1  0.89050000  0.39050000  0.39120000  1.0 -0.0275704914
C  C230  1  0.99930000  0.49930000  0.60880000  1.0 -0.0275704914
C  C231  1  0.49930000  0.89050000  0.50000000  1.0 -0.0275704914
C  C232  1  0.39050000  0.99930000  0.50000000  1.0 -0.0275704914
C  C233  1  0.54040000  0.08280000  0.50000000  1.0 0.1145916968
C  C234  1  0.58280000  0.04040000  0.50000000  1.0 0.1145916968
C  C235  1  0.08280000  0.58280000  0.54240000  1.0 0.1145916968
C  C236  1  0.04040000  0.54040000  0.45760000  1.0 0.1145916968
C  C237  1  0.91720000  0.41720000  0.45760000  1.0 0.1145916968
C  C238  1  0.95960000  0.45960000  0.54240000  1.0 0.1145916968
C  C239  1  0.45960000  0.91720000  0.50000000  1.0 0.1145916968
C  C240  1  0.41720000  0.95960000  0.50000000  1.0 0.1145916968
C  C241  1  0.57880000  0.10840000  0.50000000  1.0 -0.1629155504
C  C242  1  0.60840000  0.07880000  0.50000000  1.0 -0.1629155504
C  C243  1  0.10840000  0.60840000  0.52960000  1.0 -0.1629155504
C  C244  1  0.07880000  0.57880000  0.47040000  1.0 -0.1629155504
C  C245  1  0.89160000  0.39160000  0.47040000  1.0 -0.1629155504
C  C246  1  0.92120000  0.42120000  0.52960000  1.0 -0.1629155504
C  C247  1  0.42120000  0.89160000  0.50000000  1.0 -0.1629155504
C  C248  1  0.39160000  0.92120000  0.50000000  1.0 -0.1629155504
C  C249  1  0.43540000  0.19140000  0.38440000  1.0 0.5856767795
C  C250  1  0.80700000  0.05100000  0.61560000  1.0 0.5856767795
C  C251  1  0.19140000  0.80700000  0.75600000  1.0 0.5856767795
C  C252  1  0.05100000  0.43540000  0.24400000  1.0 0.5856767795
C  C253  1  0.69300000  0.30860000  0.24400000  1.0 0.5856767795
C  C254  1  0.06460000  0.44900000  0.75600000  1.0 0.5856767795
C  C255  1  0.44900000  0.69300000  0.38440000  1.0 0.5856767795
C  C256  1  0.30860000  0.06460000  0.61560000  1.0 0.5856767795
C  C257  1  0.56460000  0.80860000  0.61560000  1.0 0.5856767795
C  C258  1  0.19300000  0.94900000  0.38440000  1.0 0.5856767795
C  C259  1  0.80860000  0.19300000  0.24400000  1.0 0.5856767795
C  C260  1  0.94900000  0.56460000  0.75600000  1.0 0.5856767795
C  C261  1  0.30700000  0.69140000  0.75600000  1.0 0.5856767795
C  C262  1  0.93540000  0.55100000  0.24400000  1.0 0.5856767795
C  C263  1  0.55100000  0.30700000  0.61560000  1.0 0.5856767795
C  C264  1  0.69140000  0.93540000  0.38440000  1.0 0.5856767795
C  C265  1  0.47110000  0.20220000  0.44770000  1.0 -0.0137880479
C  C266  1  0.75450000  0.02340000  0.55230000  1.0 -0.0137880479
C  C267  1  0.20220000  0.75450000  0.73110000  1.0 -0.0137880479
C  C268  1  0.02340000  0.47110000  0.26890000  1.0 -0.0137880479
C  C269  1  0.74550000  0.29780000  0.26890000  1.0 -0.0137880479
C  C270  1  0.02890000  0.47660000  0.73110000  1.0 -0.0137880479
C  C271  1  0.47660000  0.74550000  0.44770000  1.0 -0.0137880479
C  C272  1  0.29780000  0.02890000  0.55230000  1.0 -0.0137880479
C  C273  1  0.52890000  0.79780000  0.55230000  1.0 -0.0137880479
C  C274  1  0.24550000  0.97660000  0.44770000  1.0 -0.0137880479
C  C275  1  0.79780000  0.24550000  0.26890000  1.0 -0.0137880479
C  C276  1  0.97660000  0.52890000  0.73110000  1.0 -0.0137880479
C  C277  1  0.25450000  0.70220000  0.73110000  1.0 -0.0137880479
C  C278  1  0.97110000  0.52340000  0.26890000  1.0 -0.0137880479
C  C279  1  0.52340000  0.25450000  0.55230000  1.0 -0.0137880479
C  C280  1  0.70220000  0.97110000  0.44770000  1.0 -0.0137880479
C  C281  1  0.50050000  0.24970000  0.50000000  1.0 -0.0882742801
C  C282  1  0.74970000  0.00050000  0.50000000  1.0 -0.0882742801
C  C283  1  0.24970000  0.74970000  0.74920000  1.0 -0.0882742801
C  C284  1  0.00050000  0.50050000  0.25080000  1.0 -0.0882742801
C  C285  1  0.75030000  0.25030000  0.25080000  1.0 -0.0882742801
C  C286  1  0.99950000  0.49950000  0.74920000  1.0 -0.0882742801
C  C287  1  0.49950000  0.75030000  0.50000000  1.0 -0.0882742801
C  C288  1  0.25030000  0.99950000  0.50000000  1.0 -0.0882742801
C  C289  1  0.47250000  0.15820000  0.44650000  1.0 -0.1629155504
C  C290  1  0.71170000  0.02600000  0.55350000  1.0 -0.1629155504
C  C291  1  0.15820000  0.71170000  0.68570000  1.0 -0.1629155504
C  C292  1  0.02600000  0.47250000  0.31430000  1.0 -0.1629155504
C  C293  1  0.78830000  0.34180000  0.31430000  1.0 -0.1629155504
C  C294  1  0.02750000  0.47400000  0.68570000  1.0 -0.1629155504
C  C295  1  0.47400000  0.78830000  0.44650000  1.0 -0.1629155504
C  C296  1  0.34180000  0.02750000  0.55350000  1.0 -0.1629155504
C  C297  1  0.52750000  0.84180000  0.55350000  1.0 -0.1629155504
C  C298  1  0.28830000  0.97400000  0.44650000  1.0 -0.1629155504
C  C299  1  0.84180000  0.28830000  0.31430000  1.0 -0.1629155504
C  C300  1  0.97400000  0.52750000  0.68570000  1.0 -0.1629155504
C  C301  1  0.21170000  0.65820000  0.68570000  1.0 -0.1629155504
C  C302  1  0.97250000  0.52600000  0.31430000  1.0 -0.1629155504
C  C303  1  0.52600000  0.21170000  0.55350000  1.0 -0.1629155504
C  C304  1  0.65820000  0.97250000  0.44650000  1.0 -0.1629155504
C  C305  1  0.49960000  0.16060000  0.50000000  1.0 0.069998472
C  C306  1  0.66060000  0.99960000  0.50000000  1.0 0.069998472
C  C307  1  0.16060000  0.66060000  0.66100000  1.0 0.069998472
C  C308  1  0.99960000  0.49960000  0.33900000  1.0 0.069998472
C  C309  1  0.83940000  0.33940000  0.33900000  1.0 0.069998472
C  C310  1  0.00040000  0.50040000  0.66100000  1.0 0.069998472
C  C311  1  0.50040000  0.83940000  0.50000000  1.0 0.069998472
C  C312  1  0.33940000  0.00040000  0.50000000  1.0 0.069998472
C  C313  1  0.63720000  0.25000000  0.38720000  1.0 0.069998472
C  C314  1  0.86280000  0.25000000  0.61280000  1.0 0.069998472
C  C315  1  0.25000000  0.86280000  0.61280000  1.0 0.069998472
C  C316  1  0.25000000  0.63720000  0.38720000  1.0 0.069998472
C  C317  1  0.36280000  0.75000000  0.61280000  1.0 0.069998472
C  C318  1  0.13720000  0.75000000  0.38720000  1.0 0.069998472
C  C319  1  0.75000000  0.13720000  0.38720000  1.0 0.069998472
C  C320  1  0.75000000  0.36280000  0.61280000  1.0 0.069998472
C  C321  1  0.65980000  0.29260000  0.45340000  1.0 0.1786122969
C  C322  1  0.83920000  0.20640000  0.54660000  1.0 0.1786122969
C  C323  1  0.29260000  0.83920000  0.63280000  1.0 0.1786122969
C  C324  1  0.20640000  0.65980000  0.36720000  1.0 0.1786122969
C  C325  1  0.66080000  0.20740000  0.36720000  1.0 0.1786122969
C  C326  1  0.84020000  0.29360000  0.63280000  1.0 0.1786122969
C  C327  1  0.29360000  0.66080000  0.45340000  1.0 0.1786122969
C  C328  1  0.20740000  0.84020000  0.54660000  1.0 0.1786122969
C  C329  1  0.34020000  0.70740000  0.54660000  1.0 0.1786122969
C  C330  1  0.16080000  0.79360000  0.45340000  1.0 0.1786122969
C  C331  1  0.70740000  0.16080000  0.36720000  1.0 0.1786122969
C  C332  1  0.79360000  0.34020000  0.63280000  1.0 0.1786122969
C  C333  1  0.33920000  0.79260000  0.63280000  1.0 0.1786122969
C  C334  1  0.15980000  0.70640000  0.36720000  1.0 0.1786122969
C  C335  1  0.70640000  0.33920000  0.54660000  1.0 0.1786122969
C  C336  1  0.79260000  0.15980000  0.45340000  1.0 0.1786122969
C  C337  1  0.63950000  0.33430000  0.46980000  1.0 -0.176480304
C  C338  1  0.86450000  0.16970000  0.53020000  1.0 -0.176480304
C  C339  1  0.33430000  0.86450000  0.69480000  1.0 -0.176480304
C  C340  1  0.16970000  0.63950000  0.30520000  1.0 -0.176480304
C  C341  1  0.63550000  0.16570000  0.30520000  1.0 -0.176480304
C  C342  1  0.86050000  0.33030000  0.69480000  1.0 -0.176480304
C  C343  1  0.33030000  0.63550000  0.46980000  1.0 -0.176480304
C  C344  1  0.16570000  0.86050000  0.53020000  1.0 -0.176480304
C  C345  1  0.36050000  0.66570000  0.53020000  1.0 -0.176480304
C  C346  1  0.13550000  0.83030000  0.46980000  1.0 -0.176480304
C  C347  1  0.66570000  0.13550000  0.30520000  1.0 -0.176480304
C  C348  1  0.83030000  0.36050000  0.69480000  1.0 -0.176480304
C  C349  1  0.36450000  0.83430000  0.69480000  1.0 -0.176480304
C  C350  1  0.13950000  0.66970000  0.30520000  1.0 -0.176480304
C  C351  1  0.66970000  0.36450000  0.53020000  1.0 -0.176480304
C  C352  1  0.83430000  0.13950000  0.46980000  1.0 -0.176480304
C  C353  1  0.48950000  0.22730000  0.27080000  1.0 0.0374856494
C  C354  1  0.95650000  0.21870000  0.72920000  1.0 0.0374856494
C  C355  1  0.22730000  0.95650000  0.73780000  1.0 0.0374856494
C  C356  1  0.21870000  0.48950000  0.26220000  1.0 0.0374856494
C  C357  1  0.54350000  0.27270000  0.26220000  1.0 0.0374856494
C  C358  1  0.01050000  0.28130000  0.73780000  1.0 0.0374856494
C  C359  1  0.28130000  0.54350000  0.27080000  1.0 0.0374856494
C  C360  1  0.27270000  0.01050000  0.72920000  1.0 0.0374856494
C  C361  1  0.51050000  0.77270000  0.72920000  1.0 0.0374856494
C  C362  1  0.04350000  0.78130000  0.27080000  1.0 0.0374856494
C  C363  1  0.77270000  0.04350000  0.26220000  1.0 0.0374856494
C  C364  1  0.78130000  0.51050000  0.73780000  1.0 0.0374856494
C  C365  1  0.45650000  0.72730000  0.73780000  1.0 0.0374856494
C  C366  1  0.98950000  0.71870000  0.26220000  1.0 0.0374856494
C  C367  1  0.71870000  0.45650000  0.72920000  1.0 0.0374856494
C  C368  1  0.72730000  0.98950000  0.27080000  1.0 0.0374856494
C  C369  1  0.49520000  0.25000000  0.24520000  1.0 -0.113570468
C  C370  1  0.00480000  0.25000000  0.75480000  1.0 -0.113570468
C  C371  1  0.25000000  0.00480000  0.75480000  1.0 -0.113570468
C  C372  1  0.25000000  0.49520000  0.24520000  1.0 -0.113570468
C  C373  1  0.50480000  0.75000000  0.75480000  1.0 -0.113570468
C  C374  1  0.99520000  0.75000000  0.24520000  1.0 -0.113570468
C  C375  1  0.75000000  0.99520000  0.24520000  1.0 -0.113570468
C  C376  1  0.75000000  0.50480000  0.75480000  1.0 -0.113570468
C  C377  1  0.53880000  0.22860000  0.31540000  1.0 -0.167853874
C  C378  1  0.91320000  0.22340000  0.68460000  1.0 -0.167853874
C  C379  1  0.22860000  0.91320000  0.68980000  1.0 -0.167853874
C  C380  1  0.22340000  0.53880000  0.31020000  1.0 -0.167853874
C  C381  1  0.58680000  0.27140000  0.31020000  1.0 -0.167853874
C  C382  1  0.96120000  0.27660000  0.68980000  1.0 -0.167853874
C  C383  1  0.27660000  0.58680000  0.31540000  1.0 -0.167853874
C  C384  1  0.27140000  0.96120000  0.68460000  1.0 -0.167853874
C  C385  1  0.46120000  0.77140000  0.68460000  1.0 -0.167853874
C  C386  1  0.08680000  0.77660000  0.31540000  1.0 -0.167853874
C  C387  1  0.77140000  0.08680000  0.31020000  1.0 -0.167853874
C  C388  1  0.77660000  0.46120000  0.68980000  1.0 -0.167853874
C  C389  1  0.41320000  0.72860000  0.68980000  1.0 -0.167853874
C  C390  1  0.03880000  0.72340000  0.31020000  1.0 -0.167853874
C  C391  1  0.72340000  0.41320000  0.68460000  1.0 -0.167853874
C  C392  1  0.72860000  0.03880000  0.31540000  1.0 -0.167853874
C  C393  1  0.58580000  0.25000000  0.33580000  1.0 0.0266664535
C  C394  1  0.91420000  0.25000000  0.66420000  1.0 0.0266664535
C  C395  1  0.25000000  0.91420000  0.66420000  1.0 0.0266664535
C  C396  1  0.25000000  0.58580000  0.33580000  1.0 0.0266664535
C  C397  1  0.41420000  0.75000000  0.66420000  1.0 0.0266664535
C  C398  1  0.08580000  0.75000000  0.33580000  1.0 0.0266664535
C  C399  1  0.75000000  0.08580000  0.33580000  1.0 0.0245442591
C  C400  1  0.75000000  0.41420000  0.66420000  1.0 0.0266664535
C  C401  1  0.43180000  0.20220000  0.25440000  1.0 0.6097781076
C  C402  1  0.94780000  0.17740000  0.74560000  1.0 0.6097781076
C  C403  1  0.20220000  0.94780000  0.77040000  1.0 0.6097781076
C  C404  1  0.17740000  0.43180000  0.22960000  1.0 0.6097781076
C  C405  1  0.55220000  0.29780000  0.22960000  1.0 0.6097781076
C  C406  1  0.06820000  0.32260000  0.77040000  1.0 0.6097781076
C  C407  1  0.32260000  0.55220000  0.25440000  1.0 0.6097781076
C  C408  1  0.29780000  0.06820000  0.74560000  1.0 0.6097781076
C  C409  1  0.56820000  0.79780000  0.74560000  1.0 0.6097781076
C  C410  1  0.05220000  0.82260000  0.25440000  1.0 0.6097781076
C  C411  1  0.79780000  0.05220000  0.22960000  1.0 0.6097781076
C  C412  1  0.82260000  0.56820000  0.77040000  1.0 0.6097781076
C  C413  1  0.44780000  0.70220000  0.77040000  1.0 0.6097781076
C  C414  1  0.93180000  0.67740000  0.22960000  1.0 0.6097781076
C  C415  1  0.67740000  0.44780000  0.74560000  1.0 0.6097781076
C  C416  1  0.70220000  0.93180000  0.25440000  1.0 0.6097781076
N  N1  1  0.21730000  0.81200000  0.02930000  1.0 -0.2514694319
N  N2  1  0.78270000  0.18800000  0.97070000  1.0 -0.2514694319
N  N3  1  0.81200000  0.78270000  0.59470000  1.0 -0.2514694319
N  N4  1  0.18800000  0.21730000  0.40530000  1.0 -0.2514694319
N  N5  1  0.71730000  0.68800000  0.40530000  1.0 -0.2514694319
N  N6  1  0.28270000  0.31200000  0.59470000  1.0 -0.2514694319
N  N7  1  0.31200000  0.71730000  0.02930000  1.0 -0.2514694319
N  N8  1  0.68800000  0.28270000  0.97070000  1.0 -0.2514694319
N  N9  1  0.30950000  0.80950000  0.03120000  1.0 -0.2514694319
N  N10  1  0.77830000  0.27830000  0.96880000  1.0 -0.2514694319
N  N11  1  0.80950000  0.77830000  0.50000000  1.0 -0.2514694319
N  N12  1  0.27830000  0.30950000  0.50000000  1.0 -0.2514694319
N  N13  1  0.72170000  0.69050000  0.50000000  1.0 -0.2514694319
N  N14  1  0.19050000  0.22170000  0.50000000  1.0 -0.2514694319
N  N15  1  0.22170000  0.72170000  0.03120000  1.0 -0.2514694319
N  N16  1  0.69050000  0.19050000  0.96880000  1.0 -0.2514694319
N  N17  1  0.45330000  0.04670000  0.50000000  1.0 -0.2301289891
N  N18  1  0.54670000  0.95330000  0.50000000  1.0 -0.2301289891
N  N19  1  0.04670000  0.54670000  0.59340000  1.0 -0.2301289891
N  N20  1  0.95330000  0.45330000  0.40660000  1.0 -0.2301289891
N  N21  1  0.53270000  0.03270000  0.50000000  1.0 -0.1629155504
N  N22  1  0.03270000  0.53270000  0.50000000  1.0 -0.1629155504
N  N23  1  0.96730000  0.46730000  0.50000000  1.0 -0.1629155504
N  N24  1  0.46730000  0.96730000  0.50000000  1.0 -0.1629155504
N  N25  1  0.70360000  0.29820000  0.50000000  1.0 -0.2925826297
N  N26  1  0.79820000  0.20360000  0.50000000  1.0 -0.2925826297
N  N27  1  0.29820000  0.79820000  0.59460000  1.0 -0.2925826297
N  N28  1  0.20360000  0.70360000  0.40540000  1.0 -0.2925826297
N  N29  1  0.70180000  0.20180000  0.40540000  1.0 -0.2925826297
N  N30  1  0.79640000  0.29640000  0.59460000  1.0 -0.2925826297
N  N31  1  0.29640000  0.70180000  0.50000000  1.0 -0.2925826297
N  N32  1  0.20180000  0.79640000  0.50000000  1.0 -0.2925826297
Cl  Cl1  1  0.21010000  0.71010000  0.92020000  1.0 -0.4717500903
Cl  Cl2  1  0.78990000  0.28990000  0.07980000  1.0 -0.4717500903
Cl  Cl3  1  0.71010000  0.78990000  0.50000000  1.0 -0.4717500903
Cl  Cl4  1  0.28990000  0.21010000  0.50000000  1.0 -0.4717500903
Cl  Cl5  1  0.32030000  0.82030000  0.14060000  1.0 -0.4495532908
Cl  Cl6  1  0.67970000  0.17970000  0.85940000  1.0 -0.4495532908
Cl  Cl7  1  0.82030000  0.67970000  0.50000000  1.0 -0.4495532908
Cl  Cl8  1  0.17970000  0.32030000  0.50000000  1.0 -0.4495532908
Cl  Cl9  1  0.44690000  0.94690000  0.39380000  1.0 -0.2301289891
Cl  Cl10  1  0.55310000  0.05310000  0.60620000  1.0 -0.2301289891
Cl  Cl11  1  0.94690000  0.55310000  0.50000000  1.0 -0.2301289891
Cl  Cl12  1  0.05310000  0.44690000  0.50000000  1.0 -0.2301289891
Cl  Cl13  1  0.69850000  0.19850000  0.50000000  1.0 -0.4574971595
Cl  Cl14  1  0.19850000  0.69850000  0.50000000  1.0 -0.4574971595
Cl  Cl15  1  0.80150000  0.30150000  0.50000000  1.0 -0.4574971595
Cl  Cl16  1  0.30150000  0.80150000  0.50000000  1.0 -0.4574971595
O  O1  1  0.18240000  0.91000000  0.86040000  1.0 -0.510466835
O  O2  1  0.04960000  0.32200000  0.13960000  1.0 -0.510466835
O  O3  1  0.91000000  0.04960000  0.72760000  1.0 -0.510466835
O  O4  1  0.32200000  0.18240000  0.27240000  1.0 -0.510466835
O  O5  1  0.45040000  0.59000000  0.27240000  1.0 -0.510466835
O  O6  1  0.31760000  0.17800000  0.72760000  1.0 -0.510466835
O  O7  1  0.17800000  0.45040000  0.86040000  1.0 -0.510466835
O  O8  1  0.59000000  0.31760000  0.13960000  1.0 -0.510466835
O  O9  1  0.81760000  0.09000000  0.13960000  1.0 -0.510466835
O  O10  1  0.95040000  0.67800000  0.86040000  1.0 -0.510466835
O  O11  1  0.09000000  0.95040000  0.27240000  1.0 -0.510466835
O  O12  1  0.67800000  0.81760000  0.72760000  1.0 -0.510466835
O  O13  1  0.54960000  0.41000000  0.72760000  1.0 -0.510466835
O  O14  1  0.68240000  0.82200000  0.27240000  1.0 -0.510466835
O  O15  1  0.82200000  0.54960000  0.13960000  1.0 -0.510466835
O  O16  1  0.41000000  0.68240000  0.86040000  1.0 -0.510466835
O  O17  1  0.21340000  0.99540000  0.91100000  1.0 -0.6200463274
O  O18  1  0.08440000  0.30240000  0.08900000  1.0 -0.6200463274
O  O19  1  0.99540000  0.08440000  0.78200000  1.0 -0.6200463274
O  O20  1  0.30240000  0.21340000  0.21800000  1.0 -0.6200463274
O  O21  1  0.41560000  0.50460000  0.21800000  1.0 -0.6200463274
O  O22  1  0.28660000  0.19760000  0.78200000  1.0 -0.6200463274
O  O23  1  0.19760000  0.41560000  0.91100000  1.0 -0.6200463274
O  O24  1  0.50460000  0.28660000  0.08900000  1.0 -0.6200463274
O  O25  1  0.78660000  0.00460000  0.08900000  1.0 -0.6200463274
O  O26  1  0.91560000  0.69760000  0.91100000  1.0 -0.6200463274
O  O27  1  0.00460000  0.91560000  0.21800000  1.0 -0.6200463274
O  O28  1  0.69760000  0.78660000  0.78200000  1.0 -0.6200463274
O  O29  1  0.58440000  0.49540000  0.78200000  1.0 -0.6200463274
O  O30  1  0.71340000  0.80240000  0.21800000  1.0 -0.6200463274
O  O31  1  0.80240000  0.58440000  0.08900000  1.0 -0.6200463274
O  O32  1  0.49540000  0.71340000  0.91100000  1.0 -0.6200463274
O  O33  1  0.31110000  0.11270000  0.13580000  1.0 -0.6771877133
O  O34  1  0.97690000  0.17530000  0.86420000  1.0 -0.6771877133
O  O35  1  0.11270000  0.97690000  0.80160000  1.0 -0.6771877133
O  O36  1  0.17530000  0.31110000  0.19840000  1.0 -0.6771877133
O  O37  1  0.52310000  0.38730000  0.19840000  1.0 -0.6771877133
O  O38  1  0.18890000  0.32470000  0.80160000  1.0 -0.6771877133
O  O39  1  0.32470000  0.52310000  0.13580000  1.0 -0.6771877133
O  O40  1  0.38730000  0.18890000  0.86420000  1.0 -0.6771877133
O  O41  1  0.68890000  0.88730000  0.86420000  1.0 -0.6771877133
O  O42  1  0.02310000  0.82470000  0.13580000  1.0 -0.6771877133
O  O43  1  0.88730000  0.02310000  0.19840000  1.0 -0.6771877133
O  O44  1  0.82470000  0.68890000  0.80160000  1.0 -0.6771877133
O  O45  1  0.47690000  0.61270000  0.80160000  1.0 -0.6771877133
O  O46  1  0.81110000  0.67530000  0.19840000  1.0 -0.6771877133
O  O47  1  0.67530000  0.47690000  0.86420000  1.0 -0.6771877133
O  O48  1  0.61270000  0.81110000  0.13580000  1.0 -0.6771877133
O  O49  1  0.33490000  0.08580000  0.19610000  1.0 -0.3618253363
O  O50  1  0.88970000  0.13880000  0.80390000  1.0 -0.3618253363
O  O51  1  0.08580000  0.88970000  0.75090000  1.0 -0.3618253363
O  O52  1  0.13880000  0.33490000  0.24910000  1.0 -0.3618253363
O  O53  1  0.61030000  0.41420000  0.24910000  1.0 -0.3618253363
O  O54  1  0.16510000  0.36120000  0.75090000  1.0 -0.3618253363
O  O55  1  0.36120000  0.61030000  0.19610000  1.0 -0.3618253363
O  O56  1  0.41420000  0.16510000  0.80390000  1.0 -0.3618253363
O  O57  1  0.66510000  0.91420000  0.80390000  1.0 -0.3618253363
O  O58  1  0.11030000  0.86120000  0.19610000  1.0 -0.3618253363
O  O59  1  0.91420000  0.11030000  0.24910000  1.0 -0.3618253363
O  O60  1  0.86120000  0.66510000  0.75090000  1.0 -0.3618253363
O  O61  1  0.38970000  0.58580000  0.75090000  1.0 -0.3618253363
O  O62  1  0.83490000  0.63880000  0.24910000  1.0 -0.3618253363
O  O63  1  0.63880000  0.38970000  0.80390000  1.0 -0.3618253363
O  O64  1  0.58580000  0.83490000  0.19610000  1.0 -0.3618253363
O  O65  1  0.40880000  0.14340000  0.33100000  1.0 -0.5504201618
O  O66  1  0.81240000  0.07780000  0.66900000  1.0 -0.5504201618
O  O67  1  0.14340000  0.81240000  0.73460000  1.0 -0.5504201618
O  O68  1  0.07780000  0.40880000  0.26540000  1.0 -0.5504201618
O  O69  1  0.68760000  0.35660000  0.26540000  1.0 -0.5504201618
O  O70  1  0.09120000  0.42220000  0.73460000  1.0 -0.5504201618
O  O71  1  0.42220000  0.68760000  0.33100000  1.0 -0.5504201618
O  O72  1  0.35660000  0.09120000  0.66900000  1.0 -0.5504201618
O  O73  1  0.59120000  0.85660000  0.66900000  1.0 -0.5504201618
O  O74  1  0.18760000  0.92220000  0.33100000  1.0 -0.5504201618
O  O75  1  0.85660000  0.18760000  0.26540000  1.0 -0.5504201618
O  O76  1  0.92220000  0.59120000  0.73460000  1.0 -0.5504201618
O  O77  1  0.31240000  0.64340000  0.73460000  1.0 -0.5504201618
O  O78  1  0.90880000  0.57780000  0.26540000  1.0 -0.5504201618
O  O79  1  0.57780000  0.31240000  0.66900000  1.0 -0.5504201618
O  O80  1  0.64340000  0.90880000  0.33100000  1.0 -0.5504201618
O  O81  1  0.43320000  0.23460000  0.38600000  1.0 -0.5504201618
O  O82  1  0.84860000  0.04720000  0.61400000  1.0 -0.5504201618
O  O83  1  0.23460000  0.84860000  0.80140000  1.0 -0.5504201618
O  O84  1  0.04720000  0.43320000  0.19860000  1.0 -0.5504201618
O  O85  1  0.65140000  0.26540000  0.19860000  1.0 -0.5504201618
O  O86  1  0.06680000  0.45280000  0.80140000  1.0 -0.5504201618
O  O87  1  0.45280000  0.65140000  0.38600000  1.0 -0.5504201618
O  O88  1  0.26540000  0.06680000  0.61400000  1.0 -0.5504201618
O  O89  1  0.56680000  0.76540000  0.61400000  1.0 -0.5504201618
O  O90  1  0.15140000  0.95280000  0.38600000  1.0 -0.5504201618
O  O91  1  0.76540000  0.15140000  0.19860000  1.0 -0.5504201618
O  O92  1  0.95280000  0.56680000  0.80140000  1.0 -0.5504201618
O  O93  1  0.34860000  0.73460000  0.80140000  1.0 -0.5504201618
O  O94  1  0.93320000  0.54720000  0.19860000  1.0 -0.5504201618
O  O95  1  0.54720000  0.34860000  0.61400000  1.0 -0.5504201618
O  O96  1  0.73460000  0.93320000  0.38600000  1.0 -0.5504201618
O  O97  1  0.43420000  0.17250000  0.27210000  1.0 -0.4752647081
O  O98  1  0.90040000  0.16210000  0.72790000  1.0 -0.4752647081
O  O99  1  0.17250000  0.90040000  0.73830000  1.0 -0.4752647081
O  O100  1  0.16210000  0.43420000  0.26170000  1.0 -0.4717500903
O  O101  1  0.59960000  0.32750000  0.26170000  1.0 -0.4752647081
O  O102  1  0.06580000  0.33790000  0.73830000  1.0 -0.4752647081
O  O103  1  0.33790000  0.59960000  0.27210000  1.0 -0.4752647081
O  O104  1  0.32750000  0.06580000  0.72790000  1.0 -0.4717500903
O  O105  1  0.56580000  0.82750000  0.72790000  1.0 -0.4752647081
O  O106  1  0.09960000  0.83790000  0.27210000  1.0 -0.4752647081
O  O107  1  0.82750000  0.09960000  0.26170000  1.0 -0.4752647081
O  O108  1  0.83790000  0.56580000  0.73830000  1.0 -0.4752647081
O  O109  1  0.40040000  0.67250000  0.73830000  1.0 -0.4752647081
O  O110  1  0.93420000  0.66210000  0.26170000  1.0 -0.4752647081
O  O111  1  0.66210000  0.40040000  0.72790000  1.0 -0.4752647081
O  O112  1  0.67250000  0.93420000  0.27210000  1.0 -0.4752647081
O  O113  1  0.39400000  0.21100000  0.21060000  1.0 -0.6396788382
O  O114  1  0.00040000  0.18340000  0.78940000  1.0 -0.6396788382
O  O115  1  0.21100000  0.00040000  0.81700000  1.0 -0.6396788382
O  O116  1  0.18340000  0.39400000  0.18300000  1.0 -0.6396788382
O  O117  1  0.49960000  0.28900000  0.18300000  1.0 -0.6396788382
O  O118  1  0.10600000  0.31660000  0.81700000  1.0 -0.6396788382
O  O119  1  0.31660000  0.49960000  0.21060000  1.0 -0.6396788382
O  O120  1  0.28900000  0.10600000  0.78940000  1.0 -0.6396788382
O  O121  1  0.60600000  0.78900000  0.78940000  1.0 -0.6396788382
O  O122  1  0.99960000  0.81660000  0.21060000  1.0 -0.6396788382
O  O123  1  0.78900000  0.99960000  0.18300000  1.0 -0.6396788382
O  O124  1  0.81660000  0.60600000  0.81700000  1.0 -0.6396788382
O  O125  1  0.50040000  0.71100000  0.81700000  1.0 -0.6396788382
O  O126  1  0.89400000  0.68340000  0.18300000  1.0 -0.6396788382
O  O127  1  0.68340000  0.50040000  0.78940000  1.0 -0.6396788382
O  O128  1  0.71100000  0.89400000  0.21060000  1.0 -0.6396788382
