# DDEC6 charges by PACMAN v1.1 (https://github.com/mtap-research/PACMAN-charge/)
data_POBYAK_FSR_pacman
_symmetry_space_group_name_H-M   'P 1'
_cell_length_a   46.41600000
_cell_length_b   46.41600000
_cell_length_c   27.37030000
_cell_angle_alpha   90.00000000
_cell_angle_beta   90.00000000
_cell_angle_gamma   120.00000000
_symmetry_Int_Tables_number   1
_chemical_formula_structural   Fe15H71C141O82
_chemical_formula_sum   'Fe90 H426 C846 O492'
_cell_volume   51067.61931453
_cell_formula_units_Z   6
loop_
 _symmetry_equiv_pos_site_id
 _symmetry_equiv_pos_as_xyz
  1  'x, y, z'
loop_
 _atom_site_type_symbol
 _atom_site_label
 _atom_site_symmetry_multiplicity
 _atom_site_fract_x
 _atom_site_fract_y
 _atom_site_fract_z
 _atom_site_occupancy
 _atom_site_charge
Fe  Fe1  1  0.35811000  0.34111000  0.48740000  1.0 1.2406079418
Fe  Fe2  1  0.01700000  0.35811000  0.65407000  1.0 1.2406079418
Fe  Fe3  1  0.65889000  0.01700000  0.82073000  1.0 1.2406079418
Fe  Fe4  1  0.64189000  0.65889000  0.98740000  1.0 1.2406079418
Fe  Fe5  1  0.98300000  0.64189000  0.15407000  1.0 1.2406079418
Fe  Fe6  1  0.34111000  0.98300000  0.32073000  1.0 1.2406079418
Fe  Fe7  1  0.32816000  0.37111000  0.82811000  1.0 1.1898766037
Fe  Fe8  1  0.95705000  0.32816000  0.99478000  1.0 1.1898766037
Fe  Fe9  1  0.62889000  0.95705000  0.16144000  1.0 1.1898766037
Fe  Fe10  1  0.67184000  0.62889000  0.32811000  1.0 1.1898766037
Fe  Fe11  1  0.04295000  0.67184000  0.49478000  1.0 1.1898766037
Fe  Fe12  1  0.37111000  0.04295000  0.66144000  1.0 1.1898766037
Fe  Fe13  1  0.29803000  0.30623000  0.15931000  1.0 1.157843515
Fe  Fe14  1  0.99180000  0.29803000  0.32598000  1.0 1.157843515
Fe  Fe15  1  0.69377000  0.99180000  0.49264000  1.0 1.157843515
Fe  Fe16  1  0.70197000  0.69377000  0.65931000  1.0 1.157843515
Fe  Fe17  1  0.00820000  0.70197000  0.82598000  1.0 1.157843515
Fe  Fe18  1  0.30623000  0.00820000  0.99264000  1.0 1.157843515
Fe  Fe19  1  0.32688000  0.36974000  0.23830000  1.0 1.2328305093
Fe  Fe20  1  0.95714000  0.32688000  0.40497000  1.0 1.2328305093
Fe  Fe21  1  0.63026000  0.95714000  0.57163000  1.0 1.2328305093
Fe  Fe22  1  0.67312000  0.63026000  0.73830000  1.0 1.2328305093
Fe  Fe23  1  0.04286000  0.67312000  0.90497000  1.0 1.2328305093
Fe  Fe24  1  0.36974000  0.04286000  0.07163000  1.0 1.2328305093
Fe  Fe25  1  0.29691000  0.30900000  0.57142000  1.0 1.1841998346
Fe  Fe26  1  0.98791000  0.29691000  0.73809000  1.0 1.1841998346
Fe  Fe27  1  0.69100000  0.98791000  0.90475000  1.0 1.1841998346
Fe  Fe28  1  0.70309000  0.69100000  0.07142000  1.0 1.1841998346
Fe  Fe29  1  0.01209000  0.70309000  0.23809000  1.0 1.1841998346
Fe  Fe30  1  0.30900000  0.01209000  0.40475000  1.0 1.1841998346
Fe  Fe31  1  0.35533000  0.33525000  0.90624000  1.0 1.2233378338
Fe  Fe32  1  0.02008000  0.35533000  0.07291000  1.0 1.2233378338
Fe  Fe33  1  0.66475000  0.02008000  0.23957000  1.0 1.2233378338
Fe  Fe34  1  0.64467000  0.66475000  0.40624000  1.0 1.2233378338
Fe  Fe35  1  0.97992000  0.64467000  0.57291000  1.0 1.2233378338
Fe  Fe36  1  0.33525000  0.97992000  0.73957000  1.0 1.2233378338
Fe  Fe37  1  0.40655000  0.41029000  0.86689000  1.0 1.2017207391
Fe  Fe38  1  0.99626000  0.40655000  0.03356000  1.0 1.2017207391
Fe  Fe39  1  0.58971000  0.99626000  0.20022000  1.0 1.2017207391
Fe  Fe40  1  0.59345000  0.58971000  0.36689000  1.0 1.2017207391
Fe  Fe41  1  0.00374000  0.59345000  0.53356000  1.0 1.2017207391
Fe  Fe42  1  0.41029000  0.00374000  0.70022000  1.0 1.2017207391
Fe  Fe43  1  0.24855000  0.33235000  0.19948000  1.0 1.1841998346
Fe  Fe44  1  0.91620000  0.24855000  0.36615000  1.0 1.1898766037
Fe  Fe45  1  0.66765000  0.91620000  0.53281000  1.0 1.1898766037
Fe  Fe46  1  0.75145000  0.66765000  0.69948000  1.0 1.1898766037
Fe  Fe47  1  0.08380000  0.75145000  0.86615000  1.0 1.1841998346
Fe  Fe48  1  0.33235000  0.08380000  0.03281000  1.0 1.1841998346
Fe  Fe49  1  0.33077000  0.26522000  0.53408000  1.0 1.1898766037
Fe  Fe50  1  0.06555000  0.33077000  0.70075000  1.0 1.1898766037
Fe  Fe51  1  0.73478000  0.06555000  0.86741000  1.0 1.1898766037
Fe  Fe52  1  0.66923000  0.73478000  0.03408000  1.0 1.1898766037
Fe  Fe53  1  0.93445000  0.66923000  0.20075000  1.0 1.1898766037
Fe  Fe54  1  0.26522000  0.93445000  0.36741000  1.0 1.1898766037
Fe  Fe55  1  0.41764000  0.56516000  0.25316000  1.0 1.1898766037
Fe  Fe56  1  0.85248000  0.41764000  0.41983000  1.0 1.1898766037
Fe  Fe57  1  0.43484000  0.85248000  0.58649000  1.0 1.1898766037
Fe  Fe58  1  0.58236000  0.43484000  0.75316000  1.0 1.1898766037
Fe  Fe59  1  0.14752000  0.58236000  0.91983000  1.0 1.1898766037
Fe  Fe60  1  0.56516000  0.14752000  0.08649000  1.0 1.1898766037
Fe  Fe61  1  0.48147000  0.23659000  0.64937000  1.0 1.087023243
Fe  Fe62  1  0.24488000  0.48147000  0.81604000  1.0 1.087023243
Fe  Fe63  1  0.76341000  0.24488000  0.98270000  1.0 1.087023243
Fe  Fe64  1  0.51853000  0.76341000  0.14937000  1.0 1.087023243
Fe  Fe65  1  0.75512000  0.51853000  0.31604000  1.0 1.087023243
Fe  Fe66  1  0.23659000  0.75512000  0.48270000  1.0 1.087023243
Fe  Fe67  1  0.38283000  0.58478000  0.34457000  1.0 1.2017207391
Fe  Fe68  1  0.79805000  0.38283000  0.51124000  1.0 1.2017207391
Fe  Fe69  1  0.41522000  0.79805000  0.67790000  1.0 1.2017207391
Fe  Fe70  1  0.61717000  0.41522000  0.84457000  1.0 1.2017207391
Fe  Fe71  1  0.20195000  0.61717000  0.01124000  1.0 1.2017207391
Fe  Fe72  1  0.58478000  0.20195000  0.17790000  1.0 1.2017207391
Fe  Fe73  1  0.53412000  0.25428000  0.55775000  1.0 1.0041394082
Fe  Fe74  1  0.27984000  0.53412000  0.72442000  1.0 1.0041394082
Fe  Fe75  1  0.74572000  0.27984000  0.89108000  1.0 1.0041394082
Fe  Fe76  1  0.46588000  0.74572000  0.05775000  1.0 1.0060108748
Fe  Fe77  1  0.72016000  0.46588000  0.22442000  1.0 1.0060108748
Fe  Fe78  1  0.25428000  0.72016000  0.39108000  1.0 1.0041394082
Fe  Fe79  1  0.37115000  0.59915000  0.23180000  1.0 1.0773864833
Fe  Fe80  1  0.77200000  0.37115000  0.39847000  1.0 1.0773864833
Fe  Fe81  1  0.40085000  0.77200000  0.56513000  1.0 1.0773864833
Fe  Fe82  1  0.62885000  0.40085000  0.73180000  1.0 1.0773864833
Fe  Fe83  1  0.22800000  0.62885000  0.89847000  1.0 1.0773864833
Fe  Fe84  1  0.59915000  0.22800000  0.06513000  1.0 1.0773864833
Fe  Fe85  1  0.56194000  0.26900000  0.66959000  1.0 1.1122417298
Fe  Fe86  1  0.29294000  0.56194000  0.83626000  1.0 1.1122417298
Fe  Fe87  1  0.73100000  0.29294000  0.00292000  1.0 1.1122417298
Fe  Fe88  1  0.43806000  0.73100000  0.16959000  1.0 1.1122417298
Fe  Fe89  1  0.70706000  0.43806000  0.33626000  1.0 1.1122417298
Fe  Fe90  1  0.26900000  0.70706000  0.50292000  1.0 1.1122417298
H  H1  1  0.32990000  0.22877000  0.36972000  1.0 0.1103970665
H  H2  1  0.10113000  0.32990000  0.53639000  1.0 0.1103970665
H  H3  1  0.77123000  0.10113000  0.70305000  1.0 0.1103970665
H  H4  1  0.67010000  0.77123000  0.86972000  1.0 0.1103970665
H  H5  1  0.89887000  0.67010000  0.03639000  1.0 0.1103970665
H  H6  1  0.22877000  0.89887000  0.20305000  1.0 0.1103970665
H  H7  1  0.32924000  0.24915000  0.23142000  1.0 0.120129924
H  H8  1  0.08009000  0.32924000  0.39809000  1.0 0.120129924
H  H9  1  0.75085000  0.08009000  0.56475000  1.0 0.120129924
H  H10  1  0.67076000  0.75085000  0.73142000  1.0 0.120129924
H  H11  1  0.91991000  0.67076000  0.89809000  1.0 0.120129924
H  H12  1  0.24915000  0.91991000  0.06475000  1.0 0.120129924
H  H13  1  0.58880000  0.50209000  0.38380000  1.0 0.120129924
H  H14  1  0.08671000  0.58880000  0.55047000  1.0 0.120129924
H  H15  1  0.49791000  0.08671000  0.71713000  1.0 0.120129924
H  H16  1  0.41120000  0.49791000  0.88380000  1.0 0.120129924
H  H17  1  0.91329000  0.41120000  0.05047000  1.0 0.120129924
H  H18  1  0.50209000  0.91329000  0.21713000  1.0 0.120129924
H  H19  1  0.68597000  0.54170000  0.34736000  1.0 0.1296325809
H  H20  1  0.14427000  0.68597000  0.51403000  1.0 0.1296325809
H  H21  1  0.45830000  0.14427000  0.68069000  1.0 0.1296325809
H  H22  1  0.31403000  0.45830000  0.84736000  1.0 0.1296325809
H  H23  1  0.85573000  0.31403000  0.01403000  1.0 0.1296325809
H  H24  1  0.54170000  0.85573000  0.18069000  1.0 0.1296325809
H  H25  1  0.63377000  0.44680000  0.39672000  1.0 0.1103970665
H  H26  1  0.18697000  0.63377000  0.56339000  1.0 0.1103970665
H  H27  1  0.55320000  0.18697000  0.73005000  1.0 0.1103970665
H  H28  1  0.36623000  0.55320000  0.89672000  1.0 0.1103970665
H  H29  1  0.81303000  0.36623000  0.06339000  1.0 0.1103970665
H  H30  1  0.44680000  0.81303000  0.23005000  1.0 0.1103970665
H  H31  1  0.31339000  0.38837000  0.64074000  1.0 0.1296325809
H  H32  1  0.92502000  0.31339000  0.80741000  1.0 0.1296325809
H  H33  1  0.61163000  0.92502000  0.97407000  1.0 0.1296325809
H  H34  1  0.68661000  0.61163000  0.14074000  1.0 0.1296325809
H  H35  1  0.07498000  0.68661000  0.30741000  1.0 0.1296325809
H  H36  1  0.38837000  0.07498000  0.47407000  1.0 0.1296325809
H  H37  1  0.07827000  0.32829000  0.97837000  1.0 0.120129924
H  H38  1  0.74998000  0.07827000  0.14504000  1.0 0.120129924
H  H39  1  0.67171000  0.74998000  0.31170000  1.0 0.120129924
H  H40  1  0.92173000  0.67171000  0.47837000  1.0 0.120129924
H  H41  1  0.25002000  0.92173000  0.64504000  1.0 0.120129924
H  H42  1  0.32829000  0.25002000  0.81170000  1.0 0.120129924
H  H43  1  0.10342000  0.32810000  0.83662000  1.0 0.120129924
H  H44  1  0.77532000  0.10342000  0.00329000  1.0 0.120129924
H  H45  1  0.67190000  0.77532000  0.16995000  1.0 0.120129924
H  H46  1  0.89658000  0.67190000  0.33662000  1.0 0.120129924
H  H47  1  0.22468000  0.89658000  0.50329000  1.0 0.120129924
H  H48  1  0.32810000  0.22468000  0.66995000  1.0 0.120129924
H  H49  1  0.01296000  0.31574000  0.87083000  1.0 0.1395555088
H  H50  1  0.69722000  0.01296000  0.03750000  1.0 0.1395555088
H  H51  1  0.68426000  0.69722000  0.20416000  1.0 0.1395555088
H  H52  1  0.98704000  0.68426000  0.37083000  1.0 0.1395555088
H  H53  1  0.30278000  0.98704000  0.53750000  1.0 0.1395555088
H  H54  1  0.31574000  0.30278000  0.70416000  1.0 0.1395555088
H  H55  1  0.20776000  0.32919000  0.04252000  1.0 0.120129924
H  H56  1  0.87857000  0.20776000  0.20919000  1.0 0.120129924
H  H57  1  0.67081000  0.87857000  0.37585000  1.0 0.120129924
H  H58  1  0.79224000  0.67081000  0.54252000  1.0 0.120129924
H  H59  1  0.12143000  0.79224000  0.70919000  1.0 0.120129924
H  H60  1  0.32919000  0.12143000  0.87585000  1.0 0.120129924
H  H61  1  0.29223000  0.32860000  0.00700000  1.0 0.1395555088
H  H62  1  0.96363000  0.29223000  0.17367000  1.0 0.1395555088
H  H63  1  0.67140000  0.96363000  0.34033000  1.0 0.1395555088
H  H64  1  0.70777000  0.67140000  0.50700000  1.0 0.1395555088
H  H65  1  0.03637000  0.70777000  0.67367000  1.0 0.1395555088
H  H66  1  0.32860000  0.03637000  0.84033000  1.0 0.1395555088
H  H67  1  0.23612000  0.33718000  0.90080000  1.0 0.1296325809
H  H68  1  0.89894000  0.23612000  0.06747000  1.0 0.1296325809
H  H69  1  0.66282000  0.89894000  0.23413000  1.0 0.1296325809
H  H70  1  0.76388000  0.66282000  0.40080000  1.0 0.1296325809
H  H71  1  0.10106000  0.76388000  0.56747000  1.0 0.1296325809
H  H72  1  0.33718000  0.10106000  0.73413000  1.0 0.1296325809
H  H73  1  0.36314000  0.36452000  0.03903000  1.0 0.1296325809
H  H74  1  0.99862000  0.36314000  0.20570000  1.0 0.1296325809
H  H75  1  0.63548000  0.99862000  0.37236000  1.0 0.1296325809
H  H76  1  0.63686000  0.63548000  0.53903000  1.0 0.1296325809
H  H77  1  0.00138000  0.63686000  0.70570000  1.0 0.1296325809
H  H78  1  0.36452000  0.00138000  0.87236000  1.0 0.1296325809
H  H79  1  0.44930000  0.44736000  0.00207000  1.0 0.120129924
H  H80  1  0.00194000  0.44930000  0.16874000  1.0 0.120129924
H  H81  1  0.55264000  0.00194000  0.33540000  1.0 0.120129924
H  H82  1  0.55070000  0.55264000  0.50207000  1.0 0.120129924
H  H83  1  0.99806000  0.55070000  0.66874000  1.0 0.120129924
H  H84  1  0.44736000  0.99806000  0.83540000  1.0 0.120129924
H  H85  1  0.42088000  0.42935000  0.14399000  1.0 0.120129924
H  H86  1  0.99153000  0.42088000  0.31066000  1.0 0.120129924
H  H87  1  0.57065000  0.99153000  0.47732000  1.0 0.120129924
H  H88  1  0.57912000  0.57065000  0.64399000  1.0 0.120129924
H  H89  1  0.00847000  0.57912000  0.81066000  1.0 0.120129924
H  H90  1  0.42935000  0.00847000  0.97732000  1.0 0.120129924
H  H91  1  0.45368000  0.48839000  0.14834000  1.0 0.1296325809
H  H92  1  0.96529000  0.45368000  0.31501000  1.0 0.1296325809
H  H93  1  0.51161000  0.96529000  0.48167000  1.0 0.1296325809
H  H94  1  0.54632000  0.51161000  0.64834000  1.0 0.1296325809
H  H95  1  0.03471000  0.54632000  0.81501000  1.0 0.1296325809
H  H96  1  0.48839000  0.03471000  0.98167000  1.0 0.1296325809
H  H97  1  0.50528000  0.53377000  0.16989000  1.0 0.1103970665
H  H98  1  0.97151000  0.50528000  0.33656000  1.0 0.1103970665
H  H99  1  0.46623000  0.97151000  0.50322000  1.0 0.1103970665
H  H100  1  0.49472000  0.46623000  0.66989000  1.0 0.1103970665
H  H101  1  0.02849000  0.49472000  0.83656000  1.0 0.1103970665
H  H102  1  0.53377000  0.02849000  0.00322000  1.0 0.1103970665
H  H103  1  0.54892000  0.51179000  0.05898000  1.0 0.1296325809
H  H104  1  0.03713000  0.54892000  0.22565000  1.0 0.1296325809
H  H105  1  0.48821000  0.03713000  0.39231000  1.0 0.1296325809
H  H106  1  0.45108000  0.48821000  0.55898000  1.0 0.1296325809
H  H107  1  0.96287000  0.45108000  0.72565000  1.0 0.1296325809
H  H108  1  0.51179000  0.96287000  0.89231000  1.0 0.1296325809
H  H109  1  0.49732000  0.46642000  0.03742000  1.0 0.1103970665
H  H110  1  0.03090000  0.49732000  0.20409000  1.0 0.1103970665
H  H111  1  0.53358000  0.03090000  0.37075000  1.0 0.1103970665
H  H112  1  0.50268000  0.53358000  0.53742000  1.0 0.1103970665
H  H113  1  0.96910000  0.50268000  0.70409000  1.0 0.1103970665
H  H114  1  0.46642000  0.96910000  0.87075000  1.0 0.1103970665
H  H115  1  0.34893000  0.31993000  0.32755000  1.0 0.1480179948
H  H116  1  0.02900000  0.34893000  0.49422000  1.0 0.1480179948
H  H117  1  0.68007000  0.02900000  0.66088000  1.0 0.1480179948
H  H118  1  0.65107000  0.68007000  0.82755000  1.0 0.1480179948
H  H119  1  0.97100000  0.65107000  0.99422000  1.0 0.1480179948
H  H120  1  0.31993000  0.97100000  0.16088000  1.0 0.1480179948
H  H121  1  0.58257000  0.57580000  0.06829000  1.0 0.120129924
H  H122  1  0.00677000  0.58257000  0.23496000  1.0 0.120129924
H  H123  1  0.42420000  0.00677000  0.40162000  1.0 0.120129924
H  H124  1  0.41743000  0.42420000  0.56829000  1.0 0.120129924
H  H125  1  0.99323000  0.41743000  0.73496000  1.0 0.120129924
H  H126  1  0.57580000  0.99323000  0.90162000  1.0 0.120129924
H  H127  1  0.55356000  0.55007000  0.20882000  1.0 0.120129924
H  H128  1  0.00349000  0.55356000  0.37549000  1.0 0.120129924
H  H129  1  0.44993000  0.00349000  0.54215000  1.0 0.120129924
H  H130  1  0.44644000  0.44993000  0.70882000  1.0 0.120129924
H  H131  1  0.99651000  0.44644000  0.87549000  1.0 0.120129924
H  H132  1  0.55007000  0.99651000  0.04215000  1.0 0.120129924
H  H133  1  0.64608000  0.62621000  0.17886000  1.0 0.1296325809
H  H134  1  0.01987000  0.64608000  0.34553000  1.0 0.1296325809
H  H135  1  0.37379000  0.01987000  0.51219000  1.0 0.1296325809
H  H136  1  0.35392000  0.37379000  0.67886000  1.0 0.1296325809
H  H137  1  0.98013000  0.35392000  0.84553000  1.0 0.1296325809
H  H138  1  0.62621000  0.98013000  0.01219000  1.0 0.1296325809
H  H139  1  0.28361000  0.41591000  0.74748000  1.0 0.1612770316
H  H140  1  0.86770000  0.28361000  0.91415000  1.0 0.1612770316
H  H141  1  0.58409000  0.86770000  0.08081000  1.0 0.1612770316
H  H142  1  0.71639000  0.58409000  0.24748000  1.0 0.1612770316
H  H143  1  0.13230000  0.71639000  0.41415000  1.0 0.1612770316
H  H144  1  0.41591000  0.13230000  0.58081000  1.0 0.1612770316
H  H145  1  0.29513000  0.46838000  0.63692000  1.0 0.1657828658
H  H146  1  0.82675000  0.29513000  0.80359000  1.0 0.1657828658
H  H147  1  0.53162000  0.82675000  0.97025000  1.0 0.1657828658
H  H148  1  0.70487000  0.53162000  0.13692000  1.0 0.1657828658
H  H149  1  0.17325000  0.70487000  0.30359000  1.0 0.1657828658
H  H150  1  0.46838000  0.17325000  0.47025000  1.0 0.1657828658
H  H151  1  0.33226000  0.12483000  0.16557000  1.0 0.120129924
H  H152  1  0.20743000  0.33226000  0.33224000  1.0 0.120129924
H  H153  1  0.87517000  0.20743000  0.49890000  1.0 0.120129924
H  H154  1  0.66774000  0.87517000  0.66557000  1.0 0.120129924
H  H155  1  0.79257000  0.66774000  0.83224000  1.0 0.120129924
H  H156  1  0.12483000  0.79257000  0.99890000  1.0 0.120129924
H  H157  1  0.33800000  0.09986000  0.30853000  1.0 0.1296325809
H  H158  1  0.23814000  0.33800000  0.47520000  1.0 0.1296325809
H  H159  1  0.90014000  0.23814000  0.64186000  1.0 0.1296325809
H  H160  1  0.66200000  0.90014000  0.80853000  1.0 0.1296325809
H  H161  1  0.76186000  0.66200000  0.97520000  1.0 0.1296325809
H  H162  1  0.09986000  0.76186000  0.14186000  1.0 0.1296325809
H  H163  1  0.42688000  0.27792000  0.54170000  1.0 0.1395555088
H  H164  1  0.14896000  0.42688000  0.70837000  1.0 0.1395555088
H  H165  1  0.72208000  0.14896000  0.87503000  1.0 0.1395555088
H  H166  1  0.57312000  0.72208000  0.04170000  1.0 0.1395555088
H  H167  1  0.85104000  0.57312000  0.20837000  1.0 0.1395555088
H  H168  1  0.27792000  0.85104000  0.37503000  1.0 0.1395555088
H  H169  1  0.45858000  0.36541000  0.47101000  1.0 0.120129924
H  H170  1  0.09317000  0.45858000  0.63768000  1.0 0.120129924
H  H171  1  0.63459000  0.09317000  0.80434000  1.0 0.120129924
H  H172  1  0.54142000  0.63459000  0.97101000  1.0 0.120129924
H  H173  1  0.90683000  0.54142000  0.13768000  1.0 0.120129924
H  H174  1  0.36541000  0.90683000  0.30434000  1.0 0.120129924
H  H175  1  0.52368000  0.33388000  0.50226000  1.0 0.120129924
H  H176  1  0.18980000  0.52368000  0.66893000  1.0 0.120129924
H  H177  1  0.66612000  0.18980000  0.83559000  1.0 0.120129924
H  H178  1  0.47632000  0.66612000  0.00226000  1.0 0.120129924
H  H179  1  0.81020000  0.47632000  0.16893000  1.0 0.120129924
H  H180  1  0.33388000  0.81020000  0.33559000  1.0 0.120129924
H  H181  1  0.15639000  0.30149000  0.00838000  1.0 0.120129924
H  H182  1  0.85490000  0.15639000  0.17505000  1.0 0.120129924
H  H183  1  0.69851000  0.85490000  0.34171000  1.0 0.120129924
H  H184  1  0.84361000  0.69851000  0.50838000  1.0 0.120129924
H  H185  1  0.14510000  0.84361000  0.67505000  1.0 0.120129924
H  H186  1  0.30149000  0.14510000  0.84171000  1.0 0.120129924
H  H187  1  0.10735000  0.30060000  0.98569000  1.0 0.120129924
H  H188  1  0.80675000  0.10735000  0.15236000  1.0 0.120129924
H  H189  1  0.69940000  0.80675000  0.31902000  1.0 0.120129924
H  H190  1  0.89265000  0.69940000  0.48569000  1.0 0.120129924
H  H191  1  0.19325000  0.89265000  0.65236000  1.0 0.120129924
H  H192  1  0.30060000  0.19325000  0.81902000  1.0 0.120129924
H  H193  1  0.15401000  0.35689000  0.86692000  1.0 0.120129924
H  H194  1  0.79712000  0.15401000  0.03359000  1.0 0.120129924
H  H195  1  0.64311000  0.79712000  0.20025000  1.0 0.120129924
H  H196  1  0.84599000  0.64311000  0.36692000  1.0 0.120129924
H  H197  1  0.20288000  0.84599000  0.53359000  1.0 0.120129924
H  H198  1  0.35689000  0.20288000  0.70025000  1.0 0.120129924
H  H199  1  0.20305000  0.35778000  0.88960000  1.0 0.120129924
H  H200  1  0.84527000  0.20305000  0.05627000  1.0 0.120129924
H  H201  1  0.64222000  0.84527000  0.22293000  1.0 0.120129924
H  H202  1  0.79695000  0.64222000  0.38960000  1.0 0.120129924
H  H203  1  0.15473000  0.79695000  0.55627000  1.0 0.120129924
H  H204  1  0.35778000  0.15473000  0.72293000  1.0 0.120129924
H  H205  1  0.34604000  0.47203000  0.19781000  1.0 0.1296325809
H  H206  1  0.87401000  0.34604000  0.36448000  1.0 0.1296325809
H  H207  1  0.52797000  0.87401000  0.53114000  1.0 0.1296325809
H  H208  1  0.65396000  0.52797000  0.69781000  1.0 0.1296325809
H  H209  1  0.12599000  0.65396000  0.86448000  1.0 0.1296325809
H  H210  1  0.47203000  0.12599000  0.03114000  1.0 0.1296325809
H  H211  1  0.25124000  0.41782000  0.14870000  1.0 0.1296325809
H  H212  1  0.83342000  0.25124000  0.31537000  1.0 0.1296325809
H  H213  1  0.58218000  0.83342000  0.48203000  1.0 0.1296325809
H  H214  1  0.74876000  0.58218000  0.64870000  1.0 0.1296325809
H  H215  1  0.16658000  0.74876000  0.81537000  1.0 0.1296325809
H  H216  1  0.41782000  0.16658000  0.98203000  1.0 0.1296325809
H  H217  1  0.29970000  0.51844000  0.13970000  1.0 0.1103970665
H  H218  1  0.78126000  0.29970000  0.30637000  1.0 0.1103970665
H  H219  1  0.48156000  0.78126000  0.47303000  1.0 0.1103970665
H  H220  1  0.70030000  0.48156000  0.63970000  1.0 0.1103970665
H  H221  1  0.21874000  0.70030000  0.80637000  1.0 0.1103970665
H  H222  1  0.51844000  0.21874000  0.97303000  1.0 0.1103970665
H  H223  1  0.38169000  0.46459000  0.29079000  1.0 0.1296325809
H  H224  1  0.91710000  0.38169000  0.45746000  1.0 0.1296325809
H  H225  1  0.53541000  0.91710000  0.62412000  1.0 0.1296325809
H  H226  1  0.61831000  0.53541000  0.79079000  1.0 0.1296325809
H  H227  1  0.08290000  0.61831000  0.95746000  1.0 0.1296325809
H  H228  1  0.46459000  0.08290000  0.12412000  1.0 0.1296325809
H  H229  1  0.34693000  0.40647000  0.41141000  1.0 0.120129924
H  H230  1  0.94046000  0.34693000  0.57808000  1.0 0.120129924
H  H231  1  0.59353000  0.94046000  0.74474000  1.0 0.120129924
H  H232  1  0.65307000  0.59353000  0.91141000  1.0 0.120129924
H  H233  1  0.05954000  0.65307000  0.07808000  1.0 0.120129924
H  H234  1  0.40647000  0.05954000  0.24474000  1.0 0.120129924
H  H235  1  0.35515000  0.49761000  0.41014000  1.0 0.120129924
H  H236  1  0.85754000  0.35515000  0.57681000  1.0 0.120129924
H  H237  1  0.50239000  0.85754000  0.74347000  1.0 0.120129924
H  H238  1  0.64485000  0.50239000  0.91014000  1.0 0.120129924
H  H239  1  0.14246000  0.64485000  0.07681000  1.0 0.120129924
H  H240  1  0.49761000  0.14246000  0.24347000  1.0 0.120129924
H  H241  1  0.49720000  0.39804000  0.41203000  1.0 0.120129924
H  H242  1  0.09916000  0.49720000  0.57870000  1.0 0.120129924
H  H243  1  0.60196000  0.09916000  0.74536000  1.0 0.120129924
H  H244  1  0.50280000  0.60196000  0.91203000  1.0 0.120129924
H  H245  1  0.90084000  0.50280000  0.07870000  1.0 0.120129924
H  H246  1  0.39804000  0.90084000  0.24536000  1.0 0.120129924
H  H247  1  0.54341000  0.44292000  0.37541000  1.0 0.120129924
H  H248  1  0.10049000  0.54341000  0.54208000  1.0 0.120129924
H  H249  1  0.55708000  0.10049000  0.70874000  1.0 0.120129924
H  H250  1  0.45659000  0.55708000  0.87541000  1.0 0.120129924
H  H251  1  0.89951000  0.45659000  0.04208000  1.0 0.120129924
H  H252  1  0.44292000  0.89951000  0.20874000  1.0 0.120129924
H  H253  1  0.60447000  0.43021000  0.46765000  1.0 0.120129924
H  H254  1  0.17426000  0.60447000  0.63432000  1.0 0.120129924
H  H255  1  0.56979000  0.17426000  0.80098000  1.0 0.120129924
H  H256  1  0.39553000  0.56979000  0.96765000  1.0 0.120129924
H  H257  1  0.82574000  0.39553000  0.13432000  1.0 0.120129924
H  H258  1  0.43021000  0.82574000  0.30098000  1.0 0.120129924
H  H259  1  0.55827000  0.38533000  0.50427000  1.0 0.120129924
H  H260  1  0.17294000  0.55827000  0.67094000  1.0 0.120129924
H  H261  1  0.61467000  0.17294000  0.83760000  1.0 0.120129924
H  H262  1  0.44173000  0.61467000  0.00427000  1.0 0.120129924
H  H263  1  0.82706000  0.44173000  0.17094000  1.0 0.120129924
H  H264  1  0.38533000  0.82706000  0.33760000  1.0 0.120129924
H  H265  1  0.36584000  0.49281000  0.49384000  1.0 0.120129924
H  H266  1  0.87303000  0.36584000  0.66051000  1.0 0.120129924
H  H267  1  0.50719000  0.87303000  0.82717000  1.0 0.120129924
H  H268  1  0.63416000  0.50719000  0.99384000  1.0 0.120129924
H  H269  1  0.12697000  0.63416000  0.16051000  1.0 0.120129924
H  H270  1  0.49281000  0.12697000  0.32717000  1.0 0.120129924
H  H271  1  0.34596000  0.48346000  0.57418000  1.0 0.120129924
H  H272  1  0.86250000  0.34596000  0.74085000  1.0 0.120129924
H  H273  1  0.51654000  0.86250000  0.90751000  1.0 0.120129924
H  H274  1  0.65404000  0.51654000  0.07418000  1.0 0.120129924
H  H275  1  0.13750000  0.65404000  0.24085000  1.0 0.120129924
H  H276  1  0.48346000  0.13750000  0.40751000  1.0 0.120129924
H  H277  1  0.28722000  0.38535000  0.54429000  1.0 0.1296325809
H  H278  1  0.90187000  0.28722000  0.71096000  1.0 0.1296325809
H  H279  1  0.61465000  0.90187000  0.87762000  1.0 0.1296325809
H  H280  1  0.71278000  0.61465000  0.04429000  1.0 0.1296325809
H  H281  1  0.09813000  0.71278000  0.21096000  1.0 0.1296325809
H  H282  1  0.38535000  0.09813000  0.37762000  1.0 0.1296325809
H  H283  1  0.30710000  0.39469000  0.46394000  1.0 0.1103970665
H  H284  1  0.91241000  0.30710000  0.63061000  1.0 0.1103970665
H  H285  1  0.60531000  0.91241000  0.79727000  1.0 0.1103970665
H  H286  1  0.69290000  0.60531000  0.96394000  1.0 0.1103970665
H  H287  1  0.08759000  0.69290000  0.13061000  1.0 0.1103970665
H  H288  1  0.39469000  0.08759000  0.29727000  1.0 0.1103970665
H  H289  1  0.33341000  0.19089000  0.34795000  1.0 0.1103970665
H  H290  1  0.14252000  0.33341000  0.51462000  1.0 0.1103970665
H  H291  1  0.80911000  0.14252000  0.68128000  1.0 0.1103970665
H  H292  1  0.66659000  0.80911000  0.84795000  1.0 0.1103970665
H  H293  1  0.85748000  0.66659000  0.01462000  1.0 0.1103970665
H  H294  1  0.19089000  0.85748000  0.18128000  1.0 0.1103970665
H  H295  1  0.34301000  0.14724000  0.32903000  1.0 0.1296325809
H  H296  1  0.19577000  0.34301000  0.49570000  1.0 0.1296325809
H  H297  1  0.85276000  0.19577000  0.66236000  1.0 0.1296325809
H  H298  1  0.65699000  0.85276000  0.82903000  1.0 0.1296325809
H  H299  1  0.80423000  0.65699000  0.99570000  1.0 0.1296325809
H  H300  1  0.14724000  0.80423000  0.16236000  1.0 0.1296325809
H  H301  1  0.33181000  0.15953000  0.18503000  1.0 0.1103970665
H  H302  1  0.17228000  0.33181000  0.35170000  1.0 0.1103970665
H  H303  1  0.84047000  0.17228000  0.51836000  1.0 0.1103970665
H  H304  1  0.66819000  0.84047000  0.68503000  1.0 0.1103970665
H  H305  1  0.82772000  0.66819000  0.85170000  1.0 0.1103970665
H  H306  1  0.15953000  0.82772000  0.01836000  1.0 0.1103970665
H  H307  1  0.32220000  0.20318000  0.20395000  1.0 0.120129924
H  H308  1  0.11902000  0.32220000  0.37062000  1.0 0.120129924
H  H309  1  0.79682000  0.11902000  0.53728000  1.0 0.120129924
H  H310  1  0.67780000  0.79682000  0.70395000  1.0 0.120129924
H  H311  1  0.88098000  0.67780000  0.87062000  1.0 0.120129924
H  H312  1  0.20318000  0.88098000  0.03728000  1.0 0.120129924
H  H313  1  0.26969000  0.51179000  0.08094000  1.0 0.120129924
H  H314  1  0.75790000  0.26969000  0.24761000  1.0 0.120129924
H  H315  1  0.48821000  0.75790000  0.41427000  1.0 0.120129924
H  H316  1  0.73031000  0.48821000  0.58094000  1.0 0.120129924
H  H317  1  0.24210000  0.73031000  0.74761000  1.0 0.120129924
H  H318  1  0.51179000  0.24210000  0.91427000  1.0 0.120129924
H  H319  1  0.22709000  0.51473000  0.03966000  1.0 0.120129924
H  H320  1  0.71236000  0.22709000  0.20633000  1.0 0.120129924
H  H321  1  0.48527000  0.71236000  0.37299000  1.0 0.120129924
H  H322  1  0.77291000  0.48527000  0.53966000  1.0 0.120129924
H  H323  1  0.28764000  0.77291000  0.70633000  1.0 0.120129924
H  H324  1  0.51473000  0.28764000  0.87299000  1.0 0.120129924
H  H325  1  0.15918000  0.42681000  0.09970000  1.0 0.120129924
H  H326  1  0.73237000  0.15918000  0.26637000  1.0 0.120129924
H  H327  1  0.57319000  0.73237000  0.43303000  1.0 0.120129924
H  H328  1  0.84082000  0.57319000  0.59970000  1.0 0.120129924
H  H329  1  0.26763000  0.84082000  0.76637000  1.0 0.120129924
H  H330  1  0.42681000  0.26763000  0.93303000  1.0 0.120129924
H  H331  1  0.20178000  0.42387000  0.14098000  1.0 0.120129924
H  H332  1  0.77791000  0.20178000  0.30765000  1.0 0.120129924
H  H333  1  0.57613000  0.77791000  0.47431000  1.0 0.120129924
H  H334  1  0.79822000  0.57613000  0.64098000  1.0 0.120129924
H  H335  1  0.22209000  0.79822000  0.80765000  1.0 0.120129924
H  H336  1  0.42387000  0.22209000  0.97431000  1.0 0.120129924
H  H337  1  0.09029000  0.48788000  0.00633000  1.0 0.1296325809
H  H338  1  0.60241000  0.09029000  0.17300000  1.0 0.1296325809
H  H339  1  0.51212000  0.60241000  0.33966000  1.0 0.1296325809
H  H340  1  0.90971000  0.51212000  0.50633000  1.0 0.1296325809
H  H341  1  0.39759000  0.90971000  0.67300000  1.0 0.1296325809
H  H342  1  0.48788000  0.39759000  0.83966000  1.0 0.1296325809
H  H343  1  0.18899000  0.52211000  0.03114000  1.0 0.1103970665
H  H344  1  0.66688000  0.18899000  0.19781000  1.0 0.1103970665
H  H345  1  0.47789000  0.66688000  0.36447000  1.0 0.1103970665
H  H346  1  0.81101000  0.47789000  0.53114000  1.0 0.1103970665
H  H347  1  0.33312000  0.81101000  0.69781000  1.0 0.1103970665
H  H348  1  0.52211000  0.33312000  0.86447000  1.0 0.1103970665
H  H349  1  0.12067000  0.42836000  0.06642000  1.0 0.120129924
H  H350  1  0.69231000  0.12067000  0.23309000  1.0 0.120129924
H  H351  1  0.57164000  0.69231000  0.39975000  1.0 0.120129924
H  H352  1  0.87933000  0.57164000  0.56642000  1.0 0.120129924
H  H353  1  0.30769000  0.87933000  0.73309000  1.0 0.120129924
H  H354  1  0.42836000  0.30769000  0.89975000  1.0 0.120129924
H  H355  1  0.46714000  0.64267000  0.10229000  1.0 0.1395555088
H  H356  1  0.82447000  0.46714000  0.26896000  1.0 0.1395555088
H  H357  1  0.35733000  0.82447000  0.43562000  1.0 0.1395555088
H  H358  1  0.53286000  0.35733000  0.60229000  1.0 0.1395555088
H  H359  1  0.17553000  0.53286000  0.76896000  1.0 0.1395555088
H  H360  1  0.64267000  0.17553000  0.93562000  1.0 0.1395555088
H  H361  1  0.47556000  0.64396000  0.15922000  1.0 0.1867787046
H  H362  1  0.83160000  0.47556000  0.32589000  1.0 0.1867787046
H  H363  1  0.35604000  0.83160000  0.49255000  1.0 0.1867787046
H  H364  1  0.52444000  0.35604000  0.65922000  1.0 0.1867787046
H  H365  1  0.16840000  0.52444000  0.82589000  1.0 0.1867787046
H  H366  1  0.64396000  0.16840000  0.99255000  1.0 0.1867787046
H  H367  1  0.45482000  0.66071000  0.13982000  1.0 0.1791192946
H  H368  1  0.79411000  0.45482000  0.30649000  1.0 0.1791192946
H  H369  1  0.33929000  0.79411000  0.47315000  1.0 0.1791192946
H  H370  1  0.54518000  0.33929000  0.63982000  1.0 0.1791192946
H  H371  1  0.20589000  0.54518000  0.80649000  1.0 0.1791192946
H  H372  1  0.66071000  0.20589000  0.97315000  1.0 0.1791192946
H  H373  1  0.62065000  0.36316000  0.52275000  1.0 0.1395555088
H  H374  1  0.25749000  0.62065000  0.68942000  1.0 0.1395555088
H  H375  1  0.63684000  0.25749000  0.85608000  1.0 0.1296325809
H  H376  1  0.37935000  0.63684000  0.02275000  1.0 0.1395555088
H  H377  1  0.74251000  0.37935000  0.18942000  1.0 0.1395555088
H  H378  1  0.36316000  0.74251000  0.35608000  1.0 0.1395555088
H  H379  1  0.62281000  0.36481000  0.58112000  1.0 0.1657828658
H  H380  1  0.25800000  0.62281000  0.74779000  1.0 0.1657828658
H  H381  1  0.63519000  0.25800000  0.91445000  1.0 0.1657828658
H  H382  1  0.37719000  0.63519000  0.08112000  1.0 0.1657828658
H  H383  1  0.74200000  0.37719000  0.24779000  1.0 0.1657828658
H  H384  1  0.36481000  0.74200000  0.41445000  1.0 0.1657828658
H  H385  1  0.59173000  0.36366000  0.55392000  1.0 0.1395555088
H  H386  1  0.22807000  0.59173000  0.72059000  1.0 0.1395555088
H  H387  1  0.63634000  0.22807000  0.88725000  1.0 0.1395555088
H  H388  1  0.40827000  0.63634000  0.05392000  1.0 0.1395555088
H  H389  1  0.77193000  0.40827000  0.22059000  1.0 0.1395555088
H  H390  1  0.36366000  0.77193000  0.38725000  1.0 0.1395555088
H  H391  1  0.38857000  0.68179000  0.32947000  1.0 0.1395555088
H  H392  1  0.70678000  0.38857000  0.49614000  1.0 0.1395555088
H  H393  1  0.31821000  0.70678000  0.66280000  1.0 0.1395555088
H  H394  1  0.61143000  0.31821000  0.82947000  1.0 0.1395555088
H  H395  1  0.29322000  0.61143000  0.99614000  1.0 0.1395555088
H  H396  1  0.68179000  0.29322000  0.16280000  1.0 0.1395555088
H  H397  1  0.38472000  0.68546000  0.27205000  1.0 0.1791192946
H  H398  1  0.69926000  0.38472000  0.43872000  1.0 0.1791192946
H  H399  1  0.31454000  0.69926000  0.60538000  1.0 0.1791192946
H  H400  1  0.61528000  0.31454000  0.77205000  1.0 0.1791192946
H  H401  1  0.30074000  0.61528000  0.93872000  1.0 0.1791192946
H  H402  1  0.68546000  0.30074000  0.10538000  1.0 0.1791192946
H  H403  1  0.42085000  0.69882000  0.29528000  1.0 0.1612770316
H  H404  1  0.72203000  0.42085000  0.46195000  1.0 0.1657828658
H  H405  1  0.30118000  0.72203000  0.62861000  1.0 0.1612770316
H  H406  1  0.57915000  0.30118000  0.79528000  1.0 0.1657828658
H  H407  1  0.27797000  0.57915000  0.96195000  1.0 0.1612770316
H  H408  1  0.69882000  0.27797000  0.12861000  1.0 0.1657828658
H  H409  1  0.48857000  0.30191000  0.74864000  1.0 0.1657828658
H  H410  1  0.18666000  0.48857000  0.91531000  1.0 0.1657828658
H  H411  1  0.69809000  0.18666000  0.08197000  1.0 0.1657828658
H  H412  1  0.51143000  0.69809000  0.24864000  1.0 0.1657828658
H  H413  1  0.81334000  0.51143000  0.41531000  1.0 0.1657828658
H  H414  1  0.30191000  0.81334000  0.58197000  1.0 0.1657828658
H  H415  1  0.52176000  0.33382000  0.72945000  1.0 0.1791192946
H  H416  1  0.18794000  0.52176000  0.89612000  1.0 0.1791192946
H  H417  1  0.66618000  0.18794000  0.06278000  1.0 0.1791192946
H  H418  1  0.47824000  0.66618000  0.22945000  1.0 0.1791192946
H  H419  1  0.81206000  0.47824000  0.39612000  1.0 0.1791192946
H  H420  1  0.33382000  0.81206000  0.56278000  1.0 0.1791192946
H  H421  1  0.52350000  0.31255000  0.77420000  1.0 0.1612770316
H  H422  1  0.21095000  0.52350000  0.94087000  1.0 0.1612770316
H  H423  1  0.68745000  0.21095000  0.10753000  1.0 0.1612770316
H  H424  1  0.47650000  0.68745000  0.27420000  1.0 0.1612770316
H  H425  1  0.78905000  0.47650000  0.44087000  1.0 0.1612770316
H  H426  1  0.31255000  0.78905000  0.60753000  1.0 0.1612770316
C  C1  1  0.36260000  0.37320000  0.13960000  1.0 0.5836699345
C  C2  1  0.98940000  0.36260000  0.30627000  1.0 0.5836699345
C  C3  1  0.62680000  0.98940000  0.47293000  1.0 0.5893666806
C  C4  1  0.63740000  0.62680000  0.63960000  1.0 0.5836699345
C  C5  1  0.01060000  0.63740000  0.80627000  1.0 0.5893666806
C  C6  1  0.37320000  0.01060000  0.97293000  1.0 0.5836699345
C  C7  1  0.64090000  0.62570000  0.07920000  1.0 0.5503789465
C  C8  1  0.01520000  0.64090000  0.24587000  1.0 0.5503789465
C  C9  1  0.37430000  0.01520000  0.41253000  1.0 0.5503789465
C  C10  1  0.35910000  0.37430000  0.57920000  1.0 0.5503789465
C  C11  1  0.98480000  0.35910000  0.74587000  1.0 0.5503789465
C  C12  1  0.62570000  0.98480000  0.91253000  1.0 0.5503789465
C  C13  1  0.33840000  0.27530000  0.36460000  1.0 -0.091719629
C  C14  1  0.06310000  0.33840000  0.53127000  1.0 -0.091719629
C  C15  1  0.72470000  0.06310000  0.69793000  1.0 -0.0999029287
C  C16  1  0.66160000  0.72470000  0.86460000  1.0 -0.0999029287
C  C17  1  0.93690000  0.66160000  0.03127000  1.0 -0.091719629
C  C18  1  0.27530000  0.93690000  0.19793000  1.0 -0.091719629
C  C19  1  0.33220000  0.24450000  0.34550000  1.0 -0.1400972729
C  C20  1  0.08770000  0.33220000  0.51217000  1.0 -0.1400972729
C  C21  1  0.75550000  0.08770000  0.67883000  1.0 -0.1400972729
C  C22  1  0.66780000  0.75550000  0.84550000  1.0 -0.1400972729
C  C23  1  0.91230000  0.66780000  0.01217000  1.0 -0.1400972729
C  C24  1  0.24450000  0.91230000  0.17883000  1.0 -0.1400972729
C  C25  1  0.33290000  0.30890000  0.24950000  1.0 0.5298282352
C  C26  1  0.02400000  0.33290000  0.41617000  1.0 0.5298282352
C  C27  1  0.69110000  0.02400000  0.58283000  1.0 0.5298282352
C  C28  1  0.66710000  0.69110000  0.74950000  1.0 0.5298282352
C  C29  1  0.97600000  0.66710000  0.91617000  1.0 0.5298282352
C  C30  1  0.30890000  0.97600000  0.08283000  1.0 0.5298282352
C  C31  1  0.02270000  0.32690000  0.97040000  1.0 0.603502765
C  C32  1  0.69580000  0.02270000  0.13707000  1.0 0.603502765
C  C33  1  0.67310000  0.69580000  0.30373000  1.0 0.603502765
C  C34  1  0.97730000  0.67310000  0.47040000  1.0 0.603502765
C  C35  1  0.30420000  0.97730000  0.63707000  1.0 0.603502765
C  C36  1  0.32690000  0.30420000  0.80373000  1.0 0.603502765
C  C37  1  0.25760000  0.32120000  0.08560000  1.0 0.5698651122
C  C38  1  0.93640000  0.25760000  0.25227000  1.0 0.5698651122
C  C39  1  0.67880000  0.93640000  0.41893000  1.0 0.5698651122
C  C40  1  0.74240000  0.67880000  0.58560000  1.0 0.5698651122
C  C41  1  0.06360000  0.74240000  0.75227000  1.0 0.5698651122
C  C42  1  0.32120000  0.06360000  0.91893000  1.0 0.5698651122
C  C43  1  0.33010000  0.28440000  0.28070000  1.0 -0.05960445
C  C44  1  0.04570000  0.33010000  0.44737000  1.0 -0.05960445
C  C45  1  0.71560000  0.04570000  0.61403000  1.0 -0.05960445
C  C46  1  0.66990000  0.71560000  0.78070000  1.0 -0.05960445
C  C47  1  0.95430000  0.66990000  0.94737000  1.0 -0.05960445
C  C48  1  0.28440000  0.95430000  0.11403000  1.0 -0.0507186062
C  C49  1  0.29400000  0.33910000  0.91240000  1.0 0.5503789465
C  C50  1  0.95490000  0.29400000  0.07907000  1.0 0.5503789465
C  C51  1  0.66090000  0.95490000  0.24573000  1.0 0.5503789465
C  C52  1  0.70600000  0.66090000  0.41240000  1.0 0.5503789465
C  C53  1  0.04510000  0.70600000  0.57907000  1.0 0.5503789465
C  C54  1  0.33910000  0.04510000  0.74573000  1.0 0.5503789465
C  C55  1  0.27410000  0.46860000  0.72150000  1.0 0.5503789465
C  C56  1  0.80550000  0.27410000  0.88817000  1.0 0.5503789465
C  C57  1  0.53140000  0.80550000  0.05483000  1.0 0.5503789465
C  C58  1  0.72590000  0.53140000  0.22150000  1.0 0.5503789465
C  C59  1  0.19450000  0.72590000  0.38817000  1.0 0.5503789465
C  C60  1  0.46860000  0.19450000  0.55483000  1.0 0.5503789465
C  C61  1  0.33740000  0.04400000  0.30150000  1.0 0.5836699345
C  C62  1  0.29340000  0.33740000  0.46817000  1.0 0.5836699345
C  C63  1  0.95600000  0.29340000  0.63483000  1.0 0.5836699345
C  C64  1  0.66260000  0.95600000  0.80150000  1.0 0.5836699345
C  C65  1  0.70660000  0.66260000  0.96817000  1.0 0.5836699345
C  C66  1  0.04400000  0.70660000  0.13483000  1.0 0.5836699345
C  C67  1  0.32940000  0.25410000  0.26510000  1.0 -0.149630615
C  C68  1  0.07530000  0.32940000  0.43177000  1.0 -0.149630615
C  C69  1  0.74590000  0.07530000  0.59843000  1.0 -0.149630615
C  C70  1  0.67060000  0.74590000  0.76510000  1.0 -0.149630615
C  C71  1  0.92470000  0.67060000  0.93177000  1.0 -0.149630615
C  C72  1  0.25410000  0.92470000  0.09843000  1.0 -0.149630615
C  C73  1  0.29090000  0.39600000  0.69900000  1.0 -0.0114327834
C  C74  1  0.89490000  0.29090000  0.86567000  1.0 -0.0114327834
C  C75  1  0.60400000  0.89490000  0.03233000  1.0 -0.0114327834
C  C76  1  0.70910000  0.60400000  0.19900000  1.0 -0.0114327834
C  C77  1  0.10510000  0.70910000  0.36567000  1.0 -0.0114327834
C  C78  1  0.39600000  0.10510000  0.53233000  1.0 -0.0114327834
C  C79  1  0.32900000  0.23320000  0.29950000  1.0 0.0709448832
C  C80  1  0.09580000  0.32900000  0.46617000  1.0 0.0709448832
C  C81  1  0.76680000  0.09580000  0.63283000  1.0 0.0709448832
C  C82  1  0.67100000  0.76680000  0.79950000  1.0 0.0709448832
C  C83  1  0.90420000  0.67100000  0.96617000  1.0 0.0709448832
C  C84  1  0.23320000  0.90420000  0.13283000  1.0 0.0709448832
C  C85  1  0.60660000  0.47020000  0.39290000  1.0 0.0523691214
C  C86  1  0.13640000  0.60660000  0.55957000  1.0 0.0523691214
C  C87  1  0.52980000  0.13640000  0.72623000  1.0 0.0523691214
C  C88  1  0.39340000  0.52980000  0.89290000  1.0 0.0523691214
C  C89  1  0.86360000  0.39340000  0.05957000  1.0 0.0523691214
C  C90  1  0.47020000  0.86360000  0.22623000  1.0 0.0523691214
C  C91  1  0.60800000  0.50000000  0.38060000  1.0 -0.1197289104
C  C92  1  0.10800000  0.60800000  0.54727000  1.0 -0.1197289104
C  C93  1  0.50000000  0.10800000  0.71393000  1.0 -0.1197289104
C  C94  1  0.39200000  0.50000000  0.88060000  1.0 -0.1197289104
C  C95  1  0.89200000  0.39200000  0.04727000  1.0 -0.1197289104
C  C96  1  0.50000000  0.89200000  0.21393000  1.0 -0.1197289104
C  C97  1  0.63760000  0.52660000  0.36360000  1.0 -0.0841436355
C  C98  1  0.11100000  0.63760000  0.53027000  1.0 -0.0841436355
C  C99  1  0.47340000  0.11100000  0.69693000  1.0 -0.0841436355
C  C100  1  0.36240000  0.47340000  0.86360000  1.0 -0.0841436355
C  C101  1  0.88900000  0.36240000  0.03027000  1.0 -0.0841436355
C  C102  1  0.52660000  0.88900000  0.19693000  1.0 -0.0841436355
C  C103  1  0.66580000  0.52350000  0.35900000  1.0 -0.0507186062
C  C104  1  0.14230000  0.66580000  0.52567000  1.0 -0.0507186062
C  C105  1  0.47650000  0.14230000  0.69233000  1.0 -0.0507186062
C  C106  1  0.33420000  0.47650000  0.85900000  1.0 -0.0507186062
C  C107  1  0.85770000  0.33420000  0.02567000  1.0 -0.0507186062
C  C108  1  0.52350000  0.85770000  0.19233000  1.0 -0.0507186062
C  C109  1  0.66430000  0.49380000  0.37130000  1.0 -0.0999029287
C  C110  1  0.17050000  0.66430000  0.53797000  1.0 -0.0999029287
C  C111  1  0.50620000  0.17050000  0.70463000  1.0 -0.0999029287
C  C112  1  0.33570000  0.50620000  0.87130000  1.0 -0.0999029287
C  C113  1  0.82950000  0.33570000  0.03797000  1.0 -0.0999029287
C  C114  1  0.49380000  0.82950000  0.20463000  1.0 -0.0999029287
C  C115  1  0.63480000  0.46710000  0.38830000  1.0 -0.1076458646
C  C116  1  0.16770000  0.63480000  0.55497000  1.0 -0.1076458646
C  C117  1  0.53290000  0.16770000  0.72163000  1.0 -0.1076458646
C  C118  1  0.36520000  0.53290000  0.88830000  1.0 -0.1076458646
C  C119  1  0.83230000  0.36520000  0.05497000  1.0 -0.1076458646
C  C120  1  0.46710000  0.83230000  0.22163000  1.0 -0.1076458646
C  C121  1  0.29460000  0.40680000  0.19060000  1.0 0.5836699345
C  C122  1  0.88780000  0.29460000  0.35727000  1.0 0.5836699345
C  C123  1  0.59320000  0.88780000  0.52393000  1.0 0.5836699345
C  C124  1  0.70540000  0.59320000  0.69060000  1.0 0.5836699345
C  C125  1  0.11220000  0.70540000  0.85727000  1.0 0.5836699345
C  C126  1  0.40680000  0.11220000  0.02393000  1.0 0.5836699345
C  C127  1  0.34800000  0.28810000  0.40740000  1.0 0.4696672308
C  C128  1  0.05990000  0.34800000  0.57407000  1.0 0.4696672308
C  C129  1  0.71190000  0.05990000  0.74073000  1.0 0.4696672308
C  C130  1  0.65200000  0.71190000  0.90740000  1.0 0.4696672308
C  C131  1  0.94010000  0.65200000  0.07407000  1.0 0.4696672308
C  C132  1  0.28810000  0.94010000  0.24073000  1.0 0.4696672308
C  C133  1  0.30530000  0.40210000  0.65320000  1.0 -0.1988350304
C  C134  1  0.90320000  0.30530000  0.81987000  1.0 -0.1988350304
C  C135  1  0.59790000  0.90320000  0.98653000  1.0 -0.1988350304
C  C136  1  0.69470000  0.59790000  0.15320000  1.0 -0.1988350304
C  C137  1  0.09680000  0.69470000  0.31987000  1.0 -0.1988350304
C  C138  1  0.40210000  0.09680000  0.48653000  1.0 -0.1988350304
C  C139  1  0.36560000  0.40450000  0.32100000  1.0 0.5503789465
C  C140  1  0.96110000  0.36560000  0.48767000  1.0 0.5503789465
C  C141  1  0.59550000  0.96110000  0.65433000  1.0 0.5503789465
C  C142  1  0.63440000  0.59550000  0.82100000  1.0 0.5503789465
C  C143  1  0.03890000  0.63440000  0.98767000  1.0 0.5503789465
C  C144  1  0.40450000  0.03890000  0.15433000  1.0 0.5503789465
C  C145  1  0.04200000  0.32160000  0.93020000  1.0 -0.0114327834
C  C146  1  0.72040000  0.04200000  0.09687000  1.0 -0.0114327834
C  C147  1  0.67840000  0.72040000  0.26353000  1.0 -0.0114327834
C  C148  1  0.95800000  0.67840000  0.43020000  1.0 -0.0114327834
C  C149  1  0.27960000  0.95800000  0.59687000  1.0 -0.0114327834
C  C150  1  0.32160000  0.27960000  0.76353000  1.0 -0.0114327834
C  C151  1  0.07290000  0.32660000  0.94470000  1.0 -0.149630615
C  C152  1  0.74630000  0.07290000  0.11137000  1.0 -0.149630615
C  C153  1  0.67340000  0.74630000  0.27803000  1.0 -0.149630615
C  C154  1  0.92710000  0.67340000  0.44470000  1.0 -0.149630615
C  C155  1  0.25370000  0.92710000  0.61137000  1.0 -0.149630615
C  C156  1  0.32660000  0.25370000  0.77803000  1.0 -0.149630615
C  C157  1  0.09580000  0.32900000  0.90980000  1.0 0.0709448832
C  C158  1  0.76680000  0.09580000  0.07647000  1.0 0.0709448832
C  C159  1  0.67100000  0.76680000  0.24313000  1.0 0.0709448832
C  C160  1  0.90420000  0.67100000  0.40980000  1.0 0.0709448832
C  C161  1  0.23320000  0.90420000  0.57647000  1.0 0.0709448832
C  C162  1  0.32900000  0.23320000  0.74313000  1.0 0.0709448832
C  C163  1  0.08780000  0.32650000  0.86050000  1.0 -0.1592057186
C  C164  1  0.76130000  0.08780000  0.02717000  1.0 -0.1592057186
C  C165  1  0.67350000  0.76130000  0.19383000  1.0 -0.1592057186
C  C166  1  0.91220000  0.67350000  0.36050000  1.0 -0.1592057186
C  C167  1  0.23870000  0.91220000  0.52717000  1.0 -0.1592057186
C  C168  1  0.32650000  0.23870000  0.69383000  1.0 -0.1592057186
C  C169  1  0.05690000  0.32150000  0.84590000  1.0 0.0005298814
C  C170  1  0.73540000  0.05690000  0.01257000  1.0 0.0005298814
C  C171  1  0.67850000  0.73540000  0.17923000  1.0 0.0005298814
C  C172  1  0.94310000  0.67850000  0.34590000  1.0 0.0005298814
C  C173  1  0.26460000  0.94310000  0.51257000  1.0 0.0005298814
C  C174  1  0.32150000  0.26460000  0.67923000  1.0 0.0005298814
C  C175  1  0.03400000  0.31910000  0.88080000  1.0 -0.0999029287
C  C176  1  0.71490000  0.03400000  0.04747000  1.0 -0.0999029287
C  C177  1  0.68090000  0.71490000  0.21413000  1.0 -0.0999029287
C  C178  1  0.96600000  0.68090000  0.38080000  1.0 -0.0999029287
C  C179  1  0.28510000  0.96600000  0.54747000  1.0 -0.0999029287
C  C180  1  0.31910000  0.28510000  0.71413000  1.0 -0.0999029287
C  C181  1  0.21750000  0.33350000  0.96940000  1.0 0.0785139238
C  C182  1  0.88400000  0.21750000  0.13607000  1.0 0.0785139238
C  C183  1  0.66650000  0.88400000  0.30273000  1.0 0.0785139238
C  C184  1  0.78250000  0.66650000  0.46940000  1.0 0.0785139238
C  C185  1  0.11600000  0.78250000  0.63607000  1.0 0.0785139238
C  C186  1  0.33350000  0.11600000  0.80273000  1.0 0.0785139238
C  C187  1  0.22300000  0.33020000  0.01850000  1.0 -0.1592057186
C  C188  1  0.89280000  0.22300000  0.18517000  1.0 -0.1592057186
C  C189  1  0.66980000  0.89280000  0.35183000  1.0 -0.1592057186
C  C190  1  0.77700000  0.66980000  0.51850000  1.0 -0.1592057186
C  C191  1  0.10720000  0.77700000  0.68517000  1.0 -0.1592057186
C  C192  1  0.33020000  0.10720000  0.85183000  1.0 -0.1592057186
C  C193  1  0.25090000  0.32840000  0.03250000  1.0 0.0105127196
C  C194  1  0.92250000  0.25090000  0.19917000  1.0 0.0105127196
C  C195  1  0.67160000  0.92250000  0.36583000  1.0 0.0105127196
C  C196  1  0.74910000  0.67160000  0.53250000  1.0 0.0105127196
C  C197  1  0.07750000  0.74910000  0.69917000  1.0 0.0105127196
C  C198  1  0.32840000  0.07750000  0.86583000  1.0 0.0105127196
C  C199  1  0.27320000  0.32980000  0.99740000  1.0 -0.1294358329
C  C200  1  0.94340000  0.27320000  0.16407000  1.0 -0.1294358329
C  C201  1  0.67020000  0.94340000  0.33073000  1.0 -0.1294358329
C  C202  1  0.72680000  0.67020000  0.49740000  1.0 -0.1294358329
C  C203  1  0.05660000  0.72680000  0.66407000  1.0 -0.1294358329
C  C204  1  0.32980000  0.05660000  0.83073000  1.0 -0.1294358329
C  C205  1  0.26770000  0.33310000  0.94830000  1.0 -0.0297118128
C  C206  1  0.93460000  0.26770000  0.11497000  1.0 -0.0297118128
C  C207  1  0.66690000  0.93460000  0.28163000  1.0 -0.0297118128
C  C208  1  0.73230000  0.66690000  0.44830000  1.0 -0.0297118128
C  C209  1  0.06540000  0.73230000  0.61497000  1.0 -0.0297118128
C  C210  1  0.33310000  0.06540000  0.78163000  1.0 -0.0297118128
C  C211  1  0.23990000  0.33490000  0.93440000  1.0 -0.149630615
C  C212  1  0.90500000  0.23990000  0.10107000  1.0 -0.149630615
C  C213  1  0.66510000  0.90500000  0.26773000  1.0 -0.149630615
C  C214  1  0.76010000  0.66510000  0.43440000  1.0 -0.149630615
C  C215  1  0.09500000  0.76010000  0.60107000  1.0 -0.149630615
C  C216  1  0.33490000  0.09500000  0.76773000  1.0 -0.149630615
C  C217  1  0.38260000  0.38450000  0.04820000  1.0 -0.0999029287
C  C218  1  0.99810000  0.38260000  0.21487000  1.0 -0.0999029287
C  C219  1  0.61550000  0.99810000  0.38153000  1.0 -0.0999029287
C  C220  1  0.61740000  0.61550000  0.54820000  1.0 -0.0999029287
C  C221  1  0.00190000  0.61740000  0.71487000  1.0 -0.0999029287
C  C222  1  0.38450000  0.00190000  0.88153000  1.0 -0.0999029287
C  C223  1  0.40530000  0.40450000  0.01280000  1.0 -0.05960445
C  C224  1  0.00080000  0.40530000  0.17947000  1.0 -0.05960445
C  C225  1  0.59550000  0.00080000  0.34613000  1.0 -0.05960445
C  C226  1  0.59470000  0.59550000  0.51280000  1.0 -0.05960445
C  C227  1  0.99920000  0.59470000  0.67947000  1.0 -0.05960445
C  C228  1  0.40450000  0.99920000  0.84613000  1.0 -0.05960445
C  C229  1  0.43380000  0.43370000  0.02630000  1.0 -0.1294358329
C  C230  1  0.00010000  0.43380000  0.19297000  1.0 -0.1294358329
C  C231  1  0.56630000  0.00010000  0.35963000  1.0 -0.1294358329
C  C232  1  0.56620000  0.56630000  0.52630000  1.0 -0.1294358329
C  C233  1  0.99990000  0.56620000  0.69297000  1.0 -0.1294358329
C  C234  1  0.43370000  0.99990000  0.85963000  1.0 -0.1294358329
C  C235  1  0.43960000  0.44300000  0.07520000  1.0 0.0709448832
C  C236  1  0.99660000  0.43960000  0.24187000  1.0 0.0709448832
C  C237  1  0.55700000  0.99660000  0.40853000  1.0 0.0709448832
C  C238  1  0.56040000  0.55700000  0.57520000  1.0 0.0709448832
C  C239  1  0.00340000  0.56040000  0.74187000  1.0 0.0709448832
C  C240  1  0.44300000  0.00340000  0.90853000  1.0 0.0709448832
C  C241  1  0.41690000  0.42300000  0.11060000  1.0 -0.1400972729
C  C242  1  0.99390000  0.41690000  0.27727000  1.0 -0.1400972729
C  C243  1  0.57700000  0.99390000  0.44393000  1.0 -0.1400972729
C  C244  1  0.58310000  0.57700000  0.61060000  1.0 -0.1400972729
C  C245  1  0.00610000  0.58310000  0.77727000  1.0 -0.1400972729
C  C246  1  0.42300000  0.00610000  0.94393000  1.0 -0.1400972729
C  C247  1  0.38840000  0.39380000  0.09710000  1.0 -0.0047976643
C  C248  1  0.99460000  0.38840000  0.26377000  1.0 -0.0047976643
C  C249  1  0.60620000  0.99460000  0.43043000  1.0 -0.0047976643
C  C250  1  0.61160000  0.60620000  0.59710000  1.0 -0.0047976643
C  C251  1  0.00540000  0.61160000  0.76377000  1.0 -0.0047976643
C  C252  1  0.39380000  0.00540000  0.93043000  1.0 -0.0047976643
C  C253  1  0.34660000  0.08290000  0.12180000  1.0 0.5217482743
C  C254  1  0.26370000  0.34660000  0.28847000  1.0 0.5217482743
C  C255  1  0.91710000  0.26370000  0.45513000  1.0 0.5217482743
C  C256  1  0.65340000  0.91710000  0.62180000  1.0 0.5217482743
C  C257  1  0.73630000  0.65340000  0.78847000  1.0 0.5217482743
C  C258  1  0.08290000  0.73630000  0.95513000  1.0 0.5217482743
C  C259  1  0.33990000  0.08420000  0.17750000  1.0 0.0105127196
C  C260  1  0.25570000  0.33990000  0.34417000  1.0 0.0105127196
C  C261  1  0.91580000  0.25570000  0.51083000  1.0 0.0105127196
C  C262  1  0.66010000  0.91580000  0.67750000  1.0 0.0105127196
C  C263  1  0.74430000  0.66010000  0.84417000  1.0 0.0105127196
C  C264  1  0.08420000  0.74430000  0.01083000  1.0 0.0105127196
C  C265  1  0.47060000  0.47310000  0.09090000  1.0 0.0709448832
C  C266  1  0.99750000  0.47060000  0.25757000  1.0 0.0709448832
C  C267  1  0.52690000  0.99750000  0.42423000  1.0 0.0709448832
C  C268  1  0.52940000  0.52690000  0.59090000  1.0 0.0709448832
C  C269  1  0.00250000  0.52940000  0.75757000  1.0 0.0709448832
C  C270  1  0.47310000  0.00250000  0.92423000  1.0 0.0709448832
C  C271  1  0.47300000  0.49310000  0.13020000  1.0 -0.1400972729
C  C272  1  0.97990000  0.47300000  0.29687000  1.0 -0.1400972729
C  C273  1  0.50690000  0.97990000  0.46353000  1.0 -0.1400972729
C  C274  1  0.52700000  0.50690000  0.63020000  1.0 -0.149630615
C  C275  1  0.02010000  0.52700000  0.79687000  1.0 -0.1400972729
C  C276  1  0.49310000  0.02010000  0.96353000  1.0 -0.1400972729
C  C277  1  0.50370000  0.52010000  0.14300000  1.0 -0.1400972729
C  C278  1  0.98360000  0.50370000  0.30967000  1.0 -0.1400972729
C  C279  1  0.47990000  0.98360000  0.47633000  1.0 -0.1400972729
C  C280  1  0.49630000  0.47990000  0.64300000  1.0 -0.1400972729
C  C281  1  0.01640000  0.49630000  0.80967000  1.0 -0.1400972729
C  C282  1  0.52010000  0.01640000  0.97633000  1.0 -0.1400972729
C  C283  1  0.53190000  0.52700000  0.11650000  1.0 0.0785139238
C  C284  1  0.00490000  0.53190000  0.28317000  1.0 0.0785139238
C  C285  1  0.47300000  0.00490000  0.44983000  1.0 0.0785139238
C  C286  1  0.46810000  0.47300000  0.61650000  1.0 0.0785139238
C  C287  1  0.99510000  0.46810000  0.78317000  1.0 0.0785139238
C  C288  1  0.52700000  0.99510000  0.94983000  1.0 0.0785139238
C  C289  1  0.52960000  0.50700000  0.07710000  1.0 -0.149630615
C  C290  1  0.02260000  0.52960000  0.24377000  1.0 -0.149630615
C  C291  1  0.49300000  0.02260000  0.41043000  1.0 -0.149630615
C  C292  1  0.47040000  0.49300000  0.57710000  1.0 -0.149630615
C  C293  1  0.97740000  0.47040000  0.74377000  1.0 -0.149630615
C  C294  1  0.50700000  0.97740000  0.91043000  1.0 -0.149630615
C  C295  1  0.49890000  0.48010000  0.06430000  1.0 -0.1400972729
C  C296  1  0.01880000  0.49890000  0.23097000  1.0 -0.1400972729
C  C297  1  0.51990000  0.01880000  0.39763000  1.0 -0.1294358329
C  C298  1  0.50110000  0.51990000  0.56430000  1.0 -0.1400972729
C  C299  1  0.98120000  0.50110000  0.73097000  1.0 -0.1294358329
C  C300  1  0.48010000  0.98120000  0.89763000  1.0 -0.1400972729
C  C301  1  0.34020000  0.29680000  0.32260000  1.0 -0.091719629
C  C302  1  0.04340000  0.34020000  0.48927000  1.0 -0.091719629
C  C303  1  0.70320000  0.04340000  0.65593000  1.0 -0.091719629
C  C304  1  0.65980000  0.70320000  0.82260000  1.0 -0.091719629
C  C305  1  0.95660000  0.65980000  0.98927000  1.0 -0.091719629
C  C306  1  0.29680000  0.95660000  0.15593000  1.0 -0.091719629
C  C307  1  0.61810000  0.60420000  0.11820000  1.0 -0.0221421556
C  C308  1  0.01390000  0.61810000  0.28487000  1.0 -0.0221421556
C  C309  1  0.39580000  0.01390000  0.45153000  1.0 -0.0221421556
C  C310  1  0.38190000  0.39580000  0.61820000  1.0 -0.0221421556
C  C311  1  0.98610000  0.38190000  0.78487000  1.0 -0.0221421556
C  C312  1  0.60420000  0.98610000  0.95153000  1.0 -0.0221421556
C  C313  1  0.58720000  0.57910000  0.10230000  1.0 -0.1592057186
C  C314  1  0.00810000  0.58720000  0.26897000  1.0 -0.1592057186
C  C315  1  0.42090000  0.00810000  0.43563000  1.0 -0.1592057186
C  C316  1  0.41280000  0.42090000  0.60230000  1.0 -0.1592057186
C  C317  1  0.99190000  0.41280000  0.76897000  1.0 -0.1592057186
C  C318  1  0.57910000  0.99190000  0.93563000  1.0 -0.1592057186
C  C319  1  0.56320000  0.55900000  0.13600000  1.0 0.0709448832
C  C320  1  0.00420000  0.56320000  0.30267000  1.0 0.0709448832
C  C321  1  0.44100000  0.00420000  0.46933000  1.0 0.0785139238
C  C322  1  0.43680000  0.44100000  0.63600000  1.0 0.0709448832
C  C323  1  0.99580000  0.43680000  0.80267000  1.0 0.0709448832
C  C324  1  0.55900000  0.99580000  0.96933000  1.0 0.0709448832
C  C325  1  0.57000000  0.56390000  0.18570000  1.0 -0.1400972729
C  C326  1  0.00610000  0.57000000  0.35237000  1.0 -0.1400972729
C  C327  1  0.43610000  0.00610000  0.51903000  1.0 -0.1400972729
C  C328  1  0.43000000  0.43610000  0.68570000  1.0 -0.1400972729
C  C329  1  0.99390000  0.43000000  0.85237000  1.0 -0.1400972729
C  C330  1  0.56390000  0.99390000  0.01903000  1.0 -0.1400972729
C  C331  1  0.60090000  0.58890000  0.20170000  1.0 -0.0221421556
C  C332  1  0.01200000  0.60090000  0.36837000  1.0 -0.0221421556
C  C333  1  0.41110000  0.01200000  0.53503000  1.0 -0.0221421556
C  C334  1  0.39910000  0.41110000  0.70170000  1.0 -0.0221421556
C  C335  1  0.98800000  0.39910000  0.86837000  1.0 -0.0221421556
C  C336  1  0.58890000  0.98800000  0.03503000  1.0 -0.0221421556
C  C337  1  0.62500000  0.60910000  0.16800000  1.0 -0.1400972729
C  C338  1  0.01590000  0.62500000  0.33467000  1.0 -0.1400972729
C  C339  1  0.39090000  0.01590000  0.50133000  1.0 -0.1400972729
C  C340  1  0.37500000  0.39090000  0.66800000  1.0 -0.1400972729
C  C341  1  0.98410000  0.37500000  0.83467000  1.0 -0.1400972729
C  C342  1  0.60910000  0.98410000  0.00133000  1.0 -0.1400972729
C  C343  1  0.40420000  0.31500000  0.51540000  1.0 0.5616999117
C  C344  1  0.08920000  0.40420000  0.68207000  1.0 0.5616999117
C  C345  1  0.68500000  0.08920000  0.84873000  1.0 0.5616999117
C  C346  1  0.59580000  0.68500000  0.01540000  1.0 0.5616999117
C  C347  1  0.91080000  0.59580000  0.18207000  1.0 0.5616999117
C  C348  1  0.31500000  0.91080000  0.34873000  1.0 0.5616999117
C  C349  1  0.28730000  0.41770000  0.71320000  1.0 -0.1076458646
C  C350  1  0.86960000  0.28730000  0.87987000  1.0 -0.1076458646
C  C351  1  0.58230000  0.86960000  0.04653000  1.0 -0.1076458646
C  C352  1  0.71270000  0.58230000  0.21320000  1.0 -0.1076458646
C  C353  1  0.13040000  0.71270000  0.37987000  1.0 -0.1076458646
C  C354  1  0.41770000  0.13040000  0.54653000  1.0 -0.1076458646
C  C355  1  0.29570000  0.45080000  0.65390000  1.0 -0.1592057186
C  C356  1  0.84490000  0.29570000  0.82057000  1.0 -0.1592057186
C  C357  1  0.54920000  0.84490000  0.98723000  1.0 -0.1592057186
C  C358  1  0.70430000  0.54920000  0.15390000  1.0 -0.1592057186
C  C359  1  0.15510000  0.70430000  0.32057000  1.0 -0.1592057186
C  C360  1  0.45080000  0.15510000  0.48723000  1.0 -0.1592057186
C  C361  1  0.38020000  0.51930000  0.33020000  1.0 0.5503789465
C  C362  1  0.86090000  0.38020000  0.49687000  1.0 0.5503789465
C  C363  1  0.48070000  0.86090000  0.66353000  1.0 0.5503789465
C  C364  1  0.61980000  0.48070000  0.83020000  1.0 0.5503789465
C  C365  1  0.13910000  0.61980000  0.99687000  1.0 0.5503789465
C  C366  1  0.51930000  0.13910000  0.16353000  1.0 0.5503789465
C  C367  1  0.28700000  0.44690000  0.69390000  1.0 0.0388893365
C  C368  1  0.84010000  0.28700000  0.86057000  1.0 0.0388893365
C  C369  1  0.55310000  0.84010000  0.02723000  1.0 0.0388893365
C  C370  1  0.71300000  0.55310000  0.19390000  1.0 0.0388893365
C  C371  1  0.15990000  0.71300000  0.36057000  1.0 0.0388893365
C  C372  1  0.44690000  0.15990000  0.52723000  1.0 0.0388893365
C  C373  1  0.34080000  0.06390000  0.21920000  1.0 0.0388893365
C  C374  1  0.27690000  0.34080000  0.38587000  1.0 0.0388893365
C  C375  1  0.93610000  0.27690000  0.55253000  1.0 0.0388893365
C  C376  1  0.65920000  0.93610000  0.71920000  1.0 0.0388893365
C  C377  1  0.72310000  0.65920000  0.88587000  1.0 0.0388893365
C  C378  1  0.06390000  0.72310000  0.05253000  1.0 0.0388893365
C  C379  1  0.33370000  0.11050000  0.18890000  1.0 -0.1988350304
C  C380  1  0.22320000  0.33370000  0.35557000  1.0 -0.1988350304
C  C381  1  0.88950000  0.22320000  0.52223000  1.0 -0.1988350304
C  C382  1  0.66630000  0.88950000  0.68890000  1.0 -0.1988350304
C  C383  1  0.77680000  0.66630000  0.85557000  1.0 -0.1988350304
C  C384  1  0.11050000  0.77680000  0.02223000  1.0 -0.1988350304
C  C385  1  0.33480000  0.09390000  0.27490000  1.0 -0.1592057186
C  C386  1  0.24090000  0.33480000  0.44157000  1.0 -0.1592057186
C  C387  1  0.90610000  0.24090000  0.60823000  1.0 -0.1592057186
C  C388  1  0.66520000  0.90610000  0.77490000  1.0 -0.1592057186
C  C389  1  0.75910000  0.66520000  0.94157000  1.0 -0.1592057186
C  C390  1  0.09390000  0.75910000  0.10823000  1.0 -0.1592057186
C  C391  1  0.44430000  0.29730000  0.52680000  1.0 -0.0999029287
C  C392  1  0.14700000  0.44430000  0.69347000  1.0 -0.0999029287
C  C393  1  0.70270000  0.14700000  0.86013000  1.0 -0.0999029287
C  C394  1  0.55570000  0.70270000  0.02680000  1.0 -0.0999029287
C  C395  1  0.85300000  0.55570000  0.19347000  1.0 -0.0999029287
C  C396  1  0.29730000  0.85300000  0.36013000  1.0 -0.0999029287
C  C397  1  0.43770000  0.32090000  0.50660000  1.0 -0.042839711
C  C398  1  0.11680000  0.43770000  0.67327000  1.0 -0.042839711
C  C399  1  0.67910000  0.11680000  0.83993000  1.0 -0.042839711
C  C400  1  0.56230000  0.67910000  0.00660000  1.0 -0.042839711
C  C401  1  0.88320000  0.56230000  0.17327000  1.0 -0.042839711
C  C402  1  0.32090000  0.88320000  0.33993000  1.0 -0.042839711
C  C403  1  0.46310000  0.34930000  0.48480000  1.0 -0.1400972729
C  C404  1  0.11380000  0.46310000  0.65147000  1.0 -0.1400972729
C  C405  1  0.65070000  0.11380000  0.81813000  1.0 -0.1400972729
C  C406  1  0.53690000  0.65070000  0.98480000  1.0 -0.1400972729
C  C407  1  0.88620000  0.53690000  0.15147000  1.0 -0.1400972729
C  C408  1  0.34930000  0.88620000  0.31813000  1.0 -0.1400972729
C  C409  1  0.49520000  0.35410000  0.48320000  1.0 0.0709448832
C  C410  1  0.14110000  0.49520000  0.64987000  1.0 0.0709448832
C  C411  1  0.64590000  0.14110000  0.81653000  1.0 0.0709448832
C  C412  1  0.50480000  0.64590000  0.98320000  1.0 0.0709448832
C  C413  1  0.85890000  0.50480000  0.14987000  1.0 0.0709448832
C  C414  1  0.35410000  0.85890000  0.31653000  1.0 0.0709448832
C  C415  1  0.50180000  0.33060000  0.50340000  1.0 -0.149630615
C  C416  1  0.17120000  0.50180000  0.67007000  1.0 -0.149630615
C  C417  1  0.66940000  0.17120000  0.83673000  1.0 -0.149630615
C  C418  1  0.49820000  0.66940000  0.00340000  1.0 -0.149630615
C  C419  1  0.82880000  0.49820000  0.17007000  1.0 -0.149630615
C  C420  1  0.33060000  0.82880000  0.33673000  1.0 -0.149630615
C  C421  1  0.47630000  0.30220000  0.52520000  1.0 -0.0297118128
C  C422  1  0.17410000  0.47630000  0.69187000  1.0 -0.0221421556
C  C423  1  0.69780000  0.17410000  0.85853000  1.0 -0.0297118128
C  C424  1  0.52370000  0.69780000  0.02520000  1.0 -0.0297118128
C  C425  1  0.82590000  0.52370000  0.19187000  1.0 -0.0297118128
C  C426  1  0.30220000  0.82590000  0.35853000  1.0 -0.0297118128
C  C427  1  0.18430000  0.32970000  0.95110000  1.0 0.0709448832
C  C428  1  0.85460000  0.18430000  0.11777000  1.0 0.0709448832
C  C429  1  0.67030000  0.85460000  0.28443000  1.0 0.0709448832
C  C430  1  0.81570000  0.67030000  0.45110000  1.0 0.0709448832
C  C431  1  0.14540000  0.81570000  0.61777000  1.0 0.0709448832
C  C432  1  0.32970000  0.14540000  0.78443000  1.0 0.0709448832
C  C433  1  0.15590000  0.31270000  0.97970000  1.0 -0.1400972729
C  C434  1  0.84320000  0.15590000  0.14637000  1.0 -0.1400972729
C  C435  1  0.68730000  0.84320000  0.31303000  1.0 -0.1400972729
C  C436  1  0.84410000  0.68730000  0.47970000  1.0 -0.1400972729
C  C437  1  0.15680000  0.84410000  0.64637000  1.0 -0.1400972729
C  C438  1  0.31270000  0.15680000  0.81303000  1.0 -0.1400972729
C  C439  1  0.12680000  0.31220000  0.96620000  1.0 -0.1400972729
C  C440  1  0.81460000  0.12680000  0.13287000  1.0 -0.1400972729
C  C441  1  0.68780000  0.81460000  0.29953000  1.0 -0.1400972729
C  C442  1  0.87320000  0.68780000  0.46620000  1.0 -0.1400972729
C  C443  1  0.18540000  0.87320000  0.63287000  1.0 -0.1400972729
C  C444  1  0.31220000  0.18540000  0.79953000  1.0 -0.1400972729
C  C445  1  0.12610000  0.32870000  0.92420000  1.0 0.0709448832
C  C446  1  0.79740000  0.12610000  0.09087000  1.0 0.0709448832
C  C447  1  0.67130000  0.79740000  0.25753000  1.0 0.0709448832
C  C448  1  0.87390000  0.67130000  0.42420000  1.0 0.0709448832
C  C449  1  0.20260000  0.87390000  0.59087000  1.0 0.0709448832
C  C450  1  0.32870000  0.20260000  0.75753000  1.0 0.0709448832
C  C451  1  0.15450000  0.34560000  0.89560000  1.0 -0.1400972729
C  C452  1  0.80890000  0.15450000  0.06227000  1.0 -0.1400972729
C  C453  1  0.65440000  0.80890000  0.22893000  1.0 -0.1400972729
C  C454  1  0.84550000  0.65440000  0.39560000  1.0 -0.1400972729
C  C455  1  0.19110000  0.84550000  0.56227000  1.0 -0.1400972729
C  C456  1  0.34560000  0.19110000  0.72893000  1.0 -0.1400972729
C  C457  1  0.18360000  0.34620000  0.90910000  1.0 -0.149630615
C  C458  1  0.83740000  0.18360000  0.07577000  1.0 -0.149630615
C  C459  1  0.65380000  0.83740000  0.24243000  1.0 -0.149630615
C  C460  1  0.81640000  0.65380000  0.40910000  1.0 -0.149630615
C  C461  1  0.16260000  0.81640000  0.57577000  1.0 -0.149630615
C  C462  1  0.34620000  0.16260000  0.74243000  1.0 -0.149630615
C  C463  1  0.32690000  0.47100000  0.18330000  1.0 -0.0841436355
C  C464  1  0.85590000  0.32690000  0.34997000  1.0 -0.0841436355
C  C465  1  0.52900000  0.85590000  0.51663000  1.0 -0.0841436355
C  C466  1  0.67310000  0.52900000  0.68330000  1.0 -0.0841436355
C  C467  1  0.14410000  0.67310000  0.84997000  1.0 -0.0841436355
C  C468  1  0.47100000  0.14410000  0.01663000  1.0 -0.0841436355
C  C469  1  0.29860000  0.44030000  0.17540000  1.0 -0.0114327834
C  C470  1  0.85830000  0.29860000  0.34207000  1.0 -0.0114327834
C  C471  1  0.55970000  0.85830000  0.50873000  1.0 -0.0114327834
C  C472  1  0.70140000  0.55970000  0.67540000  1.0 -0.0114327834
C  C473  1  0.14170000  0.70140000  0.84207000  1.0 -0.0114327834
C  C474  1  0.44030000  0.14170000  0.00873000  1.0 -0.0114327834
C  C475  1  0.27060000  0.43880000  0.15410000  1.0 -0.149630615
C  C476  1  0.83180000  0.27060000  0.32077000  1.0 -0.149630615
C  C477  1  0.56120000  0.83180000  0.48743000  1.0 -0.149630615
C  C478  1  0.72940000  0.56120000  0.65410000  1.0 -0.149630615
C  C479  1  0.16820000  0.72940000  0.82077000  1.0 -0.149630615
C  C480  1  0.43880000  0.16820000  0.98743000  1.0 -0.149630615
C  C481  1  0.27110000  0.46790000  0.14080000  1.0 0.0785139238
C  C482  1  0.80320000  0.27110000  0.30747000  1.0 0.0785139238
C  C483  1  0.53210000  0.80320000  0.47413000  1.0 0.0785139238
C  C484  1  0.72890000  0.53210000  0.64080000  1.0 0.0785139238
C  C485  1  0.19680000  0.72890000  0.80747000  1.0 0.0785139238
C  C486  1  0.46790000  0.19680000  0.97413000  1.0 0.0785139238
C  C487  1  0.29940000  0.49850000  0.14880000  1.0 -0.1294358329
C  C488  1  0.80090000  0.29940000  0.31547000  1.0 -0.1294358329
C  C489  1  0.50150000  0.80090000  0.48213000  1.0 -0.1294358329
C  C490  1  0.70060000  0.50150000  0.64880000  1.0 -0.1294358329
C  C491  1  0.19910000  0.70060000  0.81547000  1.0 -0.1294358329
C  C492  1  0.49850000  0.19910000  0.98213000  1.0 -0.1294358329
C  C493  1  0.32740000  0.50010000  0.17000000  1.0 -0.091719629
C  C494  1  0.82730000  0.32740000  0.33667000  1.0 -0.091719629
C  C495  1  0.49990000  0.82730000  0.50333000  1.0 -0.091719629
C  C496  1  0.67260000  0.49990000  0.67000000  1.0 -0.091719629
C  C497  1  0.17270000  0.67260000  0.83667000  1.0 -0.091719629
C  C498  1  0.50010000  0.17270000  0.00333000  1.0 -0.091719629
C  C499  1  0.33000000  0.11250000  0.24120000  1.0 0.0709448832
C  C500  1  0.21750000  0.33000000  0.40787000  1.0 0.0709448832
C  C501  1  0.88750000  0.21750000  0.57453000  1.0 0.0709448832
C  C502  1  0.67000000  0.88750000  0.74120000  1.0 0.0709448832
C  C503  1  0.78250000  0.67000000  0.90787000  1.0 0.0709448832
C  C504  1  0.11250000  0.78250000  0.07453000  1.0 0.0709448832
C  C505  1  0.51830000  0.28900000  0.70670000  1.0 0.5893666806
C  C506  1  0.22930000  0.51830000  0.87337000  1.0 0.5893666806
C  C507  1  0.71100000  0.22930000  0.04003000  1.0 0.5893666806
C  C508  1  0.48170000  0.71100000  0.20670000  1.0 0.5893666806
C  C509  1  0.77070000  0.48170000  0.37337000  1.0 0.5893666806
C  C510  1  0.28900000  0.77070000  0.54003000  1.0 0.5893666806
C  C511  1  0.37340000  0.46120000  0.32330000  1.0 -0.0841436355
C  C512  1  0.91220000  0.37340000  0.48997000  1.0 -0.0841436355
C  C513  1  0.53880000  0.91220000  0.65663000  1.0 -0.0841436355
C  C514  1  0.62660000  0.53880000  0.82330000  1.0 -0.0841436355
C  C515  1  0.08780000  0.62660000  0.98997000  1.0 -0.0841436355
C  C516  1  0.46120000  0.08780000  0.15663000  1.0 -0.0841436355
C  C517  1  0.36490000  0.43160000  0.34740000  1.0 -0.0507186062
C  C518  1  0.93330000  0.36490000  0.51407000  1.0 -0.0507186062
C  C519  1  0.56840000  0.93330000  0.68073000  1.0 -0.0507186062
C  C520  1  0.63510000  0.56840000  0.84740000  1.0 -0.0507186062
C  C521  1  0.06670000  0.63510000  0.01407000  1.0 -0.042839711
C  C522  1  0.43160000  0.06670000  0.18073000  1.0 -0.0507186062
C  C523  1  0.35270000  0.42670000  0.39490000  1.0 -0.1400972729
C  C524  1  0.92600000  0.35270000  0.56157000  1.0 -0.1400972729
C  C525  1  0.57330000  0.92600000  0.72823000  1.0 -0.1400972729
C  C526  1  0.64730000  0.57330000  0.89490000  1.0 -0.1400972729
C  C527  1  0.07400000  0.64730000  0.06157000  1.0 -0.1400972729
C  C528  1  0.42670000  0.07400000  0.22823000  1.0 -0.1400972729
C  C529  1  0.34910000  0.45130000  0.41830000  1.0 0.0709448832
C  C530  1  0.89780000  0.34910000  0.58497000  1.0 0.0709448832
C  C531  1  0.54870000  0.89780000  0.75163000  1.0 0.0709448832
C  C532  1  0.65090000  0.54870000  0.91830000  1.0 0.0709448832
C  C533  1  0.10220000  0.65090000  0.08497000  1.0 0.0709448832
C  C534  1  0.45130000  0.10220000  0.25163000  1.0 0.0709448832
C  C535  1  0.35760000  0.48080000  0.39420000  1.0 -0.149630615
C  C536  1  0.87680000  0.35760000  0.56087000  1.0 -0.149630615
C  C537  1  0.51920000  0.87680000  0.72753000  1.0 -0.149630615
C  C538  1  0.64240000  0.51920000  0.89420000  1.0 -0.149630615
C  C539  1  0.12320000  0.64240000  0.06087000  1.0 -0.149630615
C  C540  1  0.48080000  0.12320000  0.22753000  1.0 -0.149630615
C  C541  1  0.36980000  0.48580000  0.34660000  1.0 -0.05960445
C  C542  1  0.88400000  0.36980000  0.51327000  1.0 -0.05960445
C  C543  1  0.51420000  0.88400000  0.67993000  1.0 -0.05960445
C  C544  1  0.63020000  0.51420000  0.84660000  1.0 -0.05960445
C  C545  1  0.11600000  0.63020000  0.01327000  1.0 -0.05960445
C  C546  1  0.48580000  0.11600000  0.17993000  1.0 -0.05960445
C  C547  1  0.39660000  0.39190000  0.96380000  1.0 0.5116848624
C  C548  1  0.00470000  0.39660000  0.13047000  1.0 0.5116848624
C  C549  1  0.60810000  0.00470000  0.29713000  1.0 0.5116848624
C  C550  1  0.60340000  0.60810000  0.46380000  1.0 0.5116848624
C  C551  1  0.99530000  0.60340000  0.63047000  1.0 0.5116848624
C  C552  1  0.39190000  0.99530000  0.79713000  1.0 0.5116848624
C  C553  1  0.52340000  0.38750000  0.46160000  1.0 0.0785139238
C  C554  1  0.13590000  0.52340000  0.62827000  1.0 0.0785139238
C  C555  1  0.61250000  0.13590000  0.79493000  1.0 0.0785139238
C  C556  1  0.47660000  0.61250000  0.96160000  1.0 0.0785139238
C  C557  1  0.86410000  0.47660000  0.12827000  1.0 0.0785139238
C  C558  1  0.38750000  0.86410000  0.29493000  1.0 0.0785139238
C  C559  1  0.51900000  0.40460000  0.42330000  1.0 -0.149630615
C  C560  1  0.11440000  0.51900000  0.58997000  1.0 -0.149630615
C  C561  1  0.59540000  0.11440000  0.75663000  1.0 -0.149630615
C  C562  1  0.48100000  0.59540000  0.92330000  1.0 -0.149630615
C  C563  1  0.88560000  0.48100000  0.08997000  1.0 -0.149630615
C  C564  1  0.40460000  0.88560000  0.25663000  1.0 -0.149630615
C  C565  1  0.54640000  0.43120000  0.40160000  1.0 -0.1400972729
C  C566  1  0.11520000  0.54640000  0.56827000  1.0 -0.1400972729
C  C567  1  0.56880000  0.11520000  0.73493000  1.0 -0.1400972729
C  C568  1  0.45360000  0.56880000  0.90160000  1.0 -0.1400972729
C  C569  1  0.88480000  0.45360000  0.06827000  1.0 -0.1400972729
C  C570  1  0.43120000  0.88480000  0.23493000  1.0 -0.1400972729
C  C571  1  0.57830000  0.44080000  0.41810000  1.0 0.0785139238
C  C572  1  0.13750000  0.57830000  0.58477000  1.0 0.0785139238
C  C573  1  0.55920000  0.13750000  0.75143000  1.0 0.0785139238
C  C574  1  0.42170000  0.55920000  0.91810000  1.0 0.0785139238
C  C575  1  0.86250000  0.42170000  0.08477000  1.0 0.0785139238
C  C576  1  0.44080000  0.86250000  0.25143000  1.0 0.0785139238
C  C577  1  0.58270000  0.42370000  0.45640000  1.0 -0.1400972729
C  C578  1  0.15900000  0.58270000  0.62307000  1.0 -0.1400972729
C  C579  1  0.57630000  0.15900000  0.78973000  1.0 -0.1400972729
C  C580  1  0.41730000  0.57630000  0.95640000  1.0 -0.1400972729
C  C581  1  0.84100000  0.41730000  0.12307000  1.0 -0.1400972729
C  C582  1  0.42370000  0.84100000  0.28973000  1.0 -0.1400972729
C  C583  1  0.55530000  0.39700000  0.47810000  1.0 -0.1400972729
C  C584  1  0.15830000  0.55530000  0.64477000  1.0 -0.1400972729
C  C585  1  0.60300000  0.15830000  0.81143000  1.0 -0.1400972729
C  C586  1  0.44470000  0.60300000  0.97810000  1.0 -0.1400972729
C  C587  1  0.84170000  0.44470000  0.14477000  1.0 -0.1400972729
C  C588  1  0.39700000  0.84170000  0.31143000  1.0 -0.1400972729
C  C589  1  0.33470000  0.06760000  0.25920000  1.0 -0.0297118128
C  C590  1  0.26710000  0.33470000  0.42587000  1.0 -0.0297118128
C  C591  1  0.93240000  0.26710000  0.59253000  1.0 -0.0297118128
C  C592  1  0.66530000  0.93240000  0.75920000  1.0 -0.0297118128
C  C593  1  0.73290000  0.66530000  0.92587000  1.0 -0.0297118128
C  C594  1  0.06760000  0.73290000  0.09253000  1.0 -0.0297118128
C  C595  1  0.48250000  0.27590000  0.54450000  1.0 0.5503789465
C  C596  1  0.20660000  0.48250000  0.71117000  1.0 0.5503789465
C  C597  1  0.72410000  0.20660000  0.87783000  1.0 0.5503789465
C  C598  1  0.51750000  0.72410000  0.04450000  1.0 0.5503789465
C  C599  1  0.79340000  0.51750000  0.21117000  1.0 0.5503789465
C  C600  1  0.27590000  0.79340000  0.37783000  1.0 0.5503789465
C  C601  1  0.33830000  0.44460000  0.47130000  1.0 0.0709448832
C  C602  1  0.89370000  0.33830000  0.63797000  1.0 0.0709448832
C  C603  1  0.55540000  0.89370000  0.80463000  1.0 0.0709448832
C  C604  1  0.66170000  0.55540000  0.97130000  1.0 0.0709448832
C  C605  1  0.10630000  0.66170000  0.13797000  1.0 0.0709448832
C  C606  1  0.44460000  0.10630000  0.30463000  1.0 0.0709448832
C  C607  1  0.34990000  0.47100000  0.50410000  1.0 -0.149630615
C  C608  1  0.87890000  0.34990000  0.67077000  1.0 -0.149630615
C  C609  1  0.52900000  0.87890000  0.83743000  1.0 -0.149630615
C  C610  1  0.65010000  0.52900000  0.00410000  1.0 -0.149630615
C  C611  1  0.12110000  0.65010000  0.17077000  1.0 -0.149630615
C  C612  1  0.47100000  0.12110000  0.33743000  1.0 -0.149630615
C  C613  1  0.33810000  0.46540000  0.55180000  1.0 -0.149630615
C  C614  1  0.87270000  0.33810000  0.71847000  1.0 -0.149630615
C  C615  1  0.53460000  0.87270000  0.88513000  1.0 -0.149630615
C  C616  1  0.66190000  0.53460000  0.05180000  1.0 -0.149630615
C  C617  1  0.12730000  0.66190000  0.21847000  1.0 -0.149630615
C  C618  1  0.46540000  0.12730000  0.38513000  1.0 -0.149630615
C  C619  1  0.31470000  0.43350000  0.56680000  1.0 0.0581409105
C  C620  1  0.88120000  0.31470000  0.73347000  1.0 0.0581409105
C  C621  1  0.56650000  0.88120000  0.90013000  1.0 0.0581409105
C  C622  1  0.68530000  0.56650000  0.06680000  1.0 0.0581409105
C  C623  1  0.11880000  0.68530000  0.23347000  1.0 0.0581409105
C  C624  1  0.43350000  0.11880000  0.40013000  1.0 0.0581409105
C  C625  1  0.30320000  0.40720000  0.53410000  1.0 -0.1197289104
C  C626  1  0.89600000  0.30320000  0.70077000  1.0 -0.1197289104
C  C627  1  0.59280000  0.89600000  0.86743000  1.0 -0.1197289104
C  C628  1  0.69680000  0.59280000  0.03410000  1.0 -0.1197289104
C  C629  1  0.10400000  0.69680000  0.20077000  1.0 -0.1197289104
C  C630  1  0.40720000  0.10400000  0.36743000  1.0 -0.1197289104
C  C631  1  0.31500000  0.41270000  0.48630000  1.0 -0.1294358329
C  C632  1  0.90230000  0.31500000  0.65297000  1.0 -0.1294358329
C  C633  1  0.58730000  0.90230000  0.81963000  1.0 -0.1294358329
C  C634  1  0.68500000  0.58730000  0.98630000  1.0 -0.1294358329
C  C635  1  0.09770000  0.68500000  0.15297000  1.0 -0.1294358329
C  C636  1  0.41270000  0.09770000  0.31963000  1.0 -0.1294358329
C  C637  1  0.32690000  0.20110000  0.27770000  1.0 0.0983027055
C  C638  1  0.12580000  0.32690000  0.44437000  1.0 0.0983027055
C  C639  1  0.79890000  0.12580000  0.61103000  1.0 0.0983027055
C  C640  1  0.67310000  0.79890000  0.77770000  1.0 0.0983027055
C  C641  1  0.87420000  0.67310000  0.94437000  1.0 0.0983027055
C  C642  1  0.20110000  0.87420000  0.11103000  1.0 0.0983027055
C  C643  1  0.33310000  0.18450000  0.31490000  1.0 -0.1400972729
C  C644  1  0.14860000  0.33310000  0.48157000  1.0 -0.1400972729
C  C645  1  0.81550000  0.14860000  0.64823000  1.0 -0.1400972729
C  C646  1  0.66690000  0.81550000  0.81490000  1.0 -0.1400972729
C  C647  1  0.85140000  0.66690000  0.98157000  1.0 -0.1400972729
C  C648  1  0.18450000  0.85140000  0.14823000  1.0 -0.1400972729
C  C649  1  0.33880000  0.15860000  0.30360000  1.0 -0.149630615
C  C650  1  0.18020000  0.33880000  0.47027000  1.0 -0.149630615
C  C651  1  0.84140000  0.18020000  0.63693000  1.0 -0.149630615
C  C652  1  0.66120000  0.84140000  0.80360000  1.0 -0.149630615
C  C653  1  0.81980000  0.66120000  0.97027000  1.0 -0.149630615
C  C654  1  0.15860000  0.81980000  0.13693000  1.0 -0.149630615
C  C655  1  0.33830000  0.14930000  0.25520000  1.0 0.0785139238
C  C656  1  0.18900000  0.33830000  0.42187000  1.0 0.0785139238
C  C657  1  0.85070000  0.18900000  0.58853000  1.0 0.0856609168
C  C658  1  0.66170000  0.85070000  0.75520000  1.0 0.0856609168
C  C659  1  0.81100000  0.66170000  0.92187000  1.0 0.0856609168
C  C660  1  0.14930000  0.81100000  0.08853000  1.0 0.0785139238
C  C661  1  0.33210000  0.16590000  0.21810000  1.0 -0.149630615
C  C662  1  0.16620000  0.33210000  0.38477000  1.0 -0.149630615
C  C663  1  0.83410000  0.16620000  0.55143000  1.0 -0.149630615
C  C664  1  0.66790000  0.83410000  0.71810000  1.0 -0.149630615
C  C665  1  0.83380000  0.66790000  0.88477000  1.0 -0.149630615
C  C666  1  0.16590000  0.83380000  0.05143000  1.0 -0.149630615
C  C667  1  0.32640000  0.19180000  0.22930000  1.0 -0.149630615
C  C668  1  0.13460000  0.32640000  0.39597000  1.0 -0.149630615
C  C669  1  0.80820000  0.13460000  0.56263000  1.0 -0.149630615
C  C670  1  0.67360000  0.80820000  0.72930000  1.0 -0.149630615
C  C671  1  0.86540000  0.67360000  0.89597000  1.0 -0.149630615
C  C672  1  0.19180000  0.86540000  0.06263000  1.0 -0.149630615
C  C673  1  0.23970000  0.46760000  0.11480000  1.0 0.0785139238
C  C674  1  0.77210000  0.23970000  0.28147000  1.0 0.0785139238
C  C675  1  0.53240000  0.77210000  0.44813000  1.0 0.0785139238
C  C676  1  0.76030000  0.53240000  0.61480000  1.0 0.0785139238
C  C677  1  0.22790000  0.76030000  0.78147000  1.0 0.0785139238
C  C678  1  0.46760000  0.22790000  0.94813000  1.0 0.0785139238
C  C679  1  0.24730000  0.49450000  0.08480000  1.0 -0.149630615
C  C680  1  0.75280000  0.24730000  0.25147000  1.0 -0.149630615
C  C681  1  0.50550000  0.75280000  0.41813000  1.0 -0.149630615
C  C682  1  0.75270000  0.50550000  0.58480000  1.0 -0.149630615
C  C683  1  0.24720000  0.75270000  0.75147000  1.0 -0.149630615
C  C684  1  0.49450000  0.24720000  0.91813000  1.0 -0.149630615
C  C685  1  0.22200000  0.49630000  0.06020000  1.0 -0.1400972729
C  C686  1  0.72570000  0.22200000  0.22687000  1.0 -0.1400972729
C  C687  1  0.50370000  0.72570000  0.39353000  1.0 -0.1400972729
C  C688  1  0.77800000  0.50370000  0.56020000  1.0 -0.1400972729
C  C689  1  0.27430000  0.77800000  0.72687000  1.0 -0.1400972729
C  C690  1  0.49630000  0.27430000  0.89353000  1.0 -0.1400972729
C  C691  1  0.18910000  0.47100000  0.06580000  1.0 0.0581409105
C  C692  1  0.71810000  0.18910000  0.23247000  1.0 0.0581409105
C  C693  1  0.52900000  0.71810000  0.39913000  1.0 0.0581409105
C  C694  1  0.81090000  0.52900000  0.56580000  1.0 0.0581409105
C  C695  1  0.28190000  0.81090000  0.73247000  1.0 0.0581409105
C  C696  1  0.47100000  0.28190000  0.89913000  1.0 0.0581409105
C  C697  1  0.18160000  0.44410000  0.09590000  1.0 -0.1400972729
C  C698  1  0.73750000  0.18160000  0.26257000  1.0 -0.1400972729
C  C699  1  0.55590000  0.73750000  0.42923000  1.0 -0.1400972729
C  C700  1  0.81840000  0.55590000  0.59590000  1.0 -0.1400972729
C  C701  1  0.26250000  0.81840000  0.76257000  1.0 -0.1400972729
C  C702  1  0.44410000  0.26250000  0.92923000  1.0 -0.1400972729
C  C703  1  0.20690000  0.44230000  0.12040000  1.0 -0.149630615
C  C704  1  0.76460000  0.20690000  0.28707000  1.0 -0.149630615
C  C705  1  0.55770000  0.76460000  0.45373000  1.0 -0.149630615
C  C706  1  0.79310000  0.55770000  0.62040000  1.0 -0.149630615
C  C707  1  0.23540000  0.79310000  0.78707000  1.0 -0.149630615
C  C708  1  0.44230000  0.23540000  0.95373000  1.0 -0.149630615
C  C709  1  0.15290000  0.54320000  0.99430000  1.0 0.5217482743
C  C710  1  0.60970000  0.15290000  0.16097000  1.0 0.5217482743
C  C711  1  0.45680000  0.60970000  0.32763000  1.0 0.5217482743
C  C712  1  0.84710000  0.45680000  0.49430000  1.0 0.5217482743
C  C713  1  0.39030000  0.84710000  0.66097000  1.0 0.5217482743
C  C714  1  0.54320000  0.39030000  0.82763000  1.0 0.5217482743
C  C715  1  0.16240000  0.47640000  0.05960000  1.0 0.0581409105
C  C716  1  0.68600000  0.16240000  0.22627000  1.0 0.0581409105
C  C717  1  0.52360000  0.68600000  0.39293000  1.0 0.0581409105
C  C718  1  0.83760000  0.52360000  0.55960000  1.0 0.0581409105
C  C719  1  0.31400000  0.83760000  0.72627000  1.0 0.0581409105
C  C720  1  0.47640000  0.31400000  0.89293000  1.0 0.0581409105
C  C721  1  0.35840000  0.52940000  0.17330000  1.0 0.5432385899
C  C722  1  0.82900000  0.35840000  0.33997000  1.0 0.5432385899
C  C723  1  0.47060000  0.82900000  0.50663000  1.0 0.5432385899
C  C724  1  0.64160000  0.47060000  0.67330000  1.0 0.5432385899
C  C725  1  0.17100000  0.64160000  0.83997000  1.0 0.5432385899
C  C726  1  0.52940000  0.17100000  0.00663000  1.0 0.5432385899
C  C727  1  0.43320000  0.61610000  0.14170000  1.0 0.4111771432
C  C728  1  0.81710000  0.43320000  0.30837000  1.0 0.4111771432
C  C729  1  0.38390000  0.81710000  0.47503000  1.0 0.4111771432
C  C730  1  0.56680000  0.38390000  0.64170000  1.0 0.4111771432
C  C731  1  0.18290000  0.56680000  0.80837000  1.0 0.4111771432
C  C732  1  0.61610000  0.18290000  0.97503000  1.0 0.4111771432
C  C733  1  0.06670000  0.42410000  0.02590000  1.0 0.5836699345
C  C734  1  0.64260000  0.06670000  0.19257000  1.0 0.5836699345
C  C735  1  0.57590000  0.64260000  0.35923000  1.0 0.5836699345
C  C736  1  0.93330000  0.57590000  0.52590000  1.0 0.5836699345
C  C737  1  0.35740000  0.93330000  0.69257000  1.0 0.5836699345
C  C738  1  0.42410000  0.35740000  0.85923000  1.0 0.5836699345
C  C739  1  0.10830000  0.48390000  0.01140000  1.0 -0.0745048451
C  C740  1  0.62440000  0.10830000  0.17807000  1.0 -0.0745048451
C  C741  1  0.51610000  0.62440000  0.34473000  1.0 -0.0745048451
C  C742  1  0.89170000  0.51610000  0.51140000  1.0 -0.0745048451
C  C743  1  0.37560000  0.89170000  0.67807000  1.0 -0.0745048451
C  C744  1  0.48390000  0.37560000  0.84473000  1.0 -0.0745048451
C  C745  1  0.63840000  0.55660000  0.35740000  1.0 0.5432385899
C  C746  1  0.08180000  0.63840000  0.52407000  1.0 0.5432385899
C  C747  1  0.44340000  0.08180000  0.69073000  1.0 0.5432385899
C  C748  1  0.36160000  0.44340000  0.85740000  1.0 0.5432385899
C  C749  1  0.91820000  0.36160000  0.02407000  1.0 0.5432385899
C  C750  1  0.55660000  0.91820000  0.19073000  1.0 0.5432385899
C  C751  1  0.10130000  0.45200000  0.02090000  1.0 -0.0507186062
C  C752  1  0.64930000  0.10130000  0.18757000  1.0 -0.0507186062
C  C753  1  0.54800000  0.64930000  0.35423000  1.0 -0.0507186062
C  C754  1  0.89870000  0.54800000  0.52090000  1.0 -0.0507186062
C  C755  1  0.35070000  0.89870000  0.68757000  1.0 -0.0507186062
C  C756  1  0.45200000  0.35070000  0.85423000  1.0 -0.0507186062
C  C757  1  0.30840000  0.43020000  0.62370000  1.0 0.1395555088
C  C758  1  0.87820000  0.30840000  0.79037000  1.0 0.1296325809
C  C759  1  0.56980000  0.87820000  0.95703000  1.0 0.1296325809
C  C760  1  0.69160000  0.56980000  0.12370000  1.0 0.1395555088
C  C761  1  0.12180000  0.69160000  0.29037000  1.0 0.1395555088
C  C762  1  0.43020000  0.12180000  0.45703000  1.0 0.1395555088
C  C763  1  0.04720000  0.31910000  0.79190000  1.0 0.440728232
C  C764  1  0.72810000  0.04720000  0.95857000  1.0 0.440728232
C  C765  1  0.68090000  0.72810000  0.12523000  1.0 0.440728232
C  C766  1  0.95280000  0.68090000  0.29190000  1.0 0.440728232
C  C767  1  0.27190000  0.95280000  0.45857000  1.0 0.440728232
C  C768  1  0.31910000  0.27190000  0.62523000  1.0 0.440728232
C  C769  1  0.16660000  0.50460000  0.03350000  1.0 -0.0999029287
C  C770  1  0.66200000  0.16660000  0.20017000  1.0 -0.0999029287
C  C771  1  0.49540000  0.66200000  0.36683000  1.0 -0.0999029287
C  C772  1  0.83340000  0.49540000  0.53350000  1.0 -0.0999029287
C  C773  1  0.33800000  0.83340000  0.70017000  1.0 -0.0999029287
C  C774  1  0.50460000  0.33800000  0.86683000  1.0 -0.0999029287
C  C775  1  0.68970000  0.49000000  0.35510000  1.0 0.5047510711
C  C776  1  0.19970000  0.68970000  0.52177000  1.0 0.5116848624
C  C777  1  0.51000000  0.19970000  0.68843000  1.0 0.5047510711
C  C778  1  0.31030000  0.51000000  0.85510000  1.0 0.5116848624
C  C779  1  0.80030000  0.31030000  0.02177000  1.0 0.5047510711
C  C780  1  0.49000000  0.80030000  0.18843000  1.0 0.5047510711
C  C781  1  0.12730000  0.44920000  0.05140000  1.0 -0.1197289104
C  C782  1  0.67810000  0.12730000  0.21807000  1.0 -0.1197289104
C  C783  1  0.55080000  0.67810000  0.38473000  1.0 -0.1197289104
C  C784  1  0.87270000  0.55080000  0.55140000  1.0 -0.1197289104
C  C785  1  0.32190000  0.87270000  0.71807000  1.0 -0.1197289104
C  C786  1  0.44920000  0.32190000  0.88473000  1.0 -0.1197289104
C  C787  1  0.45890000  0.64210000  0.13550000  1.0 -0.4790560538
C  C788  1  0.81680000  0.45890000  0.30217000  1.0 -0.4790560538
C  C789  1  0.35790000  0.81680000  0.46883000  1.0 -0.4790560538
C  C790  1  0.54110000  0.35790000  0.63550000  1.0 -0.4790560538
C  C791  1  0.18320000  0.54110000  0.80217000  1.0 -0.4790560538
C  C792  1  0.64210000  0.18320000  0.96883000  1.0 -0.4790560538
C  C793  1  0.61390000  0.59480000  0.25190000  1.0 0.5893666806
C  C794  1  0.01910000  0.61390000  0.41857000  1.0 0.5893666806
C  C795  1  0.40520000  0.01910000  0.58523000  1.0 0.5893666806
C  C796  1  0.38610000  0.40520000  0.75190000  1.0 0.5893666806
C  C797  1  0.98090000  0.38610000  0.91857000  1.0 0.5893666806
C  C798  1  0.59480000  0.98090000  0.08523000  1.0 0.5893666806
C  C799  1  0.14190000  0.51170000  0.00870000  1.0 -0.1197289104
C  C800  1  0.63020000  0.14190000  0.17537000  1.0 -0.1197289104
C  C801  1  0.48830000  0.63020000  0.34203000  1.0 -0.1197289104
C  C802  1  0.85810000  0.48830000  0.50870000  1.0 -0.1197289104
C  C803  1  0.36980000  0.85810000  0.67537000  1.0 -0.1197289104
C  C804  1  0.51170000  0.36980000  0.84203000  1.0 -0.1197289104
C  C805  1  0.29240000  0.36670000  0.70970000  1.0 0.5116848624
C  C806  1  0.92570000  0.29240000  0.87637000  1.0 0.5116848624
C  C807  1  0.63330000  0.92570000  0.04303000  1.0 0.5116848624
C  C808  1  0.70760000  0.63330000  0.20970000  1.0 0.5116848624
C  C809  1  0.07430000  0.70760000  0.37637000  1.0 0.5116848624
C  C810  1  0.36670000  0.07430000  0.54303000  1.0 0.5116848624
C  C811  1  0.58900000  0.31740000  0.55540000  1.0 0.6928519455
C  C812  1  0.27160000  0.58900000  0.72207000  1.0 0.6928519455
C  C813  1  0.68260000  0.27160000  0.88873000  1.0 0.6928519455
C  C814  1  0.41100000  0.68260000  0.05540000  1.0 0.6928519455
C  C815  1  0.72840000  0.41100000  0.22207000  1.0 0.6928519455
C  C816  1  0.31740000  0.72840000  0.38873000  1.0 0.6928519455
C  C817  1  0.60770000  0.35580000  0.55310000  1.0 -0.5643285366
C  C818  1  0.25190000  0.60770000  0.71977000  1.0 -0.5643285366
C  C819  1  0.64420000  0.25190000  0.88643000  1.0 -0.5643285366
C  C820  1  0.39230000  0.64420000  0.05310000  1.0 -0.5643285366
C  C821  1  0.74810000  0.39230000  0.21977000  1.0 -0.5643285366
C  C822  1  0.35580000  0.74810000  0.38643000  1.0 -0.5643285366
C  C823  1  0.39460000  0.65040000  0.28920000  1.0 0.5698651122
C  C824  1  0.74420000  0.39460000  0.45587000  1.0 0.5698651122
C  C825  1  0.34960000  0.74420000  0.62253000  1.0 0.5698651122
C  C826  1  0.60540000  0.34960000  0.78920000  1.0 0.5698651122
C  C827  1  0.25580000  0.60540000  0.95587000  1.0 0.5698651122
C  C828  1  0.65040000  0.25580000  0.12253000  1.0 0.5698651122
C  C829  1  0.39740000  0.68140000  0.29710000  1.0 -0.5494625652
C  C830  1  0.71600000  0.39740000  0.46377000  1.0 -0.5494625652
C  C831  1  0.31860000  0.71600000  0.63043000  1.0 -0.5494625652
C  C832  1  0.60260000  0.31860000  0.79710000  1.0 -0.5494625652
C  C833  1  0.28400000  0.60260000  0.96377000  1.0 -0.5494625652
C  C834  1  0.68140000  0.28400000  0.13043000  1.0 -0.5494625652
C  C835  1  0.51250000  0.31140000  0.74310000  1.0 -0.5494625652
C  C836  1  0.20110000  0.51250000  0.90977000  1.0 -0.5494625652
C  C837  1  0.68860000  0.20110000  0.07643000  1.0 -0.5494625652
C  C838  1  0.48750000  0.68860000  0.24310000  1.0 -0.5494625652
C  C839  1  0.79890000  0.48750000  0.40977000  1.0 -0.5494625652
C  C840  1  0.31140000  0.79890000  0.57643000  1.0 -0.5494625652
C  C841  1  0.23620000  0.25990000  0.17020000  1.0 0.6184934623
C  C842  1  0.97630000  0.23620000  0.33687000  1.0 0.6184934623
C  C843  1  0.74010000  0.97630000  0.50353000  1.0 0.6184934623
C  C844  1  0.76380000  0.74010000  0.67020000  1.0 0.6184934623
C  C845  1  0.02370000  0.76380000  0.83687000  1.0 0.6184934623
C  C846  1  0.25990000  0.02370000  0.00353000  1.0 0.6184934623
O  O1  1  0.32800000  0.30410000  0.52380000  1.0 -0.8569936308
O  O2  1  0.02390000  0.32800000  0.69047000  1.0 -0.8569936308
O  O3  1  0.69590000  0.02390000  0.85713000  1.0 -0.8569936308
O  O4  1  0.67200000  0.69590000  0.02380000  1.0 -0.8569936308
O  O5  1  0.97610000  0.67200000  0.19047000  1.0 -0.8569936308
O  O6  1  0.30410000  0.97610000  0.35713000  1.0 -0.8569936308
O  O7  1  0.36520000  0.37280000  0.85750000  1.0 -0.8699197325
O  O8  1  0.99240000  0.36520000  0.02417000  1.0 -0.8699197325
O  O9  1  0.62720000  0.99240000  0.19083000  1.0 -0.8699197325
O  O10  1  0.63480000  0.62720000  0.35750000  1.0 -0.8699197325
O  O11  1  0.00760000  0.63480000  0.52417000  1.0 -0.8699197325
O  O12  1  0.37280000  0.00760000  0.69083000  1.0 -0.8699197325
O  O13  1  0.29100000  0.33550000  0.19470000  1.0 -0.8797284516
O  O14  1  0.95550000  0.29100000  0.36137000  1.0 -0.8797284516
O  O15  1  0.66450000  0.95550000  0.52803000  1.0 -0.8797284516
O  O16  1  0.70900000  0.66450000  0.69470000  1.0 -0.8797284516
O  O17  1  0.04450000  0.70900000  0.86137000  1.0 -0.8797284516
O  O18  1  0.33550000  0.04450000  0.02803000  1.0 -0.8797284516
O  O19  1  0.33390000  0.26100000  0.44750000  1.0 -0.4790560538
O  O20  1  0.07290000  0.33390000  0.61417000  1.0 -0.4790560538
O  O21  1  0.73900000  0.07290000  0.78083000  1.0 -0.4790560538
O  O22  1  0.66610000  0.73900000  0.94750000  1.0 -0.4790560538
O  O23  1  0.92710000  0.66610000  0.11417000  1.0 -0.4790560538
O  O24  1  0.26100000  0.92710000  0.28083000  1.0 -0.4790560538
O  O25  1  0.58910000  0.58370000  0.28350000  1.0 -0.4790560538
O  O26  1  0.00540000  0.58910000  0.45017000  1.0 -0.4790560538
O  O27  1  0.41630000  0.00540000  0.61683000  1.0 -0.4790560538
O  O28  1  0.41090000  0.41630000  0.78350000  1.0 -0.4790560538
O  O29  1  0.99460000  0.41090000  0.95017000  1.0 -0.4790560538
O  O30  1  0.58370000  0.99460000  0.11683000  1.0 -0.4790560538
O  O31  1  0.33370000  0.08850000  0.09750000  1.0 -0.2936884515
O  O32  1  0.24520000  0.33370000  0.26417000  1.0 -0.2936884515
O  O33  1  0.91150000  0.24520000  0.43083000  1.0 -0.2936884515
O  O34  1  0.66630000  0.91150000  0.59750000  1.0 -0.2936884515
O  O35  1  0.75480000  0.66630000  0.76417000  1.0 -0.2936884515
O  O36  1  0.08850000  0.75480000  0.93083000  1.0 -0.2936884515
O  O37  1  0.66860000  0.64510000  0.08890000  1.0 -0.4377530369
O  O38  1  0.02350000  0.66860000  0.25557000  1.0 -0.4377530369
O  O39  1  0.35490000  0.02350000  0.42223000  1.0 -0.4377530369
O  O40  1  0.33140000  0.35490000  0.58890000  1.0 -0.4377530369
O  O41  1  0.97650000  0.33140000  0.75557000  1.0 -0.4377530369
O  O42  1  0.64510000  0.97650000  0.92223000  1.0 -0.4377530369
O  O43  1  0.29290000  0.34920000  0.87440000  1.0 -0.3517013957
O  O44  1  0.94370000  0.29290000  0.04107000  1.0 -0.359990422
O  O45  1  0.65080000  0.94370000  0.20773000  1.0 -0.359990422
O  O46  1  0.70710000  0.65080000  0.37440000  1.0 -0.3517013957
O  O47  1  0.05630000  0.70710000  0.54107000  1.0 -0.3517013957
O  O48  1  0.34920000  0.05630000  0.70773000  1.0 -0.3517013957
O  O49  1  0.03330000  0.33400000  0.01390000  1.0 -0.499298456
O  O50  1  0.69930000  0.03330000  0.18057000  1.0 -0.499298456
O  O51  1  0.66600000  0.69930000  0.34723000  1.0 -0.499298456
O  O52  1  0.96670000  0.66600000  0.51390000  1.0 -0.499298456
O  O53  1  0.30070000  0.96670000  0.68057000  1.0 -0.499298456
O  O54  1  0.33400000  0.30070000  0.84723000  1.0 -0.499298456
O  O55  1  0.62940000  0.62430000  0.03390000  1.0 -0.5189572426
O  O56  1  0.00510000  0.62940000  0.20057000  1.0 -0.5189572426
O  O57  1  0.37570000  0.00510000  0.36723000  1.0 -0.5189572426
O  O58  1  0.37060000  0.37570000  0.53390000  1.0 -0.5189572426
O  O59  1  0.99490000  0.37060000  0.70057000  1.0 -0.5189572426
O  O60  1  0.62430000  0.99490000  0.86723000  1.0 -0.5189572426
O  O61  1  0.64200000  0.60810000  0.25520000  1.0 -0.4184632428
O  O62  1  0.03390000  0.64200000  0.42187000  1.0 -0.4184632428
O  O63  1  0.39190000  0.03390000  0.58853000  1.0 -0.4184632428
O  O64  1  0.35800000  0.39190000  0.75520000  1.0 -0.4184632428
O  O65  1  0.96610000  0.35800000  0.92187000  1.0 -0.4184632428
O  O66  1  0.60810000  0.96610000  0.08853000  1.0 -0.4184632428
O  O67  1  0.41340000  0.41260000  0.93110000  1.0 -0.4692946203
O  O68  1  0.00080000  0.41340000  0.09777000  1.0 -0.4692946203
O  O69  1  0.58740000  0.00080000  0.26443000  1.0 -0.4692946203
O  O70  1  0.58660000  0.58740000  0.43110000  1.0 -0.4692946203
O  O71  1  0.99920000  0.58660000  0.59777000  1.0 -0.4645607623
O  O72  1  0.41260000  0.99920000  0.76443000  1.0 -0.4692946203
O  O73  1  0.24330000  0.33280000  0.11600000  1.0 -0.499298456
O  O74  1  0.91050000  0.24330000  0.28267000  1.0 -0.499298456
O  O75  1  0.66720000  0.91050000  0.44933000  1.0 -0.499298456
O  O76  1  0.75670000  0.66720000  0.61600000  1.0 -0.499298456
O  O77  1  0.08950000  0.75670000  0.78267000  1.0 -0.499298456
O  O78  1  0.33280000  0.08950000  0.94933000  1.0 -0.499298456
O  O79  1  0.36320000  0.38420000  0.17980000  1.0 -0.4692946203
O  O80  1  0.97900000  0.36320000  0.34647000  1.0 -0.4692946203
O  O81  1  0.61580000  0.97900000  0.51313000  1.0 -0.4692946203
O  O82  1  0.63680000  0.61580000  0.67980000  1.0 -0.4692946203
O  O83  1  0.02100000  0.63680000  0.84647000  1.0 -0.4692946203
O  O84  1  0.38420000  0.02100000  0.01313000  1.0 -0.4692946203
O  O85  1  0.39960000  0.33850000  0.49210000  1.0 -0.529125242
O  O86  1  0.06110000  0.39960000  0.65877000  1.0 -0.529125242
O  O87  1  0.66150000  0.06110000  0.82543000  1.0 -0.529125242
O  O88  1  0.60040000  0.66150000  0.99210000  1.0 -0.529125242
O  O89  1  0.93890000  0.60040000  0.15877000  1.0 -0.529125242
O  O90  1  0.33850000  0.93890000  0.32543000  1.0 -0.529125242
O  O91  1  0.33910000  0.34350000  0.11960000  1.0 -0.529125242
O  O92  1  0.99560000  0.33910000  0.28627000  1.0 -0.529125242
O  O93  1  0.65650000  0.99560000  0.45293000  1.0 -0.529125242
O  O94  1  0.66090000  0.65650000  0.61960000  1.0 -0.529125242
O  O95  1  0.00440000  0.66090000  0.78627000  1.0 -0.529125242
O  O96  1  0.34350000  0.00440000  0.95293000  1.0 -0.529125242
O  O97  1  0.32120000  0.29330000  0.20380000  1.0 -0.529125242
O  O98  1  0.02790000  0.32120000  0.37047000  1.0 -0.529125242
O  O99  1  0.70670000  0.02790000  0.53713000  1.0 -0.529125242
O  O100  1  0.67880000  0.70670000  0.70380000  1.0 -0.529125242
O  O101  1  0.97210000  0.67880000  0.87047000  1.0 -0.529125242
O  O102  1  0.29330000  0.97210000  0.03713000  1.0 -0.529125242
O  O103  1  0.31850000  0.40490000  0.20050000  1.0 -0.4790560538
O  O104  1  0.91360000  0.31850000  0.36717000  1.0 -0.4790560538
O  O105  1  0.59510000  0.91360000  0.53383000  1.0 -0.4790560538
O  O106  1  0.68150000  0.59510000  0.70050000  1.0 -0.4790560538
O  O107  1  0.08640000  0.68150000  0.86717000  1.0 -0.4790560538
O  O108  1  0.40490000  0.08640000  0.03383000  1.0 -0.4790560538
O  O109  1  0.32780000  0.04830000  0.34660000  1.0 -0.5084546934
O  O110  1  0.27950000  0.32780000  0.51327000  1.0 -0.5084546934
O  O111  1  0.95170000  0.27950000  0.67993000  1.0 -0.5084546934
O  O112  1  0.67220000  0.95170000  0.84660000  1.0 -0.5189572426
O  O113  1  0.72050000  0.67220000  0.01327000  1.0 -0.5189572426
O  O114  1  0.04830000  0.72050000  0.17993000  1.0 -0.5084546934
O  O115  1  0.35930000  0.06290000  0.12070000  1.0 -0.5084546934
O  O116  1  0.29640000  0.35930000  0.28737000  1.0 -0.5084546934
O  O117  1  0.93710000  0.29640000  0.45403000  1.0 -0.5084546934
O  O118  1  0.64070000  0.93710000  0.62070000  1.0 -0.5084546934
O  O119  1  0.70360000  0.64070000  0.78737000  1.0 -0.5084546934
O  O120  1  0.06290000  0.70360000  0.95403000  1.0 -0.5084546934
O  O121  1  0.33470000  0.33300000  0.25880000  1.0 -0.3916635714
O  O122  1  0.00170000  0.33470000  0.42547000  1.0 -0.3916635714
O  O123  1  0.66700000  0.00170000  0.59213000  1.0 -0.3916635714
O  O124  1  0.66530000  0.66700000  0.75880000  1.0 -0.3916635714
O  O125  1  0.99830000  0.66530000  0.92547000  1.0 -0.3916635714
O  O126  1  0.33300000  0.99830000  0.09213000  1.0 -0.3916635714
O  O127  1  0.31220000  0.32960000  0.92020000  1.0 -0.359990422
O  O128  1  0.98260000  0.31220000  0.08687000  1.0 -0.359990422
O  O129  1  0.67040000  0.98260000  0.25353000  1.0 -0.359990422
O  O130  1  0.68780000  0.67040000  0.42020000  1.0 -0.359990422
O  O131  1  0.01740000  0.68780000  0.58687000  1.0 -0.359990422
O  O132  1  0.32960000  0.01740000  0.75353000  1.0 -0.359990422
O  O133  1  0.34870000  0.02720000  0.28570000  1.0 -0.4790560538
O  O134  1  0.32150000  0.34870000  0.45237000  1.0 -0.4790560538
O  O135  1  0.97280000  0.32150000  0.61903000  1.0 -0.4790560538
O  O136  1  0.65130000  0.97280000  0.78570000  1.0 -0.4790560538
O  O137  1  0.67850000  0.65130000  0.95237000  1.0 -0.4790560538
O  O138  1  0.02720000  0.67850000  0.11903000  1.0 -0.4790560538
O  O139  1  0.38250000  0.28930000  0.52400000  1.0 -0.4692946203
O  O140  1  0.09320000  0.38250000  0.69067000  1.0 -0.4692946203
O  O141  1  0.71070000  0.09320000  0.85733000  1.0 -0.4692946203
O  O142  1  0.61750000  0.71070000  0.02400000  1.0 -0.4692946203
O  O143  1  0.90680000  0.61750000  0.19067000  1.0 -0.4692946203
O  O144  1  0.28930000  0.90680000  0.35733000  1.0 -0.4692946203
O  O145  1  0.25990000  0.45830000  0.75790000  1.0 -0.4086916797
O  O146  1  0.80160000  0.25990000  0.92457000  1.0 -0.4086916797
O  O147  1  0.54170000  0.80160000  0.09123000  1.0 -0.4086916797
O  O148  1  0.74010000  0.54170000  0.25790000  1.0 -0.4086916797
O  O149  1  0.19840000  0.74010000  0.42457000  1.0 -0.4086916797
O  O150  1  0.45830000  0.19840000  0.59123000  1.0 -0.4086916797
O  O151  1  0.47180000  0.26530000  0.58430000  1.0 -0.4377530369
O  O152  1  0.20650000  0.47180000  0.75097000  1.0 -0.4377530369
O  O153  1  0.73470000  0.20650000  0.91763000  1.0 -0.4377530369
O  O154  1  0.52820000  0.73470000  0.08430000  1.0 -0.4377530369
O  O155  1  0.79350000  0.52820000  0.25097000  1.0 -0.4377530369
O  O156  1  0.26530000  0.79350000  0.41763000  1.0 -0.4377530369
O  O157  1  0.36390000  0.40400000  0.27520000  1.0 -0.499298456
O  O158  1  0.95990000  0.36390000  0.44187000  1.0 -0.499298456
O  O159  1  0.59600000  0.95990000  0.60853000  1.0 -0.499298456
O  O160  1  0.63610000  0.59600000  0.77520000  1.0 -0.499298456
O  O161  1  0.04010000  0.63610000  0.94187000  1.0 -0.499298456
O  O162  1  0.40400000  0.04010000  0.10853000  1.0 -0.499298456
O  O163  1  0.27550000  0.31220000  0.09230000  1.0 -0.4300440016
O  O164  1  0.96330000  0.27550000  0.25897000  1.0 -0.4300440016
O  O165  1  0.68780000  0.96330000  0.42563000  1.0 -0.4300440016
O  O166  1  0.72450000  0.68780000  0.59230000  1.0 -0.4300440016
O  O167  1  0.03670000  0.72450000  0.75897000  1.0 -0.4300440016
O  O168  1  0.31220000  0.03670000  0.92563000  1.0 -0.4300440016
O  O169  1  0.35270000  0.31360000  0.42570000  1.0 -0.4300440016
O  O170  1  0.03910000  0.35270000  0.59237000  1.0 -0.4300440016
O  O171  1  0.68640000  0.03910000  0.75903000  1.0 -0.4300440016
O  O172  1  0.64730000  0.68640000  0.92570000  1.0 -0.4300440016
O  O173  1  0.96090000  0.64730000  0.09237000  1.0 -0.4300440016
O  O174  1  0.31360000  0.96090000  0.25903000  1.0 -0.4300440016
O  O175  1  0.39890000  0.52590000  0.29110000  1.0 -0.4692946203
O  O176  1  0.87300000  0.39890000  0.45777000  1.0 -0.4692946203
O  O177  1  0.47410000  0.87300000  0.62443000  1.0 -0.4692946203
O  O178  1  0.60110000  0.47410000  0.79110000  1.0 -0.4692946203
O  O179  1  0.12700000  0.60110000  0.95777000  1.0 -0.4692946203
O  O180  1  0.52590000  0.12700000  0.12443000  1.0 -0.4692946203
O  O181  1  0.37580000  0.36270000  0.95700000  1.0 -0.4300440016
O  O182  1  0.01310000  0.37580000  0.12367000  1.0 -0.4300440016
O  O183  1  0.63730000  0.01310000  0.29033000  1.0 -0.4300440016
O  O184  1  0.62420000  0.63730000  0.45700000  1.0 -0.4300440016
O  O185  1  0.98690000  0.62420000  0.62367000  1.0 -0.4300440016
O  O186  1  0.36270000  0.98690000  0.79033000  1.0 -0.4300440016
O  O187  1  0.39070000  0.58170000  0.26660000  1.0 -0.7302738877
O  O188  1  0.80900000  0.39070000  0.43327000  1.0 -0.7302738877
O  O189  1  0.41830000  0.80900000  0.59993000  1.0 -0.7302738877
O  O190  1  0.60930000  0.41830000  0.76660000  1.0 -0.7302738877
O  O191  1  0.19100000  0.60930000  0.93327000  1.0 -0.7302738877
O  O192  1  0.58170000  0.19100000  0.09993000  1.0 -0.7302738877
O  O193  1  0.52730000  0.25280000  0.60930000  1.0 -0.6958190354
O  O194  1  0.27450000  0.52730000  0.77597000  1.0 -0.6958190354
O  O195  1  0.74720000  0.27450000  0.94263000  1.0 -0.6958190354
O  O196  1  0.47270000  0.74720000  0.10930000  1.0 -0.6958190354
O  O197  1  0.72550000  0.47270000  0.27597000  1.0 -0.6958190354
O  O198  1  0.25280000  0.72550000  0.44263000  1.0 -0.6958190354
O  O199  1  0.37490000  0.53850000  0.34360000  1.0 -0.4377530369
O  O200  1  0.83640000  0.37490000  0.51027000  1.0 -0.4377530369
O  O201  1  0.46150000  0.83640000  0.67693000  1.0 -0.4377530369
O  O202  1  0.62510000  0.46150000  0.84360000  1.0 -0.4377530369
O  O203  1  0.16360000  0.62510000  0.01027000  1.0 -0.4377530369
O  O204  1  0.53850000  0.16360000  0.17693000  1.0 -0.4377530369
O  O205  1  0.50790000  0.27630000  0.52980000  1.0 -0.4377530369
O  O206  1  0.23160000  0.50790000  0.69647000  1.0 -0.4377530369
O  O207  1  0.72370000  0.23160000  0.86313000  1.0 -0.4377530369
O  O208  1  0.49210000  0.72370000  0.02980000  1.0 -0.4377530369
O  O209  1  0.76840000  0.49210000  0.19647000  1.0 -0.4377530369
O  O210  1  0.27630000  0.76840000  0.36313000  1.0 -0.4377530369
O  O211  1  0.54430000  0.29160000  0.70830000  1.0 -0.4790560538
O  O212  1  0.25270000  0.54430000  0.87497000  1.0 -0.4790560538
O  O213  1  0.70840000  0.25270000  0.04163000  1.0 -0.4790560538
O  O214  1  0.45570000  0.70840000  0.20830000  1.0 -0.4790560538
O  O215  1  0.74730000  0.45570000  0.37497000  1.0 -0.4790560538
O  O216  1  0.29160000  0.74730000  0.54163000  1.0 -0.4790560538
O  O217  1  0.26630000  0.38150000  0.18090000  1.0 -0.5084546934
O  O218  1  0.88480000  0.26630000  0.34757000  1.0 -0.5084546934
O  O219  1  0.61850000  0.88480000  0.51423000  1.0 -0.5084546934
O  O220  1  0.73370000  0.61850000  0.68090000  1.0 -0.5084546934
O  O221  1  0.11520000  0.73370000  0.84757000  1.0 -0.5084546934
O  O222  1  0.38150000  0.11520000  0.01423000  1.0 -0.5084546934
O  O223  1  0.49380000  0.27260000  0.68250000  1.0 -0.4184632428
O  O224  1  0.22120000  0.49380000  0.84917000  1.0 -0.4184632428
O  O225  1  0.72740000  0.22120000  0.01583000  1.0 -0.4184632428
O  O226  1  0.50620000  0.72740000  0.18250000  1.0 -0.4184632428
O  O227  1  0.77880000  0.50620000  0.34917000  1.0 -0.4184632428
O  O228  1  0.27260000  0.77880000  0.51583000  1.0 -0.4184632428
O  O229  1  0.28720000  0.49640000  0.69270000  1.0 -0.4692946203
O  O230  1  0.79080000  0.28720000  0.85937000  1.0 -0.4692946203
O  O231  1  0.50360000  0.79080000  0.02603000  1.0 -0.4692946203
O  O232  1  0.71280000  0.50360000  0.19270000  1.0 -0.4692946203
O  O233  1  0.20920000  0.71280000  0.35937000  1.0 -0.4692946203
O  O234  1  0.49640000  0.20920000  0.52603000  1.0 -0.4692946203
O  O235  1  0.25820000  0.26480000  0.53210000  1.0 0.1791192946
O  O236  1  0.99340000  0.25820000  0.69877000  1.0 0.1867787046
O  O237  1  0.73520000  0.99340000  0.86543000  1.0 0.1867787046
O  O238  1  0.74180000  0.73520000  0.03210000  1.0 0.1867787046
O  O239  1  0.00660000  0.74180000  0.19877000  1.0 0.1791192946
O  O240  1  0.26480000  0.00660000  0.36543000  1.0 0.1867787046
O  O241  1  0.36780000  0.38100000  0.34000000  1.0 -0.4692946203
O  O242  1  0.98680000  0.36780000  0.50667000  1.0 -0.4692946203
O  O243  1  0.61900000  0.98680000  0.67333000  1.0 -0.4692946203
O  O244  1  0.63220000  0.61900000  0.84000000  1.0 -0.4692946203
O  O245  1  0.01320000  0.63220000  0.00667000  1.0 -0.4692946203
O  O246  1  0.38100000  0.01320000  0.17333000  1.0 -0.4692946203
O  O247  1  0.38860000  0.37930000  0.43720000  1.0 0.1480179948
O  O248  1  0.00930000  0.38860000  0.60387000  1.0 0.1480179948
O  O249  1  0.62070000  0.00930000  0.77053000  1.0 0.1480179948
O  O250  1  0.61140000  0.62070000  0.93720000  1.0 0.1480179948
O  O251  1  0.99070000  0.61140000  0.10387000  1.0 0.1480179948
O  O252  1  0.37930000  0.99070000  0.27053000  1.0 0.1480179948
O  O253  1  0.45420000  0.45390000  0.85360000  1.0 0.0523691214
O  O254  1  0.00030000  0.45420000  0.02027000  1.0 0.0523691214
O  O255  1  0.54610000  0.00030000  0.18693000  1.0 0.0581409105
O  O256  1  0.54580000  0.54610000  0.35360000  1.0 0.0523691214
O  O257  1  0.99970000  0.54580000  0.52027000  1.0 0.0523691214
O  O258  1  0.45390000  0.99970000  0.68693000  1.0 0.0523691214
O  O259  1  0.29130000  0.36630000  0.76820000  1.0 -0.4692946203
O  O260  1  0.92500000  0.29130000  0.93487000  1.0 -0.4692946203
O  O261  1  0.63370000  0.92500000  0.10153000  1.0 -0.4692946203
O  O262  1  0.70870000  0.63370000  0.26820000  1.0 -0.4692946203
O  O263  1  0.07500000  0.70870000  0.43487000  1.0 -0.4692946203
O  O264  1  0.36630000  0.07500000  0.60153000  1.0 -0.4692946203
O  O265  1  0.33520000  0.22340000  0.52460000  1.0 -0.3916635714
O  O266  1  0.11180000  0.33520000  0.69127000  1.0 -0.3916635714
O  O267  1  0.77660000  0.11180000  0.85793000  1.0 -0.3916635714
O  O268  1  0.66480000  0.77660000  0.02460000  1.0 -0.3916635714
O  O269  1  0.88820000  0.66480000  0.19127000  1.0 -0.3916635714
O  O270  1  0.22340000  0.88820000  0.35793000  1.0 -0.3916635714
O  O271  1  0.34720000  0.29540000  0.94180000  1.0 -0.3517013957
O  O272  1  0.05180000  0.34720000  0.10847000  1.0 -0.3517013957
O  O273  1  0.70460000  0.05180000  0.27513000  1.0 -0.3517013957
O  O274  1  0.65280000  0.70460000  0.44180000  1.0 -0.3517013957
O  O275  1  0.94820000  0.65280000  0.60847000  1.0 -0.3517013957
O  O276  1  0.29540000  0.94820000  0.77513000  1.0 -0.3517013957
O  O277  1  0.26320000  0.31330000  0.60440000  1.0 -0.5494625652
O  O278  1  0.94990000  0.26320000  0.77107000  1.0 -0.5494625652
O  O279  1  0.68670000  0.94990000  0.93773000  1.0 -0.5494625652
O  O280  1  0.73680000  0.68670000  0.10440000  1.0 -0.5494625652
O  O281  1  0.05010000  0.73680000  0.27107000  1.0 -0.5494625652
O  O282  1  0.31330000  0.05010000  0.43773000  1.0 -0.5494625652
O  O283  1  0.44320000  0.54410000  0.21390000  1.0 0.0523691214
O  O284  1  0.89910000  0.44320000  0.38057000  1.0 0.0581409105
O  O285  1  0.45590000  0.89910000  0.54723000  1.0 0.0523691214
O  O286  1  0.55680000  0.45590000  0.71390000  1.0 0.0523691214
O  O287  1  0.10090000  0.55680000  0.88057000  1.0 0.0523691214
O  O288  1  0.54410000  0.10090000  0.04723000  1.0 0.0581409105
O  O289  1  0.37560000  0.58560000  0.40490000  1.0 -0.6157951308
O  O290  1  0.79000000  0.37560000  0.57157000  1.0 -0.6157951308
O  O291  1  0.41440000  0.79000000  0.73823000  1.0 -0.6157951308
O  O292  1  0.62440000  0.41440000  0.90490000  1.0 -0.6157951308
O  O293  1  0.21000000  0.62440000  0.07157000  1.0 -0.6157951308
O  O294  1  0.58560000  0.21000000  0.23823000  1.0 -0.6157951308
O  O295  1  0.17450000  0.56720000  0.01090000  1.0 -0.4519418232
O  O296  1  0.60730000  0.17450000  0.17757000  1.0 -0.4519418232
O  O297  1  0.43280000  0.60730000  0.34423000  1.0 -0.4519418232
O  O298  1  0.82550000  0.43280000  0.51090000  1.0 -0.4519418232
O  O299  1  0.39270000  0.82550000  0.67757000  1.0 -0.4519418232
O  O300  1  0.56720000  0.39270000  0.84423000  1.0 -0.4519418232
O  O301  1  0.13610000  0.54260000  0.95380000  1.0 -0.499298456
O  O302  1  0.59350000  0.13610000  0.12047000  1.0 -0.5084546934
O  O303  1  0.45740000  0.59350000  0.28713000  1.0 -0.5084546934
O  O304  1  0.86390000  0.45740000  0.45380000  1.0 -0.5084546934
O  O305  1  0.40650000  0.86390000  0.62047000  1.0 -0.5084546934
O  O306  1  0.54260000  0.40650000  0.78713000  1.0 -0.5084546934
O  O307  1  0.38410000  0.53470000  0.19130000  1.0 -0.4645607623
O  O308  1  0.84940000  0.38410000  0.35797000  1.0 -0.4645607623
O  O309  1  0.46530000  0.84940000  0.52463000  1.0 -0.4645607623
O  O310  1  0.61590000  0.46530000  0.69130000  1.0 -0.4645607623
O  O311  1  0.15060000  0.61590000  0.85797000  1.0 -0.4645607623
O  O312  1  0.53470000  0.15060000  0.02463000  1.0 -0.4692946203
O  O313  1  0.40840000  0.62160000  0.17740000  1.0 -0.4086916797
O  O314  1  0.78680000  0.40840000  0.34407000  1.0 -0.4086916797
O  O315  1  0.37840000  0.78680000  0.51073000  1.0 -0.4086916797
O  O316  1  0.59160000  0.37840000  0.67740000  1.0 -0.4086916797
O  O317  1  0.21320000  0.59160000  0.84407000  1.0 -0.4086916797
O  O318  1  0.62160000  0.21320000  0.01073000  1.0 -0.4086916797
O  O319  1  0.32530000  0.57030000  0.23790000  1.0 -0.5802352779
O  O320  1  0.75500000  0.32530000  0.40457000  1.0 -0.5802352779
O  O321  1  0.42970000  0.75500000  0.57123000  1.0 -0.5802352779
O  O322  1  0.67470000  0.42970000  0.73790000  1.0 -0.5802352779
O  O323  1  0.24500000  0.67470000  0.90457000  1.0 -0.5802352779
O  O324  1  0.57030000  0.24500000  0.07123000  1.0 -0.5802352779
O  O325  1  0.35690000  0.55980000  0.17700000  1.0 -0.4300440016
O  O326  1  0.79710000  0.35690000  0.34367000  1.0 -0.4300440016
O  O327  1  0.44020000  0.79710000  0.51033000  1.0 -0.4300440016
O  O328  1  0.64310000  0.44020000  0.67700000  1.0 -0.4300440016
O  O329  1  0.20290000  0.64310000  0.84367000  1.0 -0.4300440016
O  O330  1  0.55980000  0.20290000  0.01033000  1.0 -0.4300440016
O  O331  1  0.33260000  0.56340000  0.31910000  1.0 0.2896193487
O  O332  1  0.76920000  0.33260000  0.48577000  1.0 0.2896193487
O  O333  1  0.43660000  0.76920000  0.65243000  1.0 0.2841169384
O  O334  1  0.66740000  0.43660000  0.81910000  1.0 0.2896193487
O  O335  1  0.23080000  0.66740000  0.98577000  1.0 0.2660796193
O  O336  1  0.56340000  0.23080000  0.15243000  1.0 0.2896193487
O  O337  1  0.44250000  0.59810000  0.18710000  1.0 -0.4790560538
O  O338  1  0.84440000  0.44250000  0.35377000  1.0 -0.4790560538
O  O339  1  0.40190000  0.84440000  0.52043000  1.0 -0.4790560538
O  O340  1  0.55750000  0.40190000  0.68710000  1.0 -0.4790560538
O  O341  1  0.15560000  0.55750000  0.85377000  1.0 -0.4790560538
O  O342  1  0.59810000  0.15560000  0.02043000  1.0 -0.4790560538
O  O343  1  0.35410000  0.61690000  0.15860000  1.0 0.252954669
O  O344  1  0.73720000  0.35410000  0.32527000  1.0 0.2600406256
O  O345  1  0.38310000  0.73720000  0.49193000  1.0 0.252954669
O  O346  1  0.64590000  0.38310000  0.65860000  1.0 0.252954669
O  O347  1  0.26280000  0.64590000  0.82527000  1.0 0.252954669
O  O348  1  0.61690000  0.26280000  0.99193000  1.0 0.2600406256
O  O349  1  0.60840000  0.55690000  0.34920000  1.0 -0.5714147243
O  O350  1  0.05150000  0.60840000  0.51587000  1.0 -0.5714147243
O  O351  1  0.44310000  0.05150000  0.68253000  1.0 -0.5714147243
O  O352  1  0.39160000  0.44310000  0.84920000  1.0 -0.5714147243
O  O353  1  0.94850000  0.39160000  0.01587000  1.0 -0.5714147243
O  O354  1  0.55690000  0.94850000  0.18253000  1.0 -0.5714147243
O  O355  1  0.04630000  0.43110000  0.01070000  1.0 -0.485886779
O  O356  1  0.61520000  0.04630000  0.17737000  1.0 -0.485886779
O  O357  1  0.56890000  0.61520000  0.34403000  1.0 -0.485886779
O  O358  1  0.95370000  0.56890000  0.51070000  1.0 -0.485886779
O  O359  1  0.38480000  0.95370000  0.67737000  1.0 -0.485886779
O  O360  1  0.43110000  0.38480000  0.84403000  1.0 -0.485886779
O  O361  1  0.06170000  0.39580000  0.04410000  1.0 -0.5189572426
O  O362  1  0.66590000  0.06170000  0.21077000  1.0 -0.5189572426
O  O363  1  0.60420000  0.66590000  0.37743000  1.0 -0.5189572426
O  O364  1  0.93830000  0.60420000  0.54410000  1.0 -0.5189572426
O  O365  1  0.33410000  0.93830000  0.71077000  1.0 -0.5189572426
O  O366  1  0.39580000  0.33410000  0.87743000  1.0 -0.5189572426
O  O367  1  0.30970000  0.28110000  0.10220000  1.0 0.1395555088
O  O368  1  0.02860000  0.30970000  0.26887000  1.0 0.1395555088
O  O369  1  0.71890000  0.02860000  0.43553000  1.0 0.1395555088
O  O370  1  0.69030000  0.71890000  0.60220000  1.0 0.1395555088
O  O371  1  0.97140000  0.69030000  0.76887000  1.0 0.1296325809
O  O372  1  0.28110000  0.97140000  0.93553000  1.0 0.1296325809
O  O373  1  0.66310000  0.58280000  0.33760000  1.0 -0.5413312382
O  O374  1  0.08030000  0.66310000  0.50427000  1.0 -0.5413312382
O  O375  1  0.41720000  0.08030000  0.67093000  1.0 -0.5413312382
O  O376  1  0.33690000  0.41720000  0.83760000  1.0 -0.5413312382
O  O377  1  0.91970000  0.33690000  0.00427000  1.0 -0.5413312382
O  O378  1  0.58280000  0.91970000  0.17093000  1.0 -0.5413312382
O  O379  1  0.06720000  0.32800000  0.76700000  1.0 -0.3725784225
O  O380  1  0.73920000  0.06720000  0.93367000  1.0 -0.3725784225
O  O381  1  0.67200000  0.73920000  0.10033000  1.0 -0.3725784225
O  O382  1  0.93280000  0.67200000  0.26700000  1.0 -0.3725784225
O  O383  1  0.26080000  0.93280000  0.43367000  1.0 -0.3725784225
O  O384  1  0.32800000  0.26080000  0.60033000  1.0 -0.3725784225
O  O385  1  0.71660000  0.51360000  0.34510000  1.0 -0.4692946203
O  O386  1  0.20300000  0.71660000  0.51177000  1.0 -0.4692946203
O  O387  1  0.48640000  0.20300000  0.67843000  1.0 -0.4692946203
O  O388  1  0.28340000  0.48640000  0.84510000  1.0 -0.4692946203
O  O389  1  0.79700000  0.28340000  0.01177000  1.0 -0.4692946203
O  O390  1  0.51360000  0.79700000  0.17843000  1.0 -0.4692946203
O  O391  1  0.01680000  0.30140000  0.78340000  1.0 -0.4028860284
O  O392  1  0.71540000  0.01680000  0.95007000  1.0 -0.4028860284
O  O393  1  0.69860000  0.71540000  0.11673000  1.0 -0.4028860284
O  O394  1  0.98320000  0.69860000  0.28340000  1.0 -0.4028860284
O  O395  1  0.28460000  0.98320000  0.45007000  1.0 -0.4028860284
O  O396  1  0.30140000  0.28460000  0.61673000  1.0 -0.4028860284
O  O397  1  0.20040000  0.32790000  0.18880000  1.0 -0.2302380773
O  O398  1  0.87250000  0.20040000  0.35547000  1.0 -0.2248701158
O  O399  1  0.67210000  0.87250000  0.52213000  1.0 -0.2302380773
O  O400  1  0.79960000  0.67210000  0.68880000  1.0 -0.2302380773
O  O401  1  0.12750000  0.79960000  0.85547000  1.0 -0.2302380773
O  O402  1  0.32790000  0.12750000  0.02213000  1.0 -0.2302380773
O  O403  1  0.68970000  0.46090000  0.35940000  1.0 -0.485886779
O  O404  1  0.22880000  0.68970000  0.52607000  1.0 -0.485886779
O  O405  1  0.53910000  0.22880000  0.69273000  1.0 -0.485886779
O  O406  1  0.31030000  0.53910000  0.85940000  1.0 -0.485886779
O  O407  1  0.77120000  0.31030000  0.02607000  1.0 -0.485886779
O  O408  1  0.46090000  0.77120000  0.19273000  1.0 -0.485886779
O  O409  1  0.28950000  0.34490000  0.70240000  1.0 -0.0999029287
O  O410  1  0.94460000  0.28950000  0.86907000  1.0 -0.0999029287
O  O411  1  0.65510000  0.94460000  0.03573000  1.0 -0.0999029287
O  O412  1  0.71050000  0.65510000  0.20240000  1.0 -0.0999029287
O  O413  1  0.05540000  0.71050000  0.36907000  1.0 -0.0999029287
O  O414  1  0.34490000  0.05540000  0.53573000  1.0 -0.0999029287
O  O415  1  0.57290000  0.30050000  0.53790000  1.0 -0.485886779
O  O416  1  0.27240000  0.57290000  0.70457000  1.0 -0.485886779
O  O417  1  0.69950000  0.27240000  0.87123000  1.0 -0.485886779
O  O418  1  0.42710000  0.69950000  0.03790000  1.0 -0.4790560538
O  O419  1  0.72760000  0.42710000  0.20457000  1.0 -0.485886779
O  O420  1  0.30050000  0.72760000  0.37123000  1.0 -0.4790560538
O  O421  1  0.43100000  0.21520000  0.65290000  1.0 -0.3128670854
O  O422  1  0.21580000  0.43100000  0.81957000  1.0 -0.3128670854
O  O423  1  0.78480000  0.21580000  0.98623000  1.0 -0.3128670854
O  O424  1  0.56900000  0.78480000  0.15290000  1.0 -0.3128670854
O  O425  1  0.78420000  0.56900000  0.31957000  1.0 -0.3128670854
O  O426  1  0.21520000  0.78420000  0.48623000  1.0 -0.3128670854
O  O427  1  0.38810000  0.62820000  0.31330000  1.0 -0.5494625652
O  O428  1  0.75990000  0.38810000  0.47997000  1.0 -0.5494625652
O  O429  1  0.37180000  0.75990000  0.64663000  1.0 -0.5494625652
O  O430  1  0.61190000  0.37180000  0.81330000  1.0 -0.5494625652
O  O431  1  0.24010000  0.61190000  0.97997000  1.0 -0.5494625652
O  O432  1  0.62820000  0.24010000  0.14663000  1.0 -0.5494625652
O  O433  1  0.54240000  0.25650000  0.48100000  1.0 0.3397887018
O  O434  1  0.28590000  0.54240000  0.64767000  1.0 0.3397887018
O  O435  1  0.74350000  0.28590000  0.81433000  1.0 0.3397887018
O  O436  1  0.45760000  0.74350000  0.98100000  1.0 0.3303891865
O  O437  1  0.71410000  0.45760000  0.14767000  1.0 0.3397887018
O  O438  1  0.25650000  0.71410000  0.31433000  1.0 0.3397887018
O  O439  1  0.38750000  0.64000000  0.23910000  1.0 -0.3517013957
O  O440  1  0.74750000  0.38750000  0.40577000  1.0 -0.3517013957
O  O441  1  0.36000000  0.74750000  0.57243000  1.0 -0.3517013957
O  O442  1  0.61250000  0.36000000  0.73910000  1.0 -0.3517013957
O  O443  1  0.25250000  0.61250000  0.90577000  1.0 -0.3517013957
O  O444  1  0.64000000  0.25250000  0.07243000  1.0 -0.3517013957
O  O445  1  0.60150000  0.28220000  0.70300000  1.0 -0.5494625652
O  O446  1  0.31930000  0.60150000  0.86967000  1.0 -0.5494625652
O  O447  1  0.71780000  0.31930000  0.03633000  1.0 -0.5494625652
O  O448  1  0.39850000  0.71780000  0.20300000  1.0 -0.5494625652
O  O449  1  0.68070000  0.39850000  0.36967000  1.0 -0.5494625652
O  O450  1  0.28220000  0.68070000  0.53633000  1.0 -0.5494625652
O  O451  1  0.99060000  0.31680000  0.95500000  1.0 -0.610283986
O  O452  1  0.67380000  0.99060000  0.12167000  1.0 -0.610283986
O  O453  1  0.68320000  0.67380000  0.28833000  1.0 -0.610283986
O  O454  1  0.00940000  0.68320000  0.45500000  1.0 -0.610283986
O  O455  1  0.32620000  0.00940000  0.62167000  1.0 -0.610283986
O  O456  1  0.31680000  0.32620000  0.78833000  1.0 -0.610283986
O  O457  1  0.59220000  0.31300000  0.60990000  1.0 -0.5084546934
O  O458  1  0.27920000  0.59220000  0.77657000  1.0 -0.5084546934
O  O459  1  0.68700000  0.27920000  0.94323000  1.0 -0.5084546934
O  O460  1  0.40780000  0.68700000  0.10990000  1.0 -0.5084546934
O  O461  1  0.72080000  0.40780000  0.27657000  1.0 -0.5084546934
O  O462  1  0.31300000  0.72080000  0.44323000  1.0 -0.5084546934
O  O463  1  0.56560000  0.23760000  0.53810000  1.0 -0.5494625652
O  O464  1  0.32800000  0.56560000  0.70477000  1.0 -0.5494625652
O  O465  1  0.76240000  0.32800000  0.87143000  1.0 -0.5494625652
O  O466  1  0.43440000  0.76240000  0.03810000  1.0 -0.5413312382
O  O467  1  0.67200000  0.43440000  0.20477000  1.0 -0.5494625652
O  O468  1  0.23760000  0.67200000  0.37143000  1.0 -0.5494625652
O  O469  1  0.58670000  0.24820000  0.61750000  1.0 0.2896193487
O  O470  1  0.33850000  0.58670000  0.78417000  1.0 0.2896193487
O  O471  1  0.75180000  0.33850000  0.95083000  1.0 0.296851739
O  O472  1  0.41330000  0.75180000  0.11750000  1.0 0.2896193487
O  O473  1  0.66150000  0.41330000  0.28417000  1.0 0.296851739
O  O474  1  0.24820000  0.66150000  0.45083000  1.0 0.2896193487
O  O475  1  0.22350000  0.27890000  0.18230000  1.0 -0.5714147243
O  O476  1  0.94460000  0.22350000  0.34897000  1.0 -0.5714147243
O  O477  1  0.72110000  0.94460000  0.51563000  1.0 -0.5714147243
O  O478  1  0.77650000  0.72110000  0.68230000  1.0 -0.5714147243
O  O479  1  0.05540000  0.77650000  0.84897000  1.0 -0.5714147243
O  O480  1  0.27890000  0.05540000  0.01563000  1.0 -0.5714147243
O  O481  1  0.25680000  0.26150000  0.16130000  1.0 -0.4300440016
O  O482  1  0.99530000  0.25680000  0.32797000  1.0 -0.4300440016
O  O483  1  0.73850000  0.99530000  0.49463000  1.0 -0.4300440016
O  O484  1  0.74320000  0.73850000  0.66130000  1.0 -0.4300440016
O  O485  1  0.00470000  0.74320000  0.82797000  1.0 -0.4300440016
O  O486  1  0.26150000  0.00470000  0.99463000  1.0 -0.4300440016
O  O487  1  0.28150000  0.23570000  0.51750000  1.0 -0.3446162197
O  O488  1  0.04580000  0.28150000  0.68417000  1.0 -0.3446162197
O  O489  1  0.76430000  0.04580000  0.85083000  1.0 -0.3517013957
O  O490  1  0.71850000  0.76430000  0.01750000  1.0 -0.3446162197
O  O491  1  0.95420000  0.71850000  0.18417000  1.0 -0.3446162197
O  O492  1  0.23570000  0.95420000  0.35083000  1.0 -0.3517013957
