# DDEC6 charges by PACMAN v1.1 (https://github.com/mtap-research/PACMAN-charge/)
data_POCCUI_ASR_pacman
_symmetry_space_group_name_H-M   'P 1'
_cell_length_a   23.63490000
_cell_length_b   15.25200000
_cell_length_c   33.79020000
_cell_angle_alpha   90.00000000
_cell_angle_beta   132.99500000
_cell_angle_gamma   90.00000000
_symmetry_Int_Tables_number   1
_chemical_formula_structural   H11PbC20NO4
_chemical_formula_sum   'H176 Pb16 C320 N16 O64'
_cell_volume   8909.10608883
_cell_formula_units_Z   16
loop_
 _symmetry_equiv_pos_site_id
 _symmetry_equiv_pos_as_xyz
  1  'x, y, z'
loop_
 _atom_site_type_symbol
 _atom_site_label
 _atom_site_symmetry_multiplicity
 _atom_site_fract_x
 _atom_site_fract_y
 _atom_site_fract_z
 _atom_site_occupancy
 _atom_site_charge
H  H1  1  0.84430000  0.90008000  0.28107000  1.0 0.1194138337
H  H2  1  0.90765000  0.95524000  0.36691000  1.0 0.1194138337
H  H3  1  0.70997000  0.07120000  0.30710000  1.0 0.1107208271
H  H4  1  0.64860000  0.01892000  0.22149000  1.0 0.1194138337
H  H5  1  0.96047000  0.07160000  0.42464000  1.0 0.1194138337
H  H6  1  0.95856000  0.14190000  0.53854000  1.0 0.1194138337
H  H7  1  0.76516000  0.04735000  0.39574000  1.0 0.1107208271
H  H8  1  0.90306000  0.10005000  0.56864000  1.0 0.1194138337
H  H9  1  0.83709000  0.13008000  0.59482000  1.0 0.1267841008
H  H10  1  0.64001000  0.15356000  0.43972000  1.0 0.1194138337
H  H11  1  0.70557000  0.12711000  0.41317000  1.0 0.1107208271
H  H12  1  0.48200000  0.34333000  0.78326000  1.0 0.1194138337
H  H13  1  0.41251000  0.29537000  0.69591000  1.0 0.1107208271
H  H14  1  0.26455000  0.17223000  0.69840000  1.0 0.1107208271
H  H15  1  0.33100000  0.22456000  0.78365000  1.0 0.1194138337
H  H16  1  0.37181000  0.19846000  0.63284000  1.0 0.1107208271
H  H17  1  0.16935000  0.12243000  0.48925000  1.0 0.1267841008
H  H18  1  0.18031000  0.19401000  0.60841000  1.0 0.1194138337
H  H19  1  0.39935000  0.23087000  0.58176000  1.0 0.1194138337
H  H20  1  0.45580000  0.20814000  0.54741000  1.0 0.1107208271
H  H21  1  0.29862000  0.01892000  0.45026000  1.0 0.1194138337
H  H22  1  0.24097000  0.04906000  0.48289000  1.0 0.1107208271
H  H23  1  0.47814000  0.89021000  0.08532000  1.0 0.1194138337
H  H24  1  0.41579000  0.87653000  0.11590000  1.0 0.1194138337
H  H25  1  0.21204000  0.85565000  0.96116000  1.0 0.1194138337
H  H26  1  0.27663000  0.86828000  0.93194000  1.0 0.1267841008
H  H27  1  0.35988000  0.80978000  0.13712000  1.0 0.1107208271
H  H28  1  0.16514000  0.80814000  0.10846000  1.0 0.1194138337
H  H29  1  0.15856000  0.88428000  0.99115000  1.0 0.1194138337
H  H30  1  0.39467000  0.70423000  0.19502000  1.0 0.1194138337
H  H31  1  0.46098000  0.65013000  0.27951000  1.0 0.1194138337
H  H32  1  0.31592000  0.77506000  0.28420000  1.0 0.1194138337
H  H33  1  0.24928000  0.82901000  0.19948000  1.0 0.1107208271
H  H34  1  0.94388000  0.86695000  0.03679000  1.0 0.1194138337
H  H35  1  0.75346000  0.96024000  0.89254000  1.0 0.1107208271
H  H36  1  0.94763000  0.92162000  0.92198000  1.0 0.1194138337
H  H37  1  0.89083000  0.92200000  0.06664000  1.0 0.1194138337
H  H38  1  0.82484000  0.89905000  0.09310000  1.0 0.1194138337
H  H39  1  0.62442000  0.89674000  0.93982000  1.0 0.1194138337
H  H40  1  0.69117000  0.90545000  0.91213000  1.0 0.1107208271
H  H41  1  0.89420000  0.03099000  0.85778000  1.0 0.1194138337
H  H42  1  0.82950000  0.07321000  0.77020000  1.0 0.1194138337
H  H43  1  0.63321000  0.96777000  0.71766000  1.0 0.1107208271
H  H44  1  0.69778000  0.92249000  0.80588000  1.0 0.1107208271
H  H45  1  0.84430000  0.59992000  0.78107000  1.0 0.1194138337
H  H46  1  0.90765000  0.54476000  0.86691000  1.0 0.1194138337
H  H47  1  0.70997000  0.42880000  0.80710000  1.0 0.1107208271
H  H48  1  0.64860000  0.48108000  0.72149000  1.0 0.1194138337
H  H49  1  0.96047000  0.42840000  0.92464000  1.0 0.1194138337
H  H50  1  0.95856000  0.35810000  0.03854000  1.0 0.1194138337
H  H51  1  0.76516000  0.45265000  0.89574000  1.0 0.1107208271
H  H52  1  0.90306000  0.39995000  0.06864000  1.0 0.1194138337
H  H53  1  0.83709000  0.36992000  0.09482000  1.0 0.1267841008
H  H54  1  0.64001000  0.34644000  0.93972000  1.0 0.1194138337
H  H55  1  0.70557000  0.37289000  0.91317000  1.0 0.1107208271
H  H56  1  0.48200000  0.15667000  0.28326000  1.0 0.1194138337
H  H57  1  0.41251000  0.20463000  0.19591000  1.0 0.1107208271
H  H58  1  0.26455000  0.32777000  0.19840000  1.0 0.1107208271
H  H59  1  0.33100000  0.27544000  0.28365000  1.0 0.1194138337
H  H60  1  0.37181000  0.30154000  0.13284000  1.0 0.1107208271
H  H61  1  0.16935000  0.37757000  0.98925000  1.0 0.1267841008
H  H62  1  0.18031000  0.30599000  0.10841000  1.0 0.1194138337
H  H63  1  0.39935000  0.26913000  0.08176000  1.0 0.1194138337
H  H64  1  0.45580000  0.29186000  0.04741000  1.0 0.1107208271
H  H65  1  0.29862000  0.48108000  0.95026000  1.0 0.1194138337
H  H66  1  0.24097000  0.45094000  0.98289000  1.0 0.1107208271
H  H67  1  0.47814000  0.60979000  0.58532000  1.0 0.1194138337
H  H68  1  0.41579000  0.62347000  0.61590000  1.0 0.1194138337
H  H69  1  0.21204000  0.64435000  0.46116000  1.0 0.1194138337
H  H70  1  0.27663000  0.63172000  0.43194000  1.0 0.1267841008
H  H71  1  0.35988000  0.69022000  0.63712000  1.0 0.1107208271
H  H72  1  0.16514000  0.69186000  0.60846000  1.0 0.1194138337
H  H73  1  0.15856000  0.61572000  0.49115000  1.0 0.1194138337
H  H74  1  0.39467000  0.79577000  0.69502000  1.0 0.1194138337
H  H75  1  0.46098000  0.84987000  0.77951000  1.0 0.1194138337
H  H76  1  0.31592000  0.72494000  0.78420000  1.0 0.1194138337
H  H77  1  0.24928000  0.67099000  0.69948000  1.0 0.1107208271
H  H78  1  0.94388000  0.63305000  0.53679000  1.0 0.1194138337
H  H79  1  0.75346000  0.53976000  0.39254000  1.0 0.1107208271
H  H80  1  0.94763000  0.57838000  0.42198000  1.0 0.1194138337
H  H81  1  0.89083000  0.57800000  0.56664000  1.0 0.1194138337
H  H82  1  0.82484000  0.60095000  0.59310000  1.0 0.1194138337
H  H83  1  0.62442000  0.60326000  0.43982000  1.0 0.1194138337
H  H84  1  0.69117000  0.59455000  0.41213000  1.0 0.1107208271
H  H85  1  0.89420000  0.46901000  0.35778000  1.0 0.1194138337
H  H86  1  0.82950000  0.42679000  0.27020000  1.0 0.1194138337
H  H87  1  0.63321000  0.53223000  0.21766000  1.0 0.1107208271
H  H88  1  0.69778000  0.57751000  0.30588000  1.0 0.1107208271
H  H89  1  0.15570000  0.40008000  0.21893000  1.0 0.1194138337
H  H90  1  0.09235000  0.45524000  0.13309000  1.0 0.1194138337
H  H91  1  0.29003000  0.57120000  0.19290000  1.0 0.1107208271
H  H92  1  0.35140000  0.51892000  0.27851000  1.0 0.1194138337
H  H93  1  0.03953000  0.57160000  0.07536000  1.0 0.1194138337
H  H94  1  0.04144000  0.64190000  0.96146000  1.0 0.1194138337
H  H95  1  0.23484000  0.54735000  0.10426000  1.0 0.1107208271
H  H96  1  0.09694000  0.60005000  0.93136000  1.0 0.1194138337
H  H97  1  0.16291000  0.63008000  0.90518000  1.0 0.1267841008
H  H98  1  0.35999000  0.65356000  0.06028000  1.0 0.1194138337
H  H99  1  0.29443000  0.62711000  0.08683000  1.0 0.1107208271
H  H100  1  0.51800000  0.84333000  0.71674000  1.0 0.1194138337
H  H101  1  0.58749000  0.79537000  0.80409000  1.0 0.1107208271
H  H102  1  0.73545000  0.67223000  0.80160000  1.0 0.1107208271
H  H103  1  0.66900000  0.72456000  0.71635000  1.0 0.1194138337
H  H104  1  0.62819000  0.69846000  0.86716000  1.0 0.1107208271
H  H105  1  0.83065000  0.62243000  0.01075000  1.0 0.1194138337
H  H106  1  0.81969000  0.69401000  0.89159000  1.0 0.1194138337
H  H107  1  0.60065000  0.73087000  0.91824000  1.0 0.1194138337
H  H108  1  0.54420000  0.70814000  0.95259000  1.0 0.1107208271
H  H109  1  0.70138000  0.51892000  0.04974000  1.0 0.1194138337
H  H110  1  0.75903000  0.54906000  0.01711000  1.0 0.1107208271
H  H111  1  0.52186000  0.39021000  0.41468000  1.0 0.1194138337
H  H112  1  0.58421000  0.37653000  0.38410000  1.0 0.1194138337
H  H113  1  0.78796000  0.35565000  0.53884000  1.0 0.1194138337
H  H114  1  0.72337000  0.36828000  0.56806000  1.0 0.1267841008
H  H115  1  0.64012000  0.30978000  0.36288000  1.0 0.1107208271
H  H116  1  0.83486000  0.30814000  0.39154000  1.0 0.1194138337
H  H117  1  0.84144000  0.38428000  0.50885000  1.0 0.1194138337
H  H118  1  0.60533000  0.20423000  0.30498000  1.0 0.1194138337
H  H119  1  0.53902000  0.15013000  0.22049000  1.0 0.1194138337
H  H120  1  0.68408000  0.27506000  0.21580000  1.0 0.1194138337
H  H121  1  0.75072000  0.32901000  0.30052000  1.0 0.1107208271
H  H122  1  0.05612000  0.36695000  0.46321000  1.0 0.1194138337
H  H123  1  0.24654000  0.46024000  0.60746000  1.0 0.1107208271
H  H124  1  0.05237000  0.42162000  0.57802000  1.0 0.1194138337
H  H125  1  0.10917000  0.42200000  0.43336000  1.0 0.1194138337
H  H126  1  0.17516000  0.39905000  0.40690000  1.0 0.1194138337
H  H127  1  0.37558000  0.39674000  0.56018000  1.0 0.1194138337
H  H128  1  0.30883000  0.40545000  0.58787000  1.0 0.1107208271
H  H129  1  0.10580000  0.53099000  0.64222000  1.0 0.1194138337
H  H130  1  0.17050000  0.57321000  0.72980000  1.0 0.1194138337
H  H131  1  0.36679000  0.46777000  0.78234000  1.0 0.1107208271
H  H132  1  0.30222000  0.42249000  0.69412000  1.0 0.1107208271
H  H133  1  0.15570000  0.09992000  0.71893000  1.0 0.1194138337
H  H134  1  0.09235000  0.04476000  0.63309000  1.0 0.1194138337
H  H135  1  0.29003000  0.92880000  0.69290000  1.0 0.1107208271
H  H136  1  0.35140000  0.98108000  0.77851000  1.0 0.1194138337
H  H137  1  0.03953000  0.92840000  0.57536000  1.0 0.1194138337
H  H138  1  0.04144000  0.85810000  0.46146000  1.0 0.1194138337
H  H139  1  0.23484000  0.95265000  0.60426000  1.0 0.1107208271
H  H140  1  0.09694000  0.89995000  0.43136000  1.0 0.1194138337
H  H141  1  0.16291000  0.86992000  0.40518000  1.0 0.1267841008
H  H142  1  0.35999000  0.84644000  0.56028000  1.0 0.1194138337
H  H143  1  0.29443000  0.87289000  0.58683000  1.0 0.1107208271
H  H144  1  0.51800000  0.65667000  0.21674000  1.0 0.1194138337
H  H145  1  0.58749000  0.70463000  0.30409000  1.0 0.1107208271
H  H146  1  0.73545000  0.82777000  0.30160000  1.0 0.1107208271
H  H147  1  0.66900000  0.77544000  0.21635000  1.0 0.1194138337
H  H148  1  0.62819000  0.80154000  0.36716000  1.0 0.1107208271
H  H149  1  0.83065000  0.87757000  0.51075000  1.0 0.1194138337
H  H150  1  0.81969000  0.80599000  0.39159000  1.0 0.1194138337
H  H151  1  0.60065000  0.76913000  0.41824000  1.0 0.1194138337
H  H152  1  0.54420000  0.79186000  0.45259000  1.0 0.1107208271
H  H153  1  0.70138000  0.98108000  0.54974000  1.0 0.1194138337
H  H154  1  0.75903000  0.95094000  0.51711000  1.0 0.1107208271
H  H155  1  0.52186000  0.10979000  0.91468000  1.0 0.1194138337
H  H156  1  0.58421000  0.12347000  0.88410000  1.0 0.1194138337
H  H157  1  0.78796000  0.14435000  0.03884000  1.0 0.1194138337
H  H158  1  0.72337000  0.13172000  0.06806000  1.0 0.1267841008
H  H159  1  0.64012000  0.19022000  0.86288000  1.0 0.1107208271
H  H160  1  0.83486000  0.19186000  0.89154000  1.0 0.1194138337
H  H161  1  0.84144000  0.11572000  0.00885000  1.0 0.1194138337
H  H162  1  0.60533000  0.29577000  0.80498000  1.0 0.1194138337
H  H163  1  0.53902000  0.34987000  0.72049000  1.0 0.1194138337
H  H164  1  0.68408000  0.22494000  0.71580000  1.0 0.1194138337
H  H165  1  0.75072000  0.17099000  0.80052000  1.0 0.1107208271
H  H166  1  0.05612000  0.13305000  0.96321000  1.0 0.1194138337
H  H167  1  0.24654000  0.03976000  0.10746000  1.0 0.1107208271
H  H168  1  0.05237000  0.07838000  0.07802000  1.0 0.1194138337
H  H169  1  0.10917000  0.07800000  0.93336000  1.0 0.1194138337
H  H170  1  0.17516000  0.10095000  0.90690000  1.0 0.1194138337
H  H171  1  0.37558000  0.10326000  0.06018000  1.0 0.1194138337
H  H172  1  0.30883000  0.09455000  0.08787000  1.0 0.1107208271
H  H173  1  0.10580000  0.96901000  0.14222000  1.0 0.1194138337
H  H174  1  0.17050000  0.92679000  0.22980000  1.0 0.1194138337
H  H175  1  0.36679000  0.03223000  0.28234000  1.0 0.1107208271
H  H176  1  0.30222000  0.07751000  0.19412000  1.0 0.1107208271
Pb  Pb1  1  0.49936000  0.43258000  0.93515000  1.0 1.0519808199
Pb  Pb2  1  0.62900000  0.80769000  0.09366000  1.0 1.0911287334
Pb  Pb3  1  0.47510000  0.56486000  0.43013000  1.0 1.0563372043
Pb  Pb4  1  0.63312000  0.17964000  0.59333000  1.0 1.0911287334
Pb  Pb5  1  0.49936000  0.06742000  0.43515000  1.0 1.0519808199
Pb  Pb6  1  0.62900000  0.69231000  0.59366000  1.0 1.0911287334
Pb  Pb7  1  0.47510000  0.93514000  0.93013000  1.0 1.0563372043
Pb  Pb8  1  0.63312000  0.32036000  0.09333000  1.0 1.0911287334
Pb  Pb9  1  0.50064000  0.93258000  0.56485000  1.0 1.0519808199
Pb  Pb10  1  0.37100000  0.30769000  0.40634000  1.0 1.0911287334
Pb  Pb11  1  0.52490000  0.06486000  0.06987000  1.0 1.0563372043
Pb  Pb12  1  0.36688000  0.67964000  0.90667000  1.0 1.0911287334
Pb  Pb13  1  0.50064000  0.56742000  0.06485000  1.0 1.0519808199
Pb  Pb14  1  0.37100000  0.19231000  0.90634000  1.0 1.0911287334
Pb  Pb15  1  0.52490000  0.43514000  0.56987000  1.0 1.0563372043
Pb  Pb16  1  0.36688000  0.82036000  0.40667000  1.0 1.0911287334
C  C1  1  0.70110000  0.92060000  0.18720000  1.0 0.5592243936
C  C2  1  0.74220000  0.95880000  0.24200000  1.0 -0.031101964
C  C3  1  0.81790000  0.93650000  0.28590000  1.0 -0.0996775735
C  C4  1  0.85570000  0.96820000  0.33800000  1.0 -0.1568768654
C  C5  1  0.81560000  0.01850000  0.34610000  1.0 0.0738419683
C  C6  1  0.73750000  0.03780000  0.30200000  1.0 -0.1400275096
C  C7  1  0.70080000  0.00720000  0.25040000  1.0 -0.0909065784
C  C8  1  0.85550000  0.05450000  0.40120000  1.0 0.0991382379
C  C9  1  0.93380000  0.07870000  0.43560000  1.0 -0.2156295809
C  C10  1  0.97040000  0.11300000  0.48570000  1.0 0.1722287288
C  C11  1  0.93210000  0.12150000  0.50380000  1.0 -0.2092031788
C  C12  1  0.85470000  0.09960000  0.46980000  1.0 0.0796854915
C  C13  1  0.81670000  0.06430000  0.41840000  1.0 -0.1906686905
C  C14  1  0.81240000  0.11110000  0.48770000  1.0 0.0796854915
C  C15  1  0.85020000  0.11130000  0.54240000  1.0 -0.1568768654
C  C16  1  0.81040000  0.12770000  0.55820000  1.0 -0.0996775735
C  C17  1  0.73130000  0.14070000  0.51990000  1.0 -0.0404117383
C  C18  1  0.69280000  0.14220000  0.46560000  1.0 -0.0909065784
C  C19  1  0.73240000  0.12690000  0.44980000  1.0 -0.1501282069
C  C20  1  0.68780000  0.15520000  0.53710000  1.0 0.5494915512
C  C21  1  0.45470000  0.33130000  0.84770000  1.0 0.5494915512
C  C22  1  0.41480000  0.28660000  0.79360000  1.0 -0.0179654095
C  C23  1  0.43820000  0.30900000  0.76610000  1.0 -0.1099679406
C  C24  1  0.39640000  0.28030000  0.71360000  1.0 -0.1652127686
C  C25  1  0.33000000  0.22880000  0.68710000  1.0 0.0738419683
C  C26  1  0.30770000  0.20750000  0.71500000  1.0 -0.1400275096
C  C27  1  0.34850000  0.23750000  0.76660000  1.0 -0.0909065784
C  C28  1  0.28360000  0.19960000  0.63020000  1.0 0.0910842597
C  C29  1  0.31910000  0.18730000  0.61030000  1.0 -0.2024566676
C  C30  1  0.27670000  0.15820000  0.55670000  1.0 0.0991382379
C  C31  1  0.19850000  0.14180000  0.52460000  1.0 -0.2092031788
C  C32  1  0.16230000  0.15350000  0.54350000  1.0 0.1722287288
C  C33  1  0.20490000  0.18400000  0.59610000  1.0 -0.2024566676
C  C34  1  0.31490000  0.14280000  0.53620000  1.0 0.0738419683
C  C35  1  0.37850000  0.18910000  0.55480000  1.0 -0.1210561409
C  C36  1  0.41290000  0.17530000  0.53440000  1.0 -0.1099679406
C  C37  1  0.38210000  0.11090000  0.49350000  1.0 -0.0607054565
C  C38  1  0.31870000  0.06290000  0.47590000  1.0 -0.1099679406
C  C39  1  0.28480000  0.08020000  0.49630000  1.0 -0.1210561409
C  C40  1  0.42440000  0.88320000  0.98640000  1.0 0.5592243936
C  C41  1  0.38290000  0.87770000  0.00540000  1.0 -0.0404117383
C  C42  1  0.42490000  0.88210000  0.06070000  1.0 -0.1210561409
C  C43  1  0.38740000  0.87450000  0.07900000  1.0 -0.1287816132
C  C44  1  0.30730000  0.86390000  0.04210000  1.0 0.0796854915
C  C45  1  0.26560000  0.86190000  0.98630000  1.0 -0.1287816132
C  C46  1  0.30440000  0.86920000  0.96880000  1.0 -0.0909065784
C  C47  1  0.26660000  0.85170000  0.06130000  1.0 0.0910842597
C  C48  1  0.30700000  0.82070000  0.11380000  1.0 -0.1906686905
C  C49  1  0.26920000  0.80610000  0.13150000  1.0 0.0796854915
C  C50  1  0.19060000  0.81930000  0.09690000  1.0 -0.2024566676
C  C51  1  0.14880000  0.85000000  0.04390000  1.0 0.1722287288
C  C52  1  0.18660000  0.86510000  0.02640000  1.0 -0.2092031788
C  C53  1  0.31430000  0.77160000  0.18720000  1.0 0.0796854915
C  C54  1  0.37860000  0.71850000  0.21280000  1.0 -0.1501282069
C  C55  1  0.41880000  0.68680000  0.26350000  1.0 -0.1099679406
C  C56  1  0.39710000  0.70890000  0.29140000  1.0 -0.0179654095
C  C57  1  0.33180000  0.76160000  0.26620000  1.0 -0.0909065784
C  C58  1  0.29200000  0.79300000  0.21570000  1.0 -0.1287816132
C  C59  1  0.44050000  0.66920000  0.34730000  1.0 0.5390705284
C  C60  1  0.95790000  0.89240000  0.98480000  1.0 0.1722287288
C  C61  1  0.91840000  0.88710000  0.00220000  1.0 -0.2092031788
C  C62  1  0.84120000  0.91220000  0.96760000  1.0 0.0796854915
C  C63  1  0.80470000  0.94180000  0.91580000  1.0 -0.1808959763
C  C64  1  0.84400000  0.94430000  0.89850000  1.0 0.0910842597
C  C65  1  0.92110000  0.91970000  0.93330000  1.0 -0.2092031788
C  C66  1  0.79890000  0.90940000  0.98580000  1.0 0.0796854915
C  C67  1  0.83770000  0.91260000  0.04070000  1.0 -0.1501282069
C  C68  1  0.79740000  0.90180000  0.05640000  1.0 -0.0909065784
C  C69  1  0.71740000  0.89500000  0.01930000  1.0 -0.0458572614
C  C70  1  0.67820000  0.89840000  0.96560000  1.0 -0.0909065784
C  C71  1  0.71880000  0.90460000  0.94890000  1.0 -0.1501282069
C  C72  1  0.67660000  0.87980000  0.03780000  1.0 0.5592243936
C  C73  1  0.80330000  0.97190000  0.84190000  1.0 0.0796854915
C  C74  1  0.84210000  0.01750000  0.83000000  1.0 -0.1568768654
C  C75  1  0.80350000  0.04240000  0.77750000  1.0 -0.0996775735
C  C76  1  0.72600000  0.02130000  0.73590000  1.0 -0.031101964
C  C77  1  0.68580000  0.97910000  0.74580000  1.0 -0.0909065784
C  C78  1  0.72460000  0.95280000  0.79910000  1.0 -0.1501282069
C  C79  1  0.68210000  0.05400000  0.67920000  1.0 0.5655113128
C  C80  1  0.41820000  0.09250000  0.47180000  1.0 0.5494915512
C  C81  1  0.70110000  0.57940000  0.68720000  1.0 0.5592243936
C  C82  1  0.74220000  0.54120000  0.74200000  1.0 -0.031101964
C  C83  1  0.81790000  0.56350000  0.78590000  1.0 -0.0996775735
C  C84  1  0.85570000  0.53180000  0.83800000  1.0 -0.1568768654
C  C85  1  0.81560000  0.48150000  0.84610000  1.0 0.0738419683
C  C86  1  0.73750000  0.46220000  0.80200000  1.0 -0.1400275096
C  C87  1  0.70080000  0.49280000  0.75040000  1.0 -0.0909065784
C  C88  1  0.85550000  0.44550000  0.90120000  1.0 0.0991382379
C  C89  1  0.93380000  0.42130000  0.93560000  1.0 -0.2156295809
C  C90  1  0.97040000  0.38700000  0.98570000  1.0 0.1722287288
C  C91  1  0.93210000  0.37850000  0.00380000  1.0 -0.2092031788
C  C92  1  0.85470000  0.40040000  0.96980000  1.0 0.0796854915
C  C93  1  0.81670000  0.43570000  0.91840000  1.0 -0.1906686905
C  C94  1  0.81240000  0.38890000  0.98770000  1.0 0.0796854915
C  C95  1  0.85020000  0.38870000  0.04240000  1.0 -0.1568768654
C  C96  1  0.81040000  0.37230000  0.05820000  1.0 -0.0996775735
C  C97  1  0.73130000  0.35930000  0.01990000  1.0 -0.0404117383
C  C98  1  0.69280000  0.35780000  0.96560000  1.0 -0.0909065784
C  C99  1  0.73240000  0.37310000  0.94980000  1.0 -0.1501282069
C  C100  1  0.68780000  0.34480000  0.03710000  1.0 0.5494915512
C  C101  1  0.45470000  0.16870000  0.34770000  1.0 0.5494915512
C  C102  1  0.41480000  0.21340000  0.29360000  1.0 -0.0179654095
C  C103  1  0.43820000  0.19100000  0.26610000  1.0 -0.1099679406
C  C104  1  0.39640000  0.21970000  0.21360000  1.0 -0.1652127686
C  C105  1  0.33000000  0.27120000  0.18710000  1.0 0.0738419683
C  C106  1  0.30770000  0.29250000  0.21500000  1.0 -0.1400275096
C  C107  1  0.34850000  0.26250000  0.26660000  1.0 -0.0909065784
C  C108  1  0.28360000  0.30040000  0.13020000  1.0 0.0910842597
C  C109  1  0.31910000  0.31270000  0.11030000  1.0 -0.2024566676
C  C110  1  0.27670000  0.34180000  0.05670000  1.0 0.0991382379
C  C111  1  0.19850000  0.35820000  0.02460000  1.0 -0.2092031788
C  C112  1  0.16230000  0.34650000  0.04350000  1.0 0.1722287288
C  C113  1  0.20490000  0.31600000  0.09610000  1.0 -0.2024566676
C  C114  1  0.31490000  0.35720000  0.03620000  1.0 0.0738419683
C  C115  1  0.37850000  0.31090000  0.05480000  1.0 -0.1210561409
C  C116  1  0.41290000  0.32470000  0.03440000  1.0 -0.1099679406
C  C117  1  0.38210000  0.38910000  0.99350000  1.0 -0.0607054565
C  C118  1  0.31870000  0.43710000  0.97590000  1.0 -0.1099679406
C  C119  1  0.28480000  0.41980000  0.99630000  1.0 -0.1210561409
C  C120  1  0.42440000  0.61680000  0.48640000  1.0 0.5592243936
C  C121  1  0.38290000  0.62230000  0.50540000  1.0 -0.0404117383
C  C122  1  0.42490000  0.61790000  0.56070000  1.0 -0.1210561409
C  C123  1  0.38740000  0.62550000  0.57900000  1.0 -0.1287816132
C  C124  1  0.30730000  0.63610000  0.54210000  1.0 0.0796854915
C  C125  1  0.26560000  0.63810000  0.48630000  1.0 -0.1287816132
C  C126  1  0.30440000  0.63080000  0.46880000  1.0 -0.0909065784
C  C127  1  0.26660000  0.64830000  0.56130000  1.0 0.0910842597
C  C128  1  0.30700000  0.67930000  0.61380000  1.0 -0.1906686905
C  C129  1  0.26920000  0.69390000  0.63150000  1.0 0.0796854915
C  C130  1  0.19060000  0.68070000  0.59690000  1.0 -0.2024566676
C  C131  1  0.14880000  0.65000000  0.54390000  1.0 0.1722287288
C  C132  1  0.18660000  0.63490000  0.52640000  1.0 -0.2092031788
C  C133  1  0.31430000  0.72840000  0.68720000  1.0 0.0796854915
C  C134  1  0.37860000  0.78150000  0.71280000  1.0 -0.1501282069
C  C135  1  0.41880000  0.81320000  0.76350000  1.0 -0.1099679406
C  C136  1  0.39710000  0.79110000  0.79140000  1.0 -0.0179654095
C  C137  1  0.33180000  0.73840000  0.76620000  1.0 -0.0909065784
C  C138  1  0.29200000  0.70700000  0.71570000  1.0 -0.1287816132
C  C139  1  0.44050000  0.83080000  0.84730000  1.0 0.5390705284
C  C140  1  0.95790000  0.60760000  0.48480000  1.0 0.1722287288
C  C141  1  0.91840000  0.61290000  0.50220000  1.0 -0.2092031788
C  C142  1  0.84120000  0.58780000  0.46760000  1.0 0.0796854915
C  C143  1  0.80470000  0.55820000  0.41580000  1.0 -0.1808959763
C  C144  1  0.84400000  0.55570000  0.39850000  1.0 0.0910842597
C  C145  1  0.92110000  0.58030000  0.43330000  1.0 -0.2092031788
C  C146  1  0.79890000  0.59060000  0.48580000  1.0 0.0796854915
C  C147  1  0.83770000  0.58740000  0.54070000  1.0 -0.1501282069
C  C148  1  0.79740000  0.59820000  0.55640000  1.0 -0.0909065784
C  C149  1  0.71740000  0.60500000  0.51930000  1.0 -0.0458572614
C  C150  1  0.67820000  0.60160000  0.46560000  1.0 -0.0909065784
C  C151  1  0.71880000  0.59540000  0.44890000  1.0 -0.1501282069
C  C152  1  0.67660000  0.62020000  0.53780000  1.0 0.5592243936
C  C153  1  0.80330000  0.52810000  0.34190000  1.0 0.0796854915
C  C154  1  0.84210000  0.48250000  0.33000000  1.0 -0.1568768654
C  C155  1  0.80350000  0.45760000  0.27750000  1.0 -0.0996775735
C  C156  1  0.72600000  0.47870000  0.23590000  1.0 -0.031101964
C  C157  1  0.68580000  0.52090000  0.24580000  1.0 -0.0909065784
C  C158  1  0.72460000  0.54720000  0.29910000  1.0 -0.1501282069
C  C159  1  0.68210000  0.44600000  0.17920000  1.0 0.5655113128
C  C160  1  0.41820000  0.40750000  0.97180000  1.0 0.5494915512
C  C161  1  0.29890000  0.42060000  0.31280000  1.0 0.5592243936
C  C162  1  0.25780000  0.45880000  0.25800000  1.0 -0.031101964
C  C163  1  0.18210000  0.43650000  0.21410000  1.0 -0.0996775735
C  C164  1  0.14430000  0.46820000  0.16200000  1.0 -0.1568768654
C  C165  1  0.18440000  0.51850000  0.15390000  1.0 0.0738419683
C  C166  1  0.26250000  0.53780000  0.19800000  1.0 -0.1400275096
C  C167  1  0.29920000  0.50720000  0.24960000  1.0 -0.0909065784
C  C168  1  0.14450000  0.55450000  0.09880000  1.0 0.0991382379
C  C169  1  0.06620000  0.57870000  0.06440000  1.0 -0.2156295809
C  C170  1  0.02960000  0.61300000  0.01430000  1.0 0.1722287288
C  C171  1  0.06790000  0.62150000  0.99620000  1.0 -0.2092031788
C  C172  1  0.14530000  0.59960000  0.03020000  1.0 0.0796854915
C  C173  1  0.18330000  0.56430000  0.08160000  1.0 -0.1906686905
C  C174  1  0.18760000  0.61110000  0.01230000  1.0 0.0796854915
C  C175  1  0.14980000  0.61130000  0.95760000  1.0 -0.1568768654
C  C176  1  0.18960000  0.62770000  0.94180000  1.0 -0.0996775735
C  C177  1  0.26870000  0.64070000  0.98010000  1.0 -0.0404117383
C  C178  1  0.30720000  0.64220000  0.03440000  1.0 -0.0909065784
C  C179  1  0.26760000  0.62690000  0.05020000  1.0 -0.1501282069
C  C180  1  0.31220000  0.65520000  0.96290000  1.0 0.5494915512
C  C181  1  0.54530000  0.83130000  0.65230000  1.0 0.5494915512
C  C182  1  0.58520000  0.78660000  0.70640000  1.0 -0.0179654095
C  C183  1  0.56180000  0.80900000  0.73390000  1.0 -0.1099679406
C  C184  1  0.60360000  0.78030000  0.78640000  1.0 -0.1652127686
C  C185  1  0.67000000  0.72880000  0.81290000  1.0 0.0738419683
C  C186  1  0.69230000  0.70750000  0.78500000  1.0 -0.1400275096
C  C187  1  0.65150000  0.73750000  0.73340000  1.0 -0.0909065784
C  C188  1  0.71640000  0.69960000  0.86980000  1.0 0.0910842597
C  C189  1  0.68090000  0.68730000  0.88970000  1.0 -0.2024566676
C  C190  1  0.72330000  0.65820000  0.94330000  1.0 0.0991382379
C  C191  1  0.80150000  0.64180000  0.97540000  1.0 -0.2092031788
C  C192  1  0.83770000  0.65350000  0.95650000  1.0 0.1722287288
C  C193  1  0.79510000  0.68400000  0.90390000  1.0 -0.2024566676
C  C194  1  0.68510000  0.64280000  0.96380000  1.0 0.0738419683
C  C195  1  0.62150000  0.68910000  0.94520000  1.0 -0.1210561409
C  C196  1  0.58710000  0.67530000  0.96560000  1.0 -0.1099679406
C  C197  1  0.61790000  0.61090000  0.00650000  1.0 -0.0607054565
C  C198  1  0.68130000  0.56290000  0.02410000  1.0 -0.1099679406
C  C199  1  0.71520000  0.58020000  0.00370000  1.0 -0.1210561409
C  C200  1  0.57560000  0.38320000  0.51360000  1.0 0.5592243936
C  C201  1  0.61710000  0.37770000  0.49460000  1.0 -0.0404117383
C  C202  1  0.57510000  0.38210000  0.43930000  1.0 -0.1210561409
C  C203  1  0.61260000  0.37450000  0.42100000  1.0 -0.1287816132
C  C204  1  0.69270000  0.36390000  0.45790000  1.0 0.0796854915
C  C205  1  0.73440000  0.36190000  0.51370000  1.0 -0.1287816132
C  C206  1  0.69560000  0.36920000  0.53120000  1.0 -0.0909065784
C  C207  1  0.73340000  0.35170000  0.43870000  1.0 0.0910842597
C  C208  1  0.69300000  0.32070000  0.38620000  1.0 -0.1906686905
C  C209  1  0.73080000  0.30610000  0.36850000  1.0 0.0796854915
C  C210  1  0.80940000  0.31930000  0.40310000  1.0 -0.2024566676
C  C211  1  0.85120000  0.35000000  0.45610000  1.0 0.1722287288
C  C212  1  0.81340000  0.36510000  0.47360000  1.0 -0.2092031788
C  C213  1  0.68570000  0.27160000  0.31280000  1.0 0.0796854915
C  C214  1  0.62140000  0.21850000  0.28720000  1.0 -0.1501282069
C  C215  1  0.58120000  0.18680000  0.23650000  1.0 -0.1099679406
C  C216  1  0.60290000  0.20890000  0.20860000  1.0 -0.0179654095
C  C217  1  0.66820000  0.26160000  0.23380000  1.0 -0.0909065784
C  C218  1  0.70800000  0.29300000  0.28430000  1.0 -0.1287816132
C  C219  1  0.55950000  0.16920000  0.15270000  1.0 0.5390705284
C  C220  1  0.04210000  0.39240000  0.51520000  1.0 0.1722287288
C  C221  1  0.08160000  0.38710000  0.49780000  1.0 -0.2092031788
C  C222  1  0.15880000  0.41220000  0.53240000  1.0 0.0796854915
C  C223  1  0.19530000  0.44180000  0.58420000  1.0 -0.1808959763
C  C224  1  0.15600000  0.44430000  0.60150000  1.0 0.0910842597
C  C225  1  0.07890000  0.41970000  0.56670000  1.0 -0.2092031788
C  C226  1  0.20110000  0.40940000  0.51420000  1.0 0.0796854915
C  C227  1  0.16230000  0.41260000  0.45930000  1.0 -0.1501282069
C  C228  1  0.20260000  0.40180000  0.44360000  1.0 -0.0909065784
C  C229  1  0.28260000  0.39500000  0.48070000  1.0 -0.0458572614
C  C230  1  0.32180000  0.39840000  0.53440000  1.0 -0.0909065784
C  C231  1  0.28120000  0.40460000  0.55110000  1.0 -0.1501282069
C  C232  1  0.32340000  0.37980000  0.46220000  1.0 0.5592243936
C  C233  1  0.19670000  0.47190000  0.65810000  1.0 0.0796854915
C  C234  1  0.15790000  0.51750000  0.67000000  1.0 -0.1568768654
C  C235  1  0.19650000  0.54240000  0.72250000  1.0 -0.0996775735
C  C236  1  0.27400000  0.52130000  0.76410000  1.0 -0.031101964
C  C237  1  0.31420000  0.47910000  0.75420000  1.0 -0.0909065784
C  C238  1  0.27540000  0.45280000  0.70090000  1.0 -0.1501282069
C  C239  1  0.31790000  0.55400000  0.82080000  1.0 0.5655113128
C  C240  1  0.58180000  0.59250000  0.02820000  1.0 0.5494915512
C  C241  1  0.29890000  0.07940000  0.81280000  1.0 0.5592243936
C  C242  1  0.25780000  0.04120000  0.75800000  1.0 -0.031101964
C  C243  1  0.18210000  0.06350000  0.71410000  1.0 -0.0996775735
C  C244  1  0.14430000  0.03180000  0.66200000  1.0 -0.1568768654
C  C245  1  0.18440000  0.98150000  0.65390000  1.0 0.0738419683
C  C246  1  0.26250000  0.96220000  0.69800000  1.0 -0.1400275096
C  C247  1  0.29920000  0.99280000  0.74960000  1.0 -0.0909065784
C  C248  1  0.14450000  0.94550000  0.59880000  1.0 0.0991382379
C  C249  1  0.06620000  0.92130000  0.56440000  1.0 -0.2156295809
C  C250  1  0.02960000  0.88700000  0.51430000  1.0 0.1722287288
C  C251  1  0.06790000  0.87850000  0.49620000  1.0 -0.2092031788
C  C252  1  0.14530000  0.90040000  0.53020000  1.0 0.0796854915
C  C253  1  0.18330000  0.93570000  0.58160000  1.0 -0.1906686905
C  C254  1  0.18760000  0.88890000  0.51230000  1.0 0.0796854915
C  C255  1  0.14980000  0.88870000  0.45760000  1.0 -0.1568768654
C  C256  1  0.18960000  0.87230000  0.44180000  1.0 -0.0996775735
C  C257  1  0.26870000  0.85930000  0.48010000  1.0 -0.0404117383
C  C258  1  0.30720000  0.85780000  0.53440000  1.0 -0.0909065784
C  C259  1  0.26760000  0.87310000  0.55020000  1.0 -0.1501282069
C  C260  1  0.31220000  0.84480000  0.46290000  1.0 0.5494915512
C  C261  1  0.54530000  0.66870000  0.15230000  1.0 0.5494915512
C  C262  1  0.58520000  0.71340000  0.20640000  1.0 -0.0179654095
C  C263  1  0.56180000  0.69100000  0.23390000  1.0 -0.1099679406
C  C264  1  0.60360000  0.71970000  0.28640000  1.0 -0.1652127686
C  C265  1  0.67000000  0.77120000  0.31290000  1.0 0.0738419683
C  C266  1  0.69230000  0.79250000  0.28500000  1.0 -0.1400275096
C  C267  1  0.65150000  0.76250000  0.23340000  1.0 -0.0909065784
C  C268  1  0.71640000  0.80040000  0.36980000  1.0 0.0910842597
C  C269  1  0.68090000  0.81270000  0.38970000  1.0 -0.2024566676
C  C270  1  0.72330000  0.84180000  0.44330000  1.0 0.0991382379
C  C271  1  0.80150000  0.85820000  0.47540000  1.0 -0.2092031788
C  C272  1  0.83770000  0.84650000  0.45650000  1.0 0.1722287288
C  C273  1  0.79510000  0.81600000  0.40390000  1.0 -0.2024566676
C  C274  1  0.68510000  0.85720000  0.46380000  1.0 0.0738419683
C  C275  1  0.62150000  0.81090000  0.44520000  1.0 -0.1210561409
C  C276  1  0.58710000  0.82470000  0.46560000  1.0 -0.1099679406
C  C277  1  0.61790000  0.88910000  0.50650000  1.0 -0.0607054565
C  C278  1  0.68130000  0.93710000  0.52410000  1.0 -0.1099679406
C  C279  1  0.71520000  0.91980000  0.50370000  1.0 -0.1210561409
C  C280  1  0.57560000  0.11680000  0.01360000  1.0 0.5592243936
C  C281  1  0.61710000  0.12230000  0.99460000  1.0 -0.0404117383
C  C282  1  0.57510000  0.11790000  0.93930000  1.0 -0.1210561409
C  C283  1  0.61260000  0.12550000  0.92100000  1.0 -0.1287816132
C  C284  1  0.69270000  0.13610000  0.95790000  1.0 0.0796854915
C  C285  1  0.73440000  0.13810000  0.01370000  1.0 -0.1287816132
C  C286  1  0.69560000  0.13080000  0.03120000  1.0 -0.0909065784
C  C287  1  0.73340000  0.14830000  0.93870000  1.0 0.0910842597
C  C288  1  0.69300000  0.17930000  0.88620000  1.0 -0.1906686905
C  C289  1  0.73080000  0.19390000  0.86850000  1.0 0.0796854915
C  C290  1  0.80940000  0.18070000  0.90310000  1.0 -0.2024566676
C  C291  1  0.85120000  0.15000000  0.95610000  1.0 0.1722287288
C  C292  1  0.81340000  0.13490000  0.97360000  1.0 -0.2092031788
C  C293  1  0.68570000  0.22840000  0.81280000  1.0 0.0796854915
C  C294  1  0.62140000  0.28150000  0.78720000  1.0 -0.1501282069
C  C295  1  0.58120000  0.31320000  0.73650000  1.0 -0.1099679406
C  C296  1  0.60290000  0.29110000  0.70860000  1.0 -0.0179654095
C  C297  1  0.66820000  0.23840000  0.73380000  1.0 -0.0909065784
C  C298  1  0.70800000  0.20700000  0.78430000  1.0 -0.1287816132
C  C299  1  0.55950000  0.33080000  0.65270000  1.0 0.5390705284
C  C300  1  0.04210000  0.10760000  0.01520000  1.0 0.1722287288
C  C301  1  0.08160000  0.11290000  0.99780000  1.0 -0.2092031788
C  C302  1  0.15880000  0.08780000  0.03240000  1.0 0.0796854915
C  C303  1  0.19530000  0.05820000  0.08420000  1.0 -0.1808959763
C  C304  1  0.15600000  0.05570000  0.10150000  1.0 0.0910842597
C  C305  1  0.07890000  0.08030000  0.06670000  1.0 -0.2092031788
C  C306  1  0.20110000  0.09060000  0.01420000  1.0 0.0796854915
C  C307  1  0.16230000  0.08740000  0.95930000  1.0 -0.1501282069
C  C308  1  0.20260000  0.09820000  0.94360000  1.0 -0.0909065784
C  C309  1  0.28260000  0.10500000  0.98070000  1.0 -0.0458572614
C  C310  1  0.32180000  0.10160000  0.03440000  1.0 -0.0909065784
C  C311  1  0.28120000  0.09540000  0.05110000  1.0 -0.1501282069
C  C312  1  0.32340000  0.12020000  0.96220000  1.0 0.5592243936
C  C313  1  0.19670000  0.02810000  0.15810000  1.0 0.0796854915
C  C314  1  0.15790000  0.98250000  0.17000000  1.0 -0.1568768654
C  C315  1  0.19650000  0.95760000  0.22250000  1.0 -0.0996775735
C  C316  1  0.27400000  0.97870000  0.26410000  1.0 -0.031101964
C  C317  1  0.31420000  0.02090000  0.25420000  1.0 -0.0909065784
C  C318  1  0.27540000  0.04720000  0.20090000  1.0 -0.1501282069
C  C319  1  0.31790000  0.94600000  0.32080000  1.0 0.5655113128
C  C320  1  0.58180000  0.90750000  0.52820000  1.0 0.5494915512
N  N1  1  0.05080000  0.13880000  0.52450000  1.0 -0.1287816132
N  N2  1  0.08200000  0.13340000  0.50560000  1.0 -0.1287816132
N  N3  1  0.06910000  0.87000000  0.00550000  1.0 -0.1210561409
N  N4  1  0.03730000  0.86680000  0.02380000  1.0 -0.1287816132
N  N5  1  0.05080000  0.36120000  0.02450000  1.0 -0.1287816132
N  N6  1  0.08200000  0.36660000  0.00560000  1.0 -0.1287816132
N  N7  1  0.06910000  0.63000000  0.50550000  1.0 -0.1210561409
N  N8  1  0.03730000  0.63320000  0.52380000  1.0 -0.1287816132
N  N9  1  0.94920000  0.63880000  0.97550000  1.0 -0.1287816132
N  N10  1  0.91800000  0.63340000  0.99440000  1.0 -0.1287816132
N  N11  1  0.93090000  0.37000000  0.49450000  1.0 -0.1210561409
N  N12  1  0.96270000  0.36680000  0.47620000  1.0 -0.1287816132
N  N13  1  0.94920000  0.86120000  0.47550000  1.0 -0.1287816132
N  N14  1  0.91800000  0.86660000  0.49440000  1.0 -0.1287816132
N  N15  1  0.93090000  0.13000000  0.99450000  1.0 -0.1210561409
N  N16  1  0.96270000  0.13320000  0.97620000  1.0 -0.1287816132
O  O1  1  0.72570000  0.15580000  0.58750000  1.0 -0.5036106441
O  O2  1  0.61480000  0.16310000  0.50140000  1.0 -0.5691276635
O  O3  1  0.63710000  0.95000000  0.14670000  1.0 -0.5691276635
O  O4  1  0.73360000  0.85690000  0.18500000  1.0 -0.5107199642
O  O5  1  0.45830000  0.15130000  0.47400000  1.0 -0.5919602248
O  O6  1  0.40840000  0.01750000  0.45230000  1.0 -0.5816092003
O  O7  1  0.50740000  0.38290000  0.86520000  1.0 -0.5204365286
O  O8  1  0.43140000  0.31370000  0.87140000  1.0 -0.5691276635
O  O9  1  0.39000000  0.86130000  0.93940000  1.0 -0.5107199642
O  O10  1  0.49460000  0.90680000  0.01890000  1.0 -0.6113050911
O  O11  1  0.48820000  0.61190000  0.36360000  1.0 -0.5204365286
O  O12  1  0.42170000  0.69380000  0.37300000  1.0 -0.5691276635
O  O13  1  0.71380000  0.87070000  0.08660000  1.0 -0.477267358
O  O14  1  0.60340000  0.87050000  0.00240000  1.0 -0.5816092003
O  O15  1  0.71990000  0.09610000  0.67140000  1.0 -0.5036106441
O  O16  1  0.60930000  0.04250000  0.64290000  1.0 -0.5919602248
O  O17  1  0.72570000  0.34420000  0.08750000  1.0 -0.5036106441
O  O18  1  0.61480000  0.33690000  0.00140000  1.0 -0.5691276635
O  O19  1  0.63710000  0.55000000  0.64670000  1.0 -0.5691276635
O  O20  1  0.73360000  0.64310000  0.68500000  1.0 -0.5107199642
O  O21  1  0.45830000  0.34870000  0.97400000  1.0 -0.5919602248
O  O22  1  0.40840000  0.48250000  0.95230000  1.0 -0.5816092003
O  O23  1  0.50740000  0.11710000  0.36520000  1.0 -0.5204365286
O  O24  1  0.43140000  0.18630000  0.37140000  1.0 -0.5691276635
O  O25  1  0.39000000  0.63870000  0.43940000  1.0 -0.5107199642
O  O26  1  0.49460000  0.59320000  0.51890000  1.0 -0.6113050911
O  O27  1  0.48820000  0.88810000  0.86360000  1.0 -0.5204365286
O  O28  1  0.42170000  0.80620000  0.87300000  1.0 -0.5691276635
O  O29  1  0.71380000  0.62930000  0.58660000  1.0 -0.477267358
O  O30  1  0.60340000  0.62950000  0.50240000  1.0 -0.5816092003
O  O31  1  0.71990000  0.40390000  0.17140000  1.0 -0.5107199642
O  O32  1  0.60930000  0.45750000  0.14290000  1.0 -0.5919602248
O  O33  1  0.27430000  0.65580000  0.91250000  1.0 -0.5036106441
O  O34  1  0.38520000  0.66310000  0.99860000  1.0 -0.5691276635
O  O35  1  0.36290000  0.45000000  0.35330000  1.0 -0.5691276635
O  O36  1  0.26640000  0.35690000  0.31500000  1.0 -0.5107199642
O  O37  1  0.54170000  0.65130000  0.02600000  1.0 -0.5919602248
O  O38  1  0.59160000  0.51750000  0.04770000  1.0 -0.5816092003
O  O39  1  0.49260000  0.88290000  0.63480000  1.0 -0.5204365286
O  O40  1  0.56860000  0.81370000  0.62860000  1.0 -0.5691276635
O  O41  1  0.61000000  0.36130000  0.56060000  1.0 -0.5107199642
O  O42  1  0.50540000  0.40680000  0.48110000  1.0 -0.6113050911
O  O43  1  0.51180000  0.11190000  0.13640000  1.0 -0.5204365286
O  O44  1  0.57830000  0.19380000  0.12700000  1.0 -0.5691276635
O  O45  1  0.28620000  0.37070000  0.41340000  1.0 -0.477267358
O  O46  1  0.39660000  0.37050000  0.49760000  1.0 -0.5816092003
O  O47  1  0.28010000  0.59610000  0.82860000  1.0 -0.5036106441
O  O48  1  0.39070000  0.54250000  0.85710000  1.0 -0.5919602248
O  O49  1  0.27430000  0.84420000  0.41250000  1.0 -0.5036106441
O  O50  1  0.38520000  0.83690000  0.49860000  1.0 -0.5691276635
O  O51  1  0.36290000  0.05000000  0.85330000  1.0 -0.5691276635
O  O52  1  0.26640000  0.14310000  0.81500000  1.0 -0.5107199642
O  O53  1  0.54170000  0.84870000  0.52600000  1.0 -0.5919602248
O  O54  1  0.59160000  0.98250000  0.54770000  1.0 -0.5816092003
O  O55  1  0.49260000  0.61710000  0.13480000  1.0 -0.5204365286
O  O56  1  0.56860000  0.68630000  0.12860000  1.0 -0.5691276635
O  O57  1  0.61000000  0.13870000  0.06060000  1.0 -0.5107199642
O  O58  1  0.50540000  0.09320000  0.98110000  1.0 -0.6113050911
O  O59  1  0.51180000  0.38810000  0.63640000  1.0 -0.5204365286
O  O60  1  0.57830000  0.30620000  0.62700000  1.0 -0.5691276635
O  O61  1  0.28620000  0.12930000  0.91340000  1.0 -0.477267358
O  O62  1  0.39660000  0.12950000  0.99760000  1.0 -0.5816092003
O  O63  1  0.28010000  0.90390000  0.32860000  1.0 -0.5107199642
O  O64  1  0.39070000  0.95750000  0.35710000  1.0 -0.5919602248
