# DDEC6 charges by PACMAN v1.1 (https://github.com/mtap-research/PACMAN-charge/)
data_POCCIW_FSR_pacman
_symmetry_space_group_name_H-M   'P 1'
_cell_length_a   23.61680000
_cell_length_b   15.36140000
_cell_length_c   33.79010000
_cell_angle_alpha   90.00000000
_cell_angle_beta   133.03000000
_cell_angle_gamma   90.00000000
_symmetry_Int_Tables_number   1
_chemical_formula_structural   H29Pb2C43(NO3)3
_chemical_formula_sum   'H232 Pb16 C344 N24 O72'
_cell_volume   8961.00313138
_cell_formula_units_Z   8
loop_
 _symmetry_equiv_pos_site_id
 _symmetry_equiv_pos_as_xyz
  1  'x, y, z'
loop_
 _atom_site_type_symbol
 _atom_site_label
 _atom_site_symmetry_multiplicity
 _atom_site_fract_x
 _atom_site_fract_y
 _atom_site_fract_z
 _atom_site_occupancy
 _atom_site_charge
H  H1  1  0.68464000  0.72831000  0.21606000  1.0 0.1190800169
H  H2  1  0.75250000  0.67383000  0.30194000  1.0 0.1112770094
H  H3  1  0.60541000  0.79493000  0.30551000  1.0 0.1190800169
H  H4  1  0.53784000  0.84895000  0.21997000  1.0 0.1190800169
H  H5  1  0.83693000  0.69181000  0.39329000  1.0 0.1190800169
H  H6  1  0.84125000  0.61648000  0.50910000  1.0 0.1190800169
H  H7  1  0.64025000  0.68823000  0.36357000  1.0 0.1112770094
H  H8  1  0.58420000  0.62040000  0.38433000  1.0 0.1190800169
H  H9  1  0.52061000  0.61117000  0.41344000  1.0 0.1190800169
H  H10  1  0.72265000  0.63391000  0.56689000  1.0 0.1112770094
H  H11  1  0.78658000  0.64254000  0.53806000  1.0 0.1112770094
H  H12  1  0.05648000  0.63115000  0.46419000  1.0 0.1190800169
H  H13  1  0.24766000  0.54075000  0.60847000  1.0 0.1112770094
H  H14  1  0.05292000  0.57657000  0.57904000  1.0 0.1190800169
H  H15  1  0.10917000  0.58396000  0.43472000  1.0 0.1190800169
H  H16  1  0.17469000  0.59805000  0.40655000  1.0 0.1112770094
H  H17  1  0.37607000  0.60223000  0.56152000  1.0 0.1190800169
H  H18  1  0.31037000  0.59610000  0.58969000  1.0 0.1112770094
H  H19  1  0.30233000  0.57671000  0.69476000  1.0 0.1112770094
H  H20  1  0.36665000  0.53196000  0.78148000  1.0 0.1190800169
H  H21  1  0.16953000  0.42633000  0.72979000  1.0 0.1190800169
H  H22  1  0.10607000  0.46922000  0.64235000  1.0 0.1190800169
H  H23  1  0.36132000  0.34988000  0.06062000  1.0 0.1190800169
H  H24  1  0.29541000  0.37392000  0.08716000  1.0 0.1112770094
H  H25  1  0.09631000  0.39806000  0.93167000  1.0 0.1190800169
H  H26  1  0.16273000  0.37540000  0.90469000  1.0 0.1190800169
H  H27  1  0.04015000  0.42834000  0.07583000  1.0 0.1190800169
H  H28  1  0.23521000  0.45267000  0.10399000  1.0 0.1112770094
H  H29  1  0.04251000  0.35571000  0.96239000  1.0 0.1190800169
H  H30  1  0.09318000  0.54495000  0.13377000  1.0 0.1112770094
H  H31  1  0.29192000  0.43489000  0.19232000  1.0 0.1112770094
H  H32  1  0.35145000  0.47971000  0.27811000  1.0 0.1190800169
H  H33  1  0.15423000  0.59539000  0.21907000  1.0 0.1190800169
H  H34  1  0.83071000  0.37794000  0.01043000  1.0 0.1190800169
H  H35  1  0.62863000  0.30231000  0.86694000  1.0 0.1190800169
H  H36  1  0.81977000  0.30847000  0.89060000  1.0 0.1190800169
H  H37  1  0.75402000  0.45687000  0.01319000  1.0 0.1112770094
H  H38  1  0.69907000  0.47940000  0.04759000  1.0 0.1112770094
H  H39  1  0.54277000  0.29257000  0.95129000  1.0 0.1190800169
H  H40  1  0.60069000  0.26714000  0.91817000  1.0 0.1190800169
H  H41  1  0.58655000  0.20569000  0.80273000  1.0 0.1190800169
H  H42  1  0.51690000  0.16012000  0.71528000  1.0 0.1190800169
H  H43  1  0.67192000  0.27377000  0.71671000  1.0 0.1190800169
H  H44  1  0.73878000  0.32446000  0.80288000  1.0 0.1112770094
H  H45  1  0.21773000  0.77104000  0.37379000  1.0 0.1190800169
H  H46  1  0.07638000  0.87315000  0.31055000  1.0 0.1317290633
H  H47  1  0.13699000  0.84353000  0.37128000  1.0 0.1317290633
H  H48  1  0.12097000  0.94288000  0.35689000  1.0 0.1406679103
H  H49  1  0.14729000  0.98869000  0.29814000  1.0 0.1406679103
H  H50  1  0.21533000  0.01004000  0.35974000  1.0 0.1406679103
H  H51  1  0.23189000  0.95905000  0.32835000  1.0 0.1468639343
H  H52  1  0.11716000  0.23525000  0.79916000  1.0 0.1406679103
H  H53  1  0.06293000  0.15517000  0.76558000  1.0 0.1190800169
H  H54  1  0.10000000  0.16898000  0.82515000  1.0 0.1317290633
H  H55  1  0.27059000  0.10245000  0.84046000  1.0 0.1112770094
H  H56  1  0.20624000  0.00549000  0.85563000  1.0 0.1406679103
H  H57  1  0.11719000  0.00968000  0.80425000  1.0 0.1317290633
H  H58  1  0.17670000  0.00429000  0.79767000  1.0 0.1317290633
H  H59  1  0.36132000  0.15012000  0.56062000  1.0 0.1190800169
H  H60  1  0.29541000  0.12608000  0.58716000  1.0 0.1112770094
H  H61  1  0.09631000  0.10194000  0.43167000  1.0 0.1190800169
H  H62  1  0.16273000  0.12460000  0.40469000  1.0 0.1190800169
H  H63  1  0.04015000  0.07166000  0.57583000  1.0 0.1190800169
H  H64  1  0.23521000  0.04733000  0.60399000  1.0 0.1112770094
H  H65  1  0.04251000  0.14429000  0.46239000  1.0 0.1190800169
H  H66  1  0.09318000  0.95505000  0.63377000  1.0 0.1112770094
H  H67  1  0.29192000  0.06511000  0.69232000  1.0 0.1112770094
H  H68  1  0.35145000  0.02029000  0.77811000  1.0 0.1190800169
H  H69  1  0.15423000  0.90461000  0.71907000  1.0 0.1190800169
H  H70  1  0.83071000  0.12206000  0.51043000  1.0 0.1190800169
H  H71  1  0.62863000  0.19769000  0.36694000  1.0 0.1190800169
H  H72  1  0.81977000  0.19153000  0.39060000  1.0 0.1190800169
H  H73  1  0.75402000  0.04313000  0.51319000  1.0 0.1112770094
H  H74  1  0.69907000  0.02060000  0.54759000  1.0 0.1112770094
H  H75  1  0.54277000  0.20743000  0.45129000  1.0 0.1190800169
H  H76  1  0.60069000  0.23286000  0.41817000  1.0 0.1190800169
H  H77  1  0.58655000  0.29431000  0.30273000  1.0 0.1190800169
H  H78  1  0.51690000  0.33988000  0.21528000  1.0 0.1190800169
H  H79  1  0.67192000  0.22623000  0.21671000  1.0 0.1190800169
H  H80  1  0.73878000  0.17554000  0.30288000  1.0 0.1112770094
H  H81  1  0.21773000  0.72896000  0.87379000  1.0 0.1190800169
H  H82  1  0.07638000  0.62685000  0.81055000  1.0 0.1317290633
H  H83  1  0.13699000  0.65647000  0.87128000  1.0 0.1317290633
H  H84  1  0.12097000  0.55712000  0.85689000  1.0 0.1406679103
H  H85  1  0.14729000  0.51131000  0.79814000  1.0 0.1406679103
H  H86  1  0.21533000  0.48996000  0.85974000  1.0 0.1406679103
H  H87  1  0.23189000  0.54095000  0.82835000  1.0 0.1468639343
H  H88  1  0.11716000  0.26475000  0.29916000  1.0 0.1468639343
H  H89  1  0.06293000  0.34483000  0.26558000  1.0 0.1190800169
H  H90  1  0.10000000  0.33102000  0.32515000  1.0 0.1317290633
H  H91  1  0.27059000  0.39755000  0.34046000  1.0 0.1112770094
H  H92  1  0.20624000  0.49451000  0.35563000  1.0 0.1406679103
H  H93  1  0.11719000  0.49032000  0.30425000  1.0 0.1317290633
H  H94  1  0.17670000  0.49571000  0.29767000  1.0 0.1317290633
H  H95  1  0.68464000  0.77169000  0.71606000  1.0 0.1190800169
H  H96  1  0.75250000  0.82617000  0.80194000  1.0 0.1112770094
H  H97  1  0.60541000  0.70507000  0.80551000  1.0 0.1190800169
H  H98  1  0.53784000  0.65105000  0.71997000  1.0 0.1190800169
H  H99  1  0.83693000  0.80819000  0.89329000  1.0 0.1190800169
H  H100  1  0.84125000  0.88352000  0.00910000  1.0 0.1190800169
H  H101  1  0.64025000  0.81177000  0.86357000  1.0 0.1112770094
H  H102  1  0.58420000  0.87960000  0.88433000  1.0 0.1190800169
H  H103  1  0.52061000  0.88883000  0.91344000  1.0 0.1190800169
H  H104  1  0.72265000  0.86609000  0.06689000  1.0 0.1112770094
H  H105  1  0.78658000  0.85746000  0.03806000  1.0 0.1112770094
H  H106  1  0.05648000  0.86885000  0.96419000  1.0 0.1190800169
H  H107  1  0.24766000  0.95925000  0.10847000  1.0 0.1112770094
H  H108  1  0.05292000  0.92343000  0.07904000  1.0 0.1190800169
H  H109  1  0.10917000  0.91604000  0.93472000  1.0 0.1190800169
H  H110  1  0.17469000  0.90195000  0.90655000  1.0 0.1112770094
H  H111  1  0.37607000  0.89777000  0.06152000  1.0 0.1190800169
H  H112  1  0.31037000  0.90390000  0.08969000  1.0 0.1112770094
H  H113  1  0.30233000  0.92329000  0.19476000  1.0 0.1112770094
H  H114  1  0.36665000  0.96804000  0.28148000  1.0 0.1190800169
H  H115  1  0.16953000  0.07367000  0.22979000  1.0 0.1190800169
H  H116  1  0.10607000  0.03078000  0.14235000  1.0 0.1190800169
H  H117  1  0.63868000  0.84988000  0.43938000  1.0 0.1190800169
H  H118  1  0.70459000  0.87392000  0.41284000  1.0 0.1112770094
H  H119  1  0.90369000  0.89806000  0.56833000  1.0 0.1190800169
H  H120  1  0.83727000  0.87540000  0.59531000  1.0 0.1190800169
H  H121  1  0.95985000  0.92834000  0.42417000  1.0 0.1190800169
H  H122  1  0.76479000  0.95267000  0.39601000  1.0 0.1112770094
H  H123  1  0.95749000  0.85571000  0.53761000  1.0 0.1190800169
H  H124  1  0.90682000  0.04495000  0.36623000  1.0 0.1112770094
H  H125  1  0.70808000  0.93489000  0.30768000  1.0 0.1112770094
H  H126  1  0.64855000  0.97971000  0.22189000  1.0 0.1190800169
H  H127  1  0.84577000  0.09539000  0.28093000  1.0 0.1190800169
H  H128  1  0.16929000  0.87794000  0.48957000  1.0 0.1190800169
H  H129  1  0.37137000  0.80231000  0.63306000  1.0 0.1190800169
H  H130  1  0.18023000  0.80847000  0.60940000  1.0 0.1190800169
H  H131  1  0.24598000  0.95687000  0.48681000  1.0 0.1112770094
H  H132  1  0.30093000  0.97940000  0.45241000  1.0 0.1112770094
H  H133  1  0.45723000  0.79257000  0.54871000  1.0 0.1190800169
H  H134  1  0.39931000  0.76714000  0.58183000  1.0 0.1190800169
H  H135  1  0.41345000  0.70569000  0.69727000  1.0 0.1190800169
H  H136  1  0.48310000  0.66012000  0.78472000  1.0 0.1190800169
H  H137  1  0.32808000  0.77377000  0.78329000  1.0 0.1190800169
H  H138  1  0.26122000  0.82446000  0.69712000  1.0 0.1112770094
H  H139  1  0.78227000  0.27104000  0.12621000  1.0 0.1190800169
H  H140  1  0.92362000  0.37315000  0.18945000  1.0 0.1317290633
H  H141  1  0.86301000  0.34353000  0.12872000  1.0 0.1317290633
H  H142  1  0.87903000  0.44288000  0.14311000  1.0 0.1406679103
H  H143  1  0.85271000  0.48869000  0.20186000  1.0 0.1406679103
H  H144  1  0.78467000  0.51004000  0.14026000  1.0 0.1406679103
H  H145  1  0.76811000  0.45905000  0.17165000  1.0 0.1468639343
H  H146  1  0.88284000  0.73525000  0.70084000  1.0 0.1406679103
H  H147  1  0.93707000  0.65517000  0.73442000  1.0 0.1190800169
H  H148  1  0.90000000  0.66898000  0.67485000  1.0 0.1317290633
H  H149  1  0.72941000  0.60245000  0.65954000  1.0 0.1112770094
H  H150  1  0.79376000  0.50549000  0.64437000  1.0 0.1406679103
H  H151  1  0.88281000  0.50968000  0.69575000  1.0 0.1317290633
H  H152  1  0.82330000  0.50429000  0.70233000  1.0 0.1317290633
H  H153  1  0.31536000  0.22831000  0.28394000  1.0 0.1190800169
H  H154  1  0.24750000  0.17383000  0.19806000  1.0 0.1112770094
H  H155  1  0.39459000  0.29493000  0.19449000  1.0 0.1190800169
H  H156  1  0.46216000  0.34895000  0.28003000  1.0 0.1190800169
H  H157  1  0.16307000  0.19181000  0.10671000  1.0 0.1190800169
H  H158  1  0.15875000  0.11648000  0.99090000  1.0 0.1190800169
H  H159  1  0.35975000  0.18823000  0.13643000  1.0 0.1112770094
H  H160  1  0.41580000  0.12040000  0.11567000  1.0 0.1190800169
H  H161  1  0.47939000  0.11117000  0.08656000  1.0 0.1190800169
H  H162  1  0.27735000  0.13391000  0.93311000  1.0 0.1112770094
H  H163  1  0.21342000  0.14254000  0.96194000  1.0 0.1112770094
H  H164  1  0.94352000  0.13115000  0.03581000  1.0 0.1190800169
H  H165  1  0.75234000  0.04075000  0.89153000  1.0 0.1112770094
H  H166  1  0.94708000  0.07657000  0.92096000  1.0 0.1190800169
H  H167  1  0.89083000  0.08396000  0.06528000  1.0 0.1190800169
H  H168  1  0.82531000  0.09805000  0.09345000  1.0 0.1112770094
H  H169  1  0.62393000  0.10223000  0.93848000  1.0 0.1190800169
H  H170  1  0.68963000  0.09610000  0.91031000  1.0 0.1112770094
H  H171  1  0.69767000  0.07671000  0.80524000  1.0 0.1112770094
H  H172  1  0.63335000  0.03196000  0.71852000  1.0 0.1190800169
H  H173  1  0.83047000  0.92633000  0.77021000  1.0 0.1190800169
H  H174  1  0.89393000  0.96922000  0.85765000  1.0 0.1190800169
H  H175  1  0.31536000  0.27169000  0.78394000  1.0 0.1190800169
H  H176  1  0.24750000  0.32617000  0.69806000  1.0 0.1112770094
H  H177  1  0.39459000  0.20507000  0.69449000  1.0 0.1190800169
H  H178  1  0.46216000  0.15105000  0.78003000  1.0 0.1190800169
H  H179  1  0.16307000  0.30819000  0.60671000  1.0 0.1190800169
H  H180  1  0.15875000  0.38352000  0.49090000  1.0 0.1190800169
H  H181  1  0.35975000  0.31177000  0.63643000  1.0 0.1112770094
H  H182  1  0.41580000  0.37960000  0.61567000  1.0 0.1190800169
H  H183  1  0.47939000  0.38883000  0.58656000  1.0 0.1190800169
H  H184  1  0.27735000  0.36609000  0.43311000  1.0 0.1112770094
H  H185  1  0.21342000  0.35746000  0.46194000  1.0 0.1112770094
H  H186  1  0.94352000  0.36885000  0.53581000  1.0 0.1190800169
H  H187  1  0.75234000  0.45925000  0.39153000  1.0 0.1112770094
H  H188  1  0.94708000  0.42343000  0.42096000  1.0 0.1190800169
H  H189  1  0.89083000  0.41604000  0.56528000  1.0 0.1190800169
H  H190  1  0.82531000  0.40195000  0.59345000  1.0 0.1190800169
H  H191  1  0.62393000  0.39777000  0.43848000  1.0 0.1190800169
H  H192  1  0.68963000  0.40390000  0.41031000  1.0 0.1112770094
H  H193  1  0.69767000  0.42329000  0.30524000  1.0 0.1112770094
H  H194  1  0.63335000  0.46804000  0.21852000  1.0 0.1190800169
H  H195  1  0.83047000  0.57367000  0.27021000  1.0 0.1190800169
H  H196  1  0.89393000  0.53078000  0.35765000  1.0 0.1112770094
H  H197  1  0.63868000  0.65012000  0.93938000  1.0 0.1190800169
H  H198  1  0.70459000  0.62608000  0.91284000  1.0 0.1112770094
H  H199  1  0.90369000  0.60194000  0.06833000  1.0 0.1190800169
H  H200  1  0.83727000  0.62460000  0.09531000  1.0 0.1190800169
H  H201  1  0.95985000  0.57166000  0.92417000  1.0 0.1190800169
H  H202  1  0.76479000  0.54733000  0.89601000  1.0 0.1112770094
H  H203  1  0.95749000  0.64429000  0.03761000  1.0 0.1190800169
H  H204  1  0.90682000  0.45505000  0.86623000  1.0 0.1112770094
H  H205  1  0.70808000  0.56511000  0.80768000  1.0 0.1112770094
H  H206  1  0.64855000  0.52029000  0.72189000  1.0 0.1190800169
H  H207  1  0.84577000  0.40461000  0.78093000  1.0 0.1190800169
H  H208  1  0.16929000  0.62206000  0.98957000  1.0 0.1190800169
H  H209  1  0.37137000  0.69769000  0.13306000  1.0 0.1190800169
H  H210  1  0.18023000  0.69153000  0.10940000  1.0 0.1190800169
H  H211  1  0.24598000  0.54313000  0.98681000  1.0 0.1112770094
H  H212  1  0.30093000  0.52060000  0.95241000  1.0 0.1112770094
H  H213  1  0.45723000  0.70743000  0.04871000  1.0 0.1190800169
H  H214  1  0.39931000  0.73286000  0.08183000  1.0 0.1190800169
H  H215  1  0.41345000  0.79431000  0.19727000  1.0 0.1190800169
H  H216  1  0.48310000  0.83988000  0.28472000  1.0 0.1190800169
H  H217  1  0.32808000  0.72623000  0.28329000  1.0 0.1190800169
H  H218  1  0.26122000  0.67554000  0.19712000  1.0 0.1112770094
H  H219  1  0.78227000  0.22896000  0.62621000  1.0 0.1190800169
H  H220  1  0.92362000  0.12685000  0.68945000  1.0 0.1317290633
H  H221  1  0.86301000  0.15647000  0.62872000  1.0 0.1317290633
H  H222  1  0.87903000  0.05712000  0.64311000  1.0 0.1406679103
H  H223  1  0.85271000  0.01131000  0.70186000  1.0 0.1406679103
H  H224  1  0.78467000  0.98996000  0.64026000  1.0 0.1406679103
H  H225  1  0.76811000  0.04095000  0.67165000  1.0 0.1468639343
H  H226  1  0.88284000  0.76475000  0.20084000  1.0 0.1406679103
H  H227  1  0.93707000  0.84483000  0.23442000  1.0 0.1190800169
H  H228  1  0.90000000  0.83102000  0.17485000  1.0 0.1317290633
H  H229  1  0.72941000  0.89755000  0.15954000  1.0 0.1112770094
H  H230  1  0.79376000  0.99451000  0.14437000  1.0 0.1406679103
H  H231  1  0.88281000  0.99032000  0.19575000  1.0 0.1317290633
H  H232  1  0.82330000  0.99571000  0.20233000  1.0 0.1317290633
Pb  Pb1  1  0.52514000  0.93560000  0.07033000  1.0 1.0623202203
Pb  Pb2  1  0.50116000  0.43200000  0.06413000  1.0 1.0623202203
Pb  Pb3  1  0.37119000  0.69147000  0.40661000  1.0 1.0511108516
Pb  Pb4  1  0.36599000  0.31425000  0.90586000  1.0 1.0774260937
Pb  Pb5  1  0.50116000  0.06800000  0.56413000  1.0 1.0623202203
Pb  Pb6  1  0.37119000  0.80853000  0.90661000  1.0 1.0511108516
Pb  Pb7  1  0.36599000  0.18575000  0.40586000  1.0 1.0774260937
Pb  Pb8  1  0.52514000  0.56440000  0.57033000  1.0 1.0623202203
Pb  Pb9  1  0.49884000  0.93200000  0.43587000  1.0 1.0623202203
Pb  Pb10  1  0.62881000  0.19147000  0.09339000  1.0 1.0511108516
Pb  Pb11  1  0.63401000  0.81425000  0.59414000  1.0 1.0774260937
Pb  Pb12  1  0.47486000  0.43560000  0.42967000  1.0 1.0623202203
Pb  Pb13  1  0.47486000  0.06440000  0.92967000  1.0 1.0623202203
Pb  Pb14  1  0.49884000  0.56800000  0.93587000  1.0 1.0623202203
Pb  Pb15  1  0.62881000  0.30853000  0.59339000  1.0 1.0511108516
Pb  Pb16  1  0.63401000  0.68575000  0.09414000  1.0 1.0774260937
C  C1  1  0.56170000  0.83240000  0.15460000  1.0 0.5494827458
C  C2  1  0.60450000  0.79450000  0.20940000  1.0 -0.0305502684
C  C3  1  0.66880000  0.74180000  0.23410000  1.0 -0.0915647009
C  C4  1  0.70970000  0.70930000  0.28580000  1.0 -0.1310003059
C  C5  1  0.68700000  0.72940000  0.31380000  1.0 0.0705626182
C  C6  1  0.62190000  0.78160000  0.28790000  1.0 -0.1594806341
C  C7  1  0.58100000  0.81400000  0.23640000  1.0 -0.1114957739
C  C8  1  0.73110000  0.69590000  0.36890000  1.0 0.0906086285
C  C9  1  0.81070000  0.68100000  0.40430000  1.0 -0.2030342948
C  C10  1  0.85060000  0.65000000  0.45620000  1.0 0.1694585365
C  C11  1  0.81310000  0.63540000  0.47390000  1.0 -0.2030342948
C  C12  1  0.73370000  0.64880000  0.43950000  1.0 0.0906086285
C  C13  1  0.69340000  0.67900000  0.38710000  1.0 -0.2030342948
C  C14  1  0.69260000  0.63550000  0.45820000  1.0 0.0783815338
C  C15  1  0.61210000  0.62390000  0.42110000  1.0 -0.1211375604
C  C16  1  0.57410000  0.61770000  0.43860000  1.0 -0.1211375604
C  C17  1  0.61490000  0.62120000  0.49390000  1.0 -0.0483030285
C  C18  1  0.69440000  0.63120000  0.53000000  1.0 -0.0915647009
C  C19  1  0.73290000  0.63720000  0.51270000  1.0 -0.1310003059
C  C20  1  0.57390000  0.61570000  0.51260000  1.0 0.5494827458
C  C21  1  0.04250000  0.60660000  0.51570000  1.0 0.1694585365
C  C22  1  0.08180000  0.61100000  0.49880000  1.0 -0.2107964928
C  C23  1  0.15970000  0.58530000  0.53360000  1.0 0.0783815338
C  C24  1  0.19600000  0.55760000  0.58500000  1.0 -0.1821068174
C  C25  1  0.15710000  0.55400000  0.60290000  1.0 0.0906086285
C  C26  1  0.07960000  0.57870000  0.56790000  1.0 -0.2160601949
C  C27  1  0.20190000  0.59020000  0.51500000  1.0 0.0783815338
C  C28  1  0.16280000  0.58970000  0.46040000  1.0 -0.1517120935
C  C29  1  0.20210000  0.59770000  0.44330000  1.0 -0.1114957739
C  C30  1  0.28330000  0.60510000  0.48160000  1.0 -0.0390578219
C  C31  1  0.32220000  0.60120000  0.53580000  1.0 -0.0964431809
C  C32  1  0.28280000  0.59590000  0.55290000  1.0 -0.1517120935
C  C33  1  0.32500000  0.62050000  0.46330000  1.0 0.5494827458
C  C34  1  0.19720000  0.52520000  0.65850000  1.0 0.0705626182
C  C35  1  0.27590000  0.54550000  0.70150000  1.0 -0.1411959188
C  C36  1  0.31420000  0.51950000  0.75360000  1.0 -0.0915647009
C  C37  1  0.27500000  0.47460000  0.76500000  1.0 -0.0305502684
C  C38  1  0.19630000  0.45580000  0.72280000  1.0 -0.1114957739
C  C39  1  0.15850000  0.48150000  0.67030000  1.0 -0.1517120935
C  C40  1  0.31960000  0.44190000  0.82140000  1.0 0.54275887
C  C41  1  0.31300000  0.34400000  0.96300000  1.0 0.54275887
C  C42  1  0.26970000  0.35740000  0.98000000  1.0 -0.0483030285
C  C43  1  0.30810000  0.35900000  0.03450000  1.0 -0.0915647009
C  C44  1  0.26850000  0.37390000  0.05050000  1.0 -0.1411959188
C  C45  1  0.18850000  0.38900000  0.01230000  1.0 0.0705626182
C  C46  1  0.14950000  0.38860000  0.95760000  1.0 -0.1594806341
C  C47  1  0.18930000  0.37410000  0.94130000  1.0 -0.1211375604
C  C48  1  0.06670000  0.42240000  0.06470000  1.0 -0.2160601949
C  C49  1  0.14440000  0.44720000  0.09880000  1.0 0.0906086285
C  C50  1  0.18340000  0.43630000  0.08120000  1.0 -0.1882366659
C  C51  1  0.14640000  0.40170000  0.03050000  1.0 0.0906086285
C  C52  1  0.06850000  0.37830000  0.99660000  1.0 -0.2107964928
C  C53  1  0.02980000  0.38860000  0.01390000  1.0 0.1694585365
C  C54  1  0.14520000  0.53200000  0.16260000  1.0 -0.1517120935
C  C55  1  0.18480000  0.48240000  0.15320000  1.0 0.0705626182
C  C56  1  0.26360000  0.46550000  0.19760000  1.0 -0.1411959188
C  C57  1  0.29970000  0.49370000  0.24900000  1.0 -0.0915647009
C  C58  1  0.25920000  0.54300000  0.25770000  1.0 -0.0390578219
C  C59  1  0.18180000  0.56220000  0.21400000  1.0 -0.1114957739
C  C60  1  0.29940000  0.57990000  0.31270000  1.0 0.5494827458
C  C61  1  0.83770000  0.34600000  0.95610000  1.0 0.1694585365
C  C62  1  0.80190000  0.35850000  0.97520000  1.0 -0.2107964928
C  C63  1  0.72290000  0.34230000  0.94210000  1.0 0.0953503801
C  C64  1  0.68140000  0.31310000  0.88950000  1.0 -0.1882366659
C  C65  1  0.71650000  0.29970000  0.86950000  1.0 0.0906086285
C  C66  1  0.79530000  0.31660000  0.90320000  1.0 -0.2030342948
C  C67  1  0.68400000  0.35700000  0.96210000  1.0 0.0705626182
C  C68  1  0.71230000  0.42270000  0.00120000  1.0 -0.1411959188
C  C69  1  0.67880000  0.43660000  0.02140000  1.0 -0.1310003059
C  C70  1  0.61570000  0.38860000  0.00400000  1.0 -0.0555957602
C  C71  1  0.58580000  0.32490000  0.96430000  1.0 -0.1114957739
C  C72  1  0.62080000  0.31000000  0.94430000  1.0 -0.1310003059
C  C73  1  0.58020000  0.40530000  0.02690000  1.0 0.5494827458
C  C74  1  0.67100000  0.27040000  0.81290000  1.0 0.0705626182
C  C75  1  0.60350000  0.22000000  0.78550000  1.0 -0.1659536967
C  C76  1  0.56230000  0.19180000  0.73330000  1.0 -0.1114957739
C  C77  1  0.58800000  0.21040000  0.70690000  1.0 -0.0209768251
C  C78  1  0.65450000  0.26040000  0.73370000  1.0 -0.0915647009
C  C79  1  0.69490000  0.29040000  0.78570000  1.0 -0.1411959188
C  C80  1  0.54750000  0.16840000  0.65270000  1.0 0.5494827458
C  C81  1  0.23040000  0.81920000  0.36440000  1.0 0.1846717177
C  C82  1  0.12490000  0.88710000  0.34610000  1.0 -0.2960437657
C  C83  1  0.19530000  0.96790000  0.33190000  1.0 -0.2900569904
C  C84  1  0.10800000  0.17510000  0.80100000  1.0 -0.2900569904
C  C85  1  0.23870000  0.14760000  0.83370000  1.0 0.2300935118
C  C86  1  0.16760000  0.02730000  0.81930000  1.0 -0.3422097833
C  C87  1  0.31300000  0.15600000  0.46300000  1.0 0.54275887
C  C88  1  0.26970000  0.14260000  0.48000000  1.0 -0.0483030285
C  C89  1  0.30810000  0.14100000  0.53450000  1.0 -0.0915647009
C  C90  1  0.26850000  0.12610000  0.55050000  1.0 -0.1411959188
C  C91  1  0.18850000  0.11100000  0.51230000  1.0 0.0705626182
C  C92  1  0.14950000  0.11140000  0.45760000  1.0 -0.1594806341
C  C93  1  0.18930000  0.12590000  0.44130000  1.0 -0.1211375604
C  C94  1  0.06670000  0.07760000  0.56470000  1.0 -0.2107964928
C  C95  1  0.14440000  0.05280000  0.59880000  1.0 0.0906086285
C  C96  1  0.18340000  0.06370000  0.58120000  1.0 -0.1821068174
C  C97  1  0.14640000  0.09830000  0.53050000  1.0 0.0906086285
C  C98  1  0.06850000  0.12170000  0.49660000  1.0 -0.2107964928
C  C99  1  0.02980000  0.11140000  0.51390000  1.0 0.1694585365
C  C100  1  0.14520000  0.96800000  0.66260000  1.0 -0.1517120935
C  C101  1  0.18480000  0.01760000  0.65320000  1.0 0.0705626182
C  C102  1  0.26360000  0.03450000  0.69760000  1.0 -0.1411959188
C  C103  1  0.29970000  0.00630000  0.74900000  1.0 -0.0915647009
C  C104  1  0.25920000  0.95700000  0.75770000  1.0 -0.0390578219
C  C105  1  0.18180000  0.93780000  0.71400000  1.0 -0.1114957739
C  C106  1  0.29940000  0.92010000  0.81270000  1.0 0.5494827458
C  C107  1  0.83770000  0.15400000  0.45610000  1.0 0.1694585365
C  C108  1  0.80190000  0.14150000  0.47520000  1.0 -0.2107964928
C  C109  1  0.72290000  0.15770000  0.44210000  1.0 0.0906086285
C  C110  1  0.68140000  0.18690000  0.38950000  1.0 -0.1882366659
C  C111  1  0.71650000  0.20030000  0.36950000  1.0 0.0906086285
C  C112  1  0.79530000  0.18340000  0.40320000  1.0 -0.2030342948
C  C113  1  0.68400000  0.14300000  0.46210000  1.0 0.0705626182
C  C114  1  0.71230000  0.07730000  0.50120000  1.0 -0.1411959188
C  C115  1  0.67880000  0.06340000  0.52140000  1.0 -0.1211375604
C  C116  1  0.61570000  0.11140000  0.50400000  1.0 -0.0555957602
C  C117  1  0.58580000  0.17510000  0.46430000  1.0 -0.1114957739
C  C118  1  0.62080000  0.19000000  0.44430000  1.0 -0.1310003059
C  C119  1  0.58020000  0.09470000  0.52690000  1.0 0.5494827458
C  C120  1  0.67100000  0.22960000  0.31290000  1.0 0.0705626182
C  C121  1  0.60350000  0.28000000  0.28550000  1.0 -0.1659536967
C  C122  1  0.56230000  0.30820000  0.23330000  1.0 -0.1114957739
C  C123  1  0.58800000  0.28960000  0.20690000  1.0 -0.0209768251
C  C124  1  0.65450000  0.23960000  0.23370000  1.0 -0.0915647009
C  C125  1  0.69490000  0.20960000  0.28570000  1.0 -0.1411959188
C  C126  1  0.54750000  0.33160000  0.15270000  1.0 0.5494827458
C  C127  1  0.23040000  0.68080000  0.86440000  1.0 0.1886057683
C  C128  1  0.12490000  0.61290000  0.84610000  1.0 -0.2960437657
C  C129  1  0.19530000  0.53210000  0.83190000  1.0 -0.2900569904
C  C130  1  0.10800000  0.32490000  0.30100000  1.0 -0.2900569904
C  C131  1  0.23870000  0.35240000  0.33370000  1.0 0.2300935118
C  C132  1  0.16760000  0.47270000  0.31930000  1.0 -0.3422097833
C  C133  1  0.56170000  0.66760000  0.65460000  1.0 0.5494827458
C  C134  1  0.60450000  0.70550000  0.70940000  1.0 -0.0305502684
C  C135  1  0.66880000  0.75820000  0.73410000  1.0 -0.0915647009
C  C136  1  0.70970000  0.79070000  0.78580000  1.0 -0.1310003059
C  C137  1  0.68700000  0.77060000  0.81380000  1.0 0.0705626182
C  C138  1  0.62190000  0.71840000  0.78790000  1.0 -0.1594806341
C  C139  1  0.58100000  0.68600000  0.73640000  1.0 -0.1114957739
C  C140  1  0.73110000  0.80410000  0.86890000  1.0 0.0906086285
C  C141  1  0.81070000  0.81900000  0.90430000  1.0 -0.2030342948
C  C142  1  0.85060000  0.85000000  0.95620000  1.0 0.1694585365
C  C143  1  0.81310000  0.86460000  0.97390000  1.0 -0.2107964928
C  C144  1  0.73370000  0.85120000  0.93950000  1.0 0.0906086285
C  C145  1  0.69340000  0.82100000  0.88710000  1.0 -0.2030342948
C  C146  1  0.69260000  0.86450000  0.95820000  1.0 0.0783815338
C  C147  1  0.61210000  0.87610000  0.92110000  1.0 -0.1211375604
C  C148  1  0.57410000  0.88230000  0.93860000  1.0 -0.1211375604
C  C149  1  0.61490000  0.87880000  0.99390000  1.0 -0.0483030285
C  C150  1  0.69440000  0.86880000  0.03000000  1.0 -0.0915647009
C  C151  1  0.73290000  0.86280000  0.01270000  1.0 -0.1310003059
C  C152  1  0.57390000  0.88430000  0.01260000  1.0 0.5494827458
C  C153  1  0.04250000  0.89340000  0.01570000  1.0 0.1694585365
C  C154  1  0.08180000  0.88900000  0.99880000  1.0 -0.2107964928
C  C155  1  0.15970000  0.91470000  0.03360000  1.0 0.0783815338
C  C156  1  0.19600000  0.94240000  0.08500000  1.0 -0.1821068174
C  C157  1  0.15710000  0.94600000  0.10290000  1.0 0.0906086285
C  C158  1  0.07960000  0.92130000  0.06790000  1.0 -0.2160601949
C  C159  1  0.20190000  0.90980000  0.01500000  1.0 0.0783815338
C  C160  1  0.16280000  0.91030000  0.96040000  1.0 -0.1517120935
C  C161  1  0.20210000  0.90230000  0.94330000  1.0 -0.1114957739
C  C162  1  0.28330000  0.89490000  0.98160000  1.0 -0.0390578219
C  C163  1  0.32220000  0.89880000  0.03580000  1.0 -0.0964431809
C  C164  1  0.28280000  0.90410000  0.05290000  1.0 -0.1517120935
C  C165  1  0.32500000  0.87950000  0.96330000  1.0 0.5494827458
C  C166  1  0.19720000  0.97480000  0.15850000  1.0 0.0705626182
C  C167  1  0.27590000  0.95450000  0.20150000  1.0 -0.1411959188
C  C168  1  0.31420000  0.98050000  0.25360000  1.0 -0.0915647009
C  C169  1  0.27500000  0.02540000  0.26500000  1.0 -0.0305502684
C  C170  1  0.19630000  0.04420000  0.22280000  1.0 -0.1114957739
C  C171  1  0.15850000  0.01850000  0.17030000  1.0 -0.1517120935
C  C172  1  0.31960000  0.05810000  0.32140000  1.0 0.54275887
C  C173  1  0.68700000  0.84400000  0.53700000  1.0 0.54275887
C  C174  1  0.73030000  0.85740000  0.52000000  1.0 -0.0483030285
C  C175  1  0.69190000  0.85900000  0.46550000  1.0 -0.0915647009
C  C176  1  0.73150000  0.87390000  0.44950000  1.0 -0.1411959188
C  C177  1  0.81150000  0.88900000  0.48770000  1.0 0.0705626182
C  C178  1  0.85050000  0.88860000  0.54240000  1.0 -0.1594806341
C  C179  1  0.81070000  0.87410000  0.55870000  1.0 -0.1211375604
C  C180  1  0.93330000  0.92240000  0.43530000  1.0 -0.2160601949
C  C181  1  0.85560000  0.94720000  0.40120000  1.0 0.0906086285
C  C182  1  0.81660000  0.93630000  0.41880000  1.0 -0.1882366659
C  C183  1  0.85360000  0.90170000  0.46950000  1.0 0.0906086285
C  C184  1  0.93150000  0.87830000  0.50340000  1.0 -0.2107964928
C  C185  1  0.97020000  0.88860000  0.48610000  1.0 0.1694585365
C  C186  1  0.85480000  0.03200000  0.33740000  1.0 -0.1517120935
C  C187  1  0.81520000  0.98240000  0.34680000  1.0 0.0705626182
C  C188  1  0.73640000  0.96550000  0.30240000  1.0 -0.1411959188
C  C189  1  0.70030000  0.99370000  0.25100000  1.0 -0.0915647009
C  C190  1  0.74080000  0.04300000  0.24230000  1.0 -0.0390578219
C  C191  1  0.81820000  0.06220000  0.28600000  1.0 -0.1114957739
C  C192  1  0.70060000  0.07990000  0.18730000  1.0 0.5494827458
C  C193  1  0.16230000  0.84600000  0.54390000  1.0 0.1694585365
C  C194  1  0.19810000  0.85850000  0.52480000  1.0 -0.2107964928
C  C195  1  0.27710000  0.84230000  0.55790000  1.0 0.0953503801
C  C196  1  0.31860000  0.81310000  0.61050000  1.0 -0.1882366659
C  C197  1  0.28350000  0.79970000  0.63050000  1.0 0.0906086285
C  C198  1  0.20470000  0.81660000  0.59680000  1.0 -0.2030342948
C  C199  1  0.31600000  0.85700000  0.53790000  1.0 0.0705626182
C  C200  1  0.28770000  0.92270000  0.49880000  1.0 -0.1411959188
C  C201  1  0.32120000  0.93660000  0.47860000  1.0 -0.1310003059
C  C202  1  0.38430000  0.88860000  0.49600000  1.0 -0.0555957602
C  C203  1  0.41420000  0.82490000  0.53570000  1.0 -0.1114957739
C  C204  1  0.37920000  0.81000000  0.55570000  1.0 -0.1310003059
C  C205  1  0.41980000  0.90530000  0.47310000  1.0 0.5494827458
C  C206  1  0.32900000  0.77040000  0.68710000  1.0 0.0705626182
C  C207  1  0.39650000  0.72000000  0.71450000  1.0 -0.1659536967
C  C208  1  0.43770000  0.69180000  0.76670000  1.0 -0.1114957739
C  C209  1  0.41200000  0.71040000  0.79310000  1.0 -0.0209768251
C  C210  1  0.34550000  0.76040000  0.76630000  1.0 -0.0915647009
C  C211  1  0.30510000  0.79040000  0.71430000  1.0 -0.1411959188
C  C212  1  0.45250000  0.66840000  0.84730000  1.0 0.5494827458
C  C213  1  0.76960000  0.31920000  0.13560000  1.0 0.1886057683
C  C214  1  0.87510000  0.38710000  0.15390000  1.0 -0.2960437657
C  C215  1  0.80470000  0.46790000  0.16810000  1.0 -0.2900569904
C  C216  1  0.89200000  0.67510000  0.69900000  1.0 -0.2900569904
C  C217  1  0.76130000  0.64760000  0.66630000  1.0 0.2300935118
C  C218  1  0.83240000  0.52730000  0.68070000  1.0 -0.3422097833
C  C219  1  0.43830000  0.33240000  0.34540000  1.0 0.5494827458
C  C220  1  0.39550000  0.29450000  0.29060000  1.0 -0.0305502684
C  C221  1  0.33120000  0.24180000  0.26590000  1.0 -0.0915647009
C  C222  1  0.29030000  0.20930000  0.21420000  1.0 -0.1310003059
C  C223  1  0.31300000  0.22940000  0.18620000  1.0 0.0705626182
C  C224  1  0.37810000  0.28160000  0.21210000  1.0 -0.1594806341
C  C225  1  0.41900000  0.31400000  0.26360000  1.0 -0.1114957739
C  C226  1  0.26890000  0.19590000  0.13110000  1.0 0.0906086285
C  C227  1  0.18930000  0.18100000  0.09570000  1.0 -0.2030342948
C  C228  1  0.14940000  0.15000000  0.04380000  1.0 0.1694585365
C  C229  1  0.18690000  0.13540000  0.02610000  1.0 -0.2030342948
C  C230  1  0.26630000  0.14880000  0.06050000  1.0 0.0906086285
C  C231  1  0.30660000  0.17900000  0.11290000  1.0 -0.2030342948
C  C232  1  0.30740000  0.13550000  0.04180000  1.0 0.0705626182
C  C233  1  0.38790000  0.12390000  0.07890000  1.0 -0.1211375604
C  C234  1  0.42590000  0.11770000  0.06140000  1.0 -0.1211375604
C  C235  1  0.38510000  0.12120000  0.00610000  1.0 -0.0483030285
C  C236  1  0.30560000  0.13120000  0.97000000  1.0 -0.0915647009
C  C237  1  0.26710000  0.13720000  0.98730000  1.0 -0.1310003059
C  C238  1  0.42610000  0.11570000  0.98740000  1.0 0.5494827458
C  C239  1  0.95750000  0.10660000  0.98430000  1.0 0.1694585365
C  C240  1  0.91820000  0.11100000  0.00120000  1.0 -0.2107964928
C  C241  1  0.84030000  0.08530000  0.96640000  1.0 0.0783815338
C  C242  1  0.80400000  0.05760000  0.91500000  1.0 -0.1821068174
C  C243  1  0.84290000  0.05400000  0.89710000  1.0 0.0906086285
C  C244  1  0.92040000  0.07870000  0.93210000  1.0 -0.2160601949
C  C245  1  0.79810000  0.09020000  0.98500000  1.0 0.0783815338
C  C246  1  0.83720000  0.08970000  0.03960000  1.0 -0.1517120935
C  C247  1  0.79790000  0.09770000  0.05670000  1.0 -0.1114957739
C  C248  1  0.71670000  0.10510000  0.01840000  1.0 -0.0390578219
C  C249  1  0.67780000  0.10120000  0.96420000  1.0 -0.0964431809
C  C250  1  0.71720000  0.09590000  0.94710000  1.0 -0.1517120935
C  C251  1  0.67500000  0.12050000  0.03670000  1.0 0.5494827458
C  C252  1  0.80280000  0.02520000  0.84150000  1.0 0.0705626182
C  C253  1  0.72410000  0.04550000  0.79850000  1.0 -0.1411959188
C  C254  1  0.68580000  0.01950000  0.74640000  1.0 -0.0915647009
C  C255  1  0.72500000  0.97460000  0.73500000  1.0 -0.0305502684
C  C256  1  0.80370000  0.95580000  0.77720000  1.0 -0.1114957739
C  C257  1  0.84150000  0.98150000  0.82970000  1.0 -0.1517120935
C  C258  1  0.68040000  0.94190000  0.67860000  1.0 0.54275887
C  C259  1  0.43830000  0.16760000  0.84540000  1.0 0.5494827458
C  C260  1  0.39550000  0.20550000  0.79060000  1.0 -0.0305502684
C  C261  1  0.33120000  0.25820000  0.76590000  1.0 -0.0915647009
C  C262  1  0.29030000  0.29070000  0.71420000  1.0 -0.1310003059
C  C263  1  0.31300000  0.27060000  0.68620000  1.0 0.0705626182
C  C264  1  0.37810000  0.21840000  0.71210000  1.0 -0.1594806341
C  C265  1  0.41900000  0.18600000  0.76360000  1.0 -0.1114957739
C  C266  1  0.26890000  0.30410000  0.63110000  1.0 0.0906086285
C  C267  1  0.18930000  0.31900000  0.59570000  1.0 -0.2030342948
C  C268  1  0.14940000  0.35000000  0.54380000  1.0 0.1694585365
C  C269  1  0.18690000  0.36460000  0.52610000  1.0 -0.2030342948
C  C270  1  0.26630000  0.35120000  0.56050000  1.0 0.0906086285
C  C271  1  0.30660000  0.32100000  0.61290000  1.0 -0.2030342948
C  C272  1  0.30740000  0.36450000  0.54180000  1.0 0.0783815338
C  C273  1  0.38790000  0.37610000  0.57890000  1.0 -0.1211375604
C  C274  1  0.42590000  0.38230000  0.56140000  1.0 -0.1211375604
C  C275  1  0.38510000  0.37880000  0.50610000  1.0 -0.0483030285
C  C276  1  0.30560000  0.36880000  0.47000000  1.0 -0.0915647009
C  C277  1  0.26710000  0.36280000  0.48730000  1.0 -0.1310003059
C  C278  1  0.42610000  0.38430000  0.48740000  1.0 0.5494827458
C  C279  1  0.95750000  0.39340000  0.48430000  1.0 0.1694585365
C  C280  1  0.91820000  0.38900000  0.50120000  1.0 -0.2107964928
C  C281  1  0.84030000  0.41470000  0.46640000  1.0 0.0783815338
C  C282  1  0.80400000  0.44240000  0.41500000  1.0 -0.1821068174
C  C283  1  0.84290000  0.44600000  0.39710000  1.0 0.0906086285
C  C284  1  0.92040000  0.42130000  0.43210000  1.0 -0.2160601949
C  C285  1  0.79810000  0.40980000  0.48500000  1.0 0.0783815338
C  C286  1  0.83720000  0.41030000  0.53960000  1.0 -0.1517120935
C  C287  1  0.79790000  0.40230000  0.55670000  1.0 -0.1114957739
C  C288  1  0.71670000  0.39490000  0.51840000  1.0 -0.0390578219
C  C289  1  0.67780000  0.39880000  0.46420000  1.0 -0.0964431809
C  C290  1  0.71720000  0.40410000  0.44710000  1.0 -0.1517120935
C  C291  1  0.67500000  0.37950000  0.53670000  1.0 0.5494827458
C  C292  1  0.80280000  0.47480000  0.34150000  1.0 0.0705626182
C  C293  1  0.72410000  0.45450000  0.29850000  1.0 -0.1411959188
C  C294  1  0.68580000  0.48050000  0.24640000  1.0 -0.0915647009
C  C295  1  0.72500000  0.52540000  0.23500000  1.0 -0.0305502684
C  C296  1  0.80370000  0.54420000  0.27720000  1.0 -0.1114957739
C  C297  1  0.84150000  0.51850000  0.32970000  1.0 -0.1517120935
C  C298  1  0.68040000  0.55810000  0.17860000  1.0 0.54275887
C  C299  1  0.68700000  0.65600000  0.03700000  1.0 0.54275887
C  C300  1  0.73030000  0.64260000  0.02000000  1.0 -0.0483030285
C  C301  1  0.69190000  0.64100000  0.96550000  1.0 -0.0915647009
C  C302  1  0.73150000  0.62610000  0.94950000  1.0 -0.1411959188
C  C303  1  0.81150000  0.61100000  0.98770000  1.0 0.0705626182
C  C304  1  0.85050000  0.61140000  0.04240000  1.0 -0.1594806341
C  C305  1  0.81070000  0.62590000  0.05870000  1.0 -0.1211375604
C  C306  1  0.93330000  0.57760000  0.93530000  1.0 -0.2160601949
C  C307  1  0.85560000  0.55280000  0.90120000  1.0 0.0906086285
C  C308  1  0.81660000  0.56370000  0.91880000  1.0 -0.1821068174
C  C309  1  0.85360000  0.59830000  0.96950000  1.0 0.0906086285
C  C310  1  0.93150000  0.62170000  0.00340000  1.0 -0.2107964928
C  C311  1  0.97020000  0.61140000  0.98610000  1.0 0.1694585365
C  C312  1  0.85480000  0.46800000  0.83740000  1.0 -0.1517120935
C  C313  1  0.81520000  0.51760000  0.84680000  1.0 0.0705626182
C  C314  1  0.73640000  0.53450000  0.80240000  1.0 -0.1411959188
C  C315  1  0.70030000  0.50630000  0.75100000  1.0 -0.0915647009
C  C316  1  0.74080000  0.45700000  0.74230000  1.0 -0.0390578219
C  C317  1  0.81820000  0.43780000  0.78600000  1.0 -0.1114957739
C  C318  1  0.70060000  0.42010000  0.68730000  1.0 0.5494827458
C  C319  1  0.16230000  0.65400000  0.04390000  1.0 0.1694585365
C  C320  1  0.19810000  0.64150000  0.02480000  1.0 -0.2107964928
C  C321  1  0.27710000  0.65770000  0.05790000  1.0 0.0953503801
C  C322  1  0.31860000  0.68690000  0.11050000  1.0 -0.1882366659
C  C323  1  0.28350000  0.70030000  0.13050000  1.0 0.0906086285
C  C324  1  0.20470000  0.68340000  0.09680000  1.0 -0.2030342948
C  C325  1  0.31600000  0.64300000  0.03790000  1.0 0.0705626182
C  C326  1  0.28770000  0.57730000  0.99880000  1.0 -0.1411959188
C  C327  1  0.32120000  0.56340000  0.97860000  1.0 -0.1310003059
C  C328  1  0.38430000  0.61140000  0.99600000  1.0 -0.0555957602
C  C329  1  0.41420000  0.67510000  0.03570000  1.0 -0.1114957739
C  C330  1  0.37920000  0.69000000  0.05570000  1.0 -0.1310003059
C  C331  1  0.41980000  0.59470000  0.97310000  1.0 0.5494827458
C  C332  1  0.32900000  0.72960000  0.18710000  1.0 0.0705626182
C  C333  1  0.39650000  0.78000000  0.21450000  1.0 -0.1659536967
C  C334  1  0.43770000  0.80820000  0.26670000  1.0 -0.1114957739
C  C335  1  0.41200000  0.78960000  0.29310000  1.0 -0.0209768251
C  C336  1  0.34550000  0.73960000  0.26630000  1.0 -0.0915647009
C  C337  1  0.30510000  0.70960000  0.21430000  1.0 -0.1411959188
C  C338  1  0.45250000  0.83160000  0.34730000  1.0 0.5494827458
C  C339  1  0.76960000  0.18080000  0.63560000  1.0 0.1886057683
C  C340  1  0.87510000  0.11290000  0.65390000  1.0 -0.2900569904
C  C341  1  0.80470000  0.03210000  0.66810000  1.0 -0.2900569904
C  C342  1  0.89200000  0.82490000  0.19900000  1.0 -0.2900569904
C  C343  1  0.76130000  0.85240000  0.16630000  1.0 0.2300935118
C  C344  1  0.83240000  0.97270000  0.18070000  1.0 -0.3422097833
N  N1  1  0.93140000  0.62910000  0.49480000  1.0 -0.1211375604
N  N2  1  0.96310000  0.63230000  0.47660000  1.0 -0.1211375604
N  N3  1  0.95000000  0.36190000  0.97560000  1.0 -0.1211375604
N  N4  1  0.91820000  0.36780000  0.99380000  1.0 -0.1211375604
N  N5  1  0.17170000  0.12590000  0.82000000  1.0 0.0271689373
N  N6  1  0.18250000  0.88960000  0.34540000  1.0 0.0271689373
N  N7  1  0.95000000  0.13810000  0.47560000  1.0 -0.1211375604
N  N8  1  0.91820000  0.13220000  0.49380000  1.0 -0.1211375604
N  N9  1  0.17170000  0.37410000  0.32000000  1.0 0.0271689373
N  N10  1  0.18250000  0.61040000  0.84540000  1.0 0.0271689373
N  N11  1  0.93140000  0.87090000  0.99480000  1.0 -0.1211375604
N  N12  1  0.96310000  0.86770000  0.97660000  1.0 -0.1211375604
N  N13  1  0.05000000  0.86190000  0.52440000  1.0 -0.1211375604
N  N14  1  0.08180000  0.86780000  0.50620000  1.0 -0.1211375604
N  N15  1  0.82830000  0.62590000  0.68000000  1.0 0.0271689373
N  N16  1  0.81750000  0.38960000  0.15460000  1.0 0.0271689373
N  N17  1  0.06860000  0.12910000  0.00520000  1.0 -0.1211375604
N  N18  1  0.03690000  0.13230000  0.02340000  1.0 -0.1211375604
N  N19  1  0.06860000  0.37090000  0.50520000  1.0 -0.1211375604
N  N20  1  0.03690000  0.36770000  0.52340000  1.0 -0.1211375604
N  N21  1  0.05000000  0.63810000  0.02440000  1.0 -0.1211375604
N  N22  1  0.08180000  0.63220000  0.00620000  1.0 -0.1211375604
N  N23  1  0.82830000  0.87410000  0.18000000  1.0 0.0271689373
N  N24  1  0.81750000  0.11040000  0.65460000  1.0 0.0271689373
O  O1  1  0.39070000  0.45720000  0.85790000  1.0 -0.5798074972
O  O2  1  0.28130000  0.39740000  0.82760000  1.0 -0.5205387495
O  O3  1  0.60940000  0.63820000  0.56020000  1.0 -0.5469932677
O  O4  1  0.50460000  0.59070000  0.48040000  1.0 -0.6070757331
O  O5  1  0.58040000  0.80830000  0.12840000  1.0 -0.5798074972
O  O6  1  0.51170000  0.88920000  0.13700000  1.0 -0.5383217753
O  O7  1  0.28610000  0.62930000  0.41350000  1.0 -0.531203282
O  O8  1  0.39770000  0.62950000  0.49850000  1.0 -0.5627325
O  O9  1  0.27460000  0.34120000  0.91250000  1.0 -0.5205387495
O  O10  1  0.38570000  0.33600000  0.99840000  1.0 -0.5627325
O  O11  1  0.26740000  0.64310000  0.31500000  1.0 -0.5205387495
O  O12  1  0.36420000  0.54880000  0.35420000  1.0 -0.5983720542
O  O13  1  0.59170000  0.48070000  0.04740000  1.0 -0.5870314063
O  O14  1  0.54090000  0.34670000  0.02460000  1.0 -0.5798074972
O  O15  1  0.49340000  0.11640000  0.63410000  1.0 -0.5469932677
O  O16  1  0.57140000  0.18420000  0.62930000  1.0 -0.5627325
O  O17  1  0.28200000  0.81190000  0.37010000  1.0 -0.2900569904
O  O18  1  0.26000000  0.22100000  0.83760000  1.0 -0.382788171
O  O19  1  0.27460000  0.15880000  0.41250000  1.0 -0.5205387495
O  O20  1  0.38570000  0.16400000  0.49840000  1.0 -0.5627325
O  O21  1  0.26740000  0.85690000  0.81500000  1.0 -0.5205387495
O  O22  1  0.36420000  0.95120000  0.85420000  1.0 -0.5983720542
O  O23  1  0.59170000  0.01930000  0.54740000  1.0 -0.5870314063
O  O24  1  0.54090000  0.15330000  0.52460000  1.0 -0.5798074972
O  O25  1  0.49340000  0.38360000  0.13410000  1.0 -0.5469932677
O  O26  1  0.57140000  0.31580000  0.12930000  1.0 -0.5627325
O  O27  1  0.28200000  0.68810000  0.87010000  1.0 -0.2900569904
O  O28  1  0.26000000  0.27900000  0.33760000  1.0 -0.382788171
O  O29  1  0.39070000  0.04280000  0.35790000  1.0 -0.5798074972
O  O30  1  0.28130000  0.10260000  0.32760000  1.0 -0.5205387495
O  O31  1  0.60940000  0.86180000  0.06020000  1.0 -0.5469932677
O  O32  1  0.50460000  0.90930000  0.98040000  1.0 -0.6070757331
O  O33  1  0.58040000  0.69170000  0.62840000  1.0 -0.5798074972
O  O34  1  0.51170000  0.61080000  0.63700000  1.0 -0.5383217753
O  O35  1  0.28610000  0.87070000  0.91350000  1.0 -0.531203282
O  O36  1  0.39770000  0.87050000  0.99850000  1.0 -0.5627325
O  O37  1  0.72540000  0.84120000  0.58750000  1.0 -0.5205387495
O  O38  1  0.61430000  0.83600000  0.50160000  1.0 -0.5627325
O  O39  1  0.73260000  0.14310000  0.18500000  1.0 -0.5205387495
O  O40  1  0.63580000  0.04880000  0.14580000  1.0 -0.5983720542
O  O41  1  0.40830000  0.98070000  0.45260000  1.0 -0.5870314063
O  O42  1  0.45910000  0.84670000  0.47540000  1.0 -0.5798074972
O  O43  1  0.50660000  0.61640000  0.86590000  1.0 -0.5469932677
O  O44  1  0.42860000  0.68420000  0.87070000  1.0 -0.5627325
O  O45  1  0.71800000  0.31190000  0.12990000  1.0 -0.2900569904
O  O46  1  0.74000000  0.72100000  0.66240000  1.0 -0.382788171
O  O47  1  0.60930000  0.95720000  0.64210000  1.0 -0.5798074972
O  O48  1  0.71870000  0.89740000  0.67240000  1.0 -0.5205387495
O  O49  1  0.39060000  0.13820000  0.93980000  1.0 -0.5469932677
O  O50  1  0.49540000  0.09070000  0.01960000  1.0 -0.6070757331
O  O51  1  0.41960000  0.30830000  0.37160000  1.0 -0.5798074972
O  O52  1  0.48830000  0.38920000  0.36300000  1.0 -0.5383217753
O  O53  1  0.71390000  0.12930000  0.08650000  1.0 -0.531203282
O  O54  1  0.60230000  0.12950000  0.00150000  1.0 -0.5627325
O  O55  1  0.60930000  0.54280000  0.14210000  1.0 -0.5798074972
O  O56  1  0.71870000  0.60260000  0.17240000  1.0 -0.5205387495
O  O57  1  0.39060000  0.36180000  0.43980000  1.0 -0.5469932677
O  O58  1  0.49540000  0.40930000  0.51960000  1.0 -0.6070757331
O  O59  1  0.41960000  0.19170000  0.87160000  1.0 -0.5798074972
O  O60  1  0.48830000  0.11080000  0.86300000  1.0 -0.5383217753
O  O61  1  0.71390000  0.37070000  0.58650000  1.0 -0.531203282
O  O62  1  0.60230000  0.37050000  0.50150000  1.0 -0.5627325
O  O63  1  0.72540000  0.65880000  0.08750000  1.0 -0.5205387495
O  O64  1  0.61430000  0.66400000  0.00160000  1.0 -0.5627325
O  O65  1  0.73260000  0.35690000  0.68500000  1.0 -0.5205387495
O  O66  1  0.63580000  0.45120000  0.64580000  1.0 -0.5983720542
O  O67  1  0.40830000  0.51930000  0.95260000  1.0 -0.5870314063
O  O68  1  0.45910000  0.65330000  0.97540000  1.0 -0.5798074972
O  O69  1  0.50660000  0.88360000  0.36590000  1.0 -0.5469932677
O  O70  1  0.42860000  0.81580000  0.37070000  1.0 -0.5627325
O  O71  1  0.71800000  0.18810000  0.62990000  1.0 -0.2900569904
O  O72  1  0.74000000  0.77900000  0.16240000  1.0 -0.382788171
