# DDEC6 charges by PACMAN v1.1 (https://github.com/mtap-research/PACMAN-charge/)
data_POCRAB_FSR_pacman
_symmetry_space_group_name_H-M   'P 1'
_cell_length_a   11.12900000
_cell_length_b   13.98800000
_cell_length_c   16.14100000
_cell_angle_alpha   97.10500000
_cell_angle_beta   88.39200000
_cell_angle_gamma   113.28200000
_symmetry_Int_Tables_number   1
_chemical_formula_structural   ZnH13C20(NO2)3
_chemical_formula_sum   'Zn4 H52 C80 N12 O24'
_cell_volume   2289.77913407
_cell_formula_units_Z   4
loop_
 _symmetry_equiv_pos_site_id
 _symmetry_equiv_pos_as_xyz
  1  'x, y, z'
loop_
 _atom_site_type_symbol
 _atom_site_label
 _atom_site_symmetry_multiplicity
 _atom_site_fract_x
 _atom_site_fract_y
 _atom_site_fract_z
 _atom_site_occupancy
 _atom_site_charge
Zn  Zn1  1  0.01258000  0.48622000  0.23973000  1.0 0.6590858015
Zn  Zn2  1  0.98742000  0.51378000  0.76027000  1.0 0.6590858015
Zn  Zn3  1  0.77379000  0.86977000  0.91701000  1.0 0.7821493062
Zn  Zn4  1  0.22621000  0.13023000  0.08299000  1.0 0.7821493062
H  H1  1  0.75850000  0.25890000  0.27060000  1.0 0.1210074319
H  H2  1  0.24150000  0.74110000  0.72940000  1.0 0.1210074319
H  H3  1  0.63340000  0.24590000  0.40070000  1.0 0.1210074319
H  H4  1  0.36660000  0.75410000  0.59930000  1.0 0.1210074319
H  H5  1  0.90590000  0.61050000  0.53050000  1.0 0.1309917606
H  H6  1  0.09410000  0.38950000  0.46950000  1.0 0.1309917606
H  H7  1  0.06990000  0.77490000  0.55000000  1.0 0.1210074319
H  H8  1  0.93010000  0.22510000  0.45000000  1.0 0.1210074319
H  H9  1  0.21780000  0.83450000  0.44380000  1.0 0.1210074319
H  H10  1  0.78220000  0.16550000  0.55620000  1.0 0.1210074319
H  H11  1  0.19440000  0.72400000  0.32200000  1.0 0.1119583205
H  H12  1  0.80560000  0.27600000  0.67800000  1.0 0.1119583205
H  H13  1  0.77300000  0.47150000  0.55190000  1.0 0.1119583205
H  H14  1  0.22700000  0.52850000  0.44810000  1.0 0.1119583205
H  H15  1  0.66570000  0.35690000  0.54100000  1.0 0.1210074319
H  H16  1  0.33430000  0.64310000  0.45900000  1.0 0.1210074319
H  H17  1  0.69580000  0.60490000  0.56720000  1.0 0.1210074319
H  H18  1  0.30420000  0.39510000  0.43280000  1.0 0.1210074319
H  H19  1  0.46680000  0.33280000  0.44230000  1.0 0.1210074319
H  H20  1  0.53320000  0.66720000  0.55770000  1.0 0.1210074319
H  H21  1  0.66080000  0.64190000  0.07260000  1.0 0.1119583205
H  H22  1  0.33920000  0.35810000  0.92740000  1.0 0.1119583205
H  H23  1  0.44450000  0.61450000  0.09300000  1.0 0.1210074319
H  H24  1  0.55550000  0.38550000  0.90700000  1.0 0.1210074319
H  H25  1  0.78210000  0.48090000  0.93800000  1.0 0.1119583205
H  H26  1  0.21790000  0.51910000  0.06200000  1.0 0.1119583205
H  H27  1  0.80890000  0.59940000  0.93650000  1.0 0.1309917606
H  H28  1  0.19110000  0.40060000  0.06350000  1.0 0.1309917606
H  H29  1  0.91930000  0.73140000  0.06410000  1.0 0.1309917606
H  H30  1  0.08070000  0.26860000  0.93590000  1.0 0.1309917606
H  H31  1  0.02820000  0.72520000  0.19050000  1.0 0.1119583205
H  H32  1  0.97180000  0.27480000  0.80950000  1.0 0.1119583205
H  H33  1  0.71810000  0.33930000  0.98630000  1.0 0.1309917606
H  H34  1  0.28190000  0.66070000  0.01370000  1.0 0.1309917606
H  H35  1  0.70030000  0.16910000  0.97430000  1.0 0.1210074319
H  H36  1  0.29970000  0.83090000  0.02570000  1.0 0.1210074319
H  H37  1  0.83480000  0.12410000  0.05350000  1.0 0.1210074319
H  H38  1  0.16520000  0.87590000  0.94650000  1.0 0.1210074319
H  H39  1  0.96820000  0.24990000  0.15590000  1.0 0.1119583205
H  H40  1  0.03180000  0.75010000  0.84410000  1.0 0.1119583205
H  H41  1  0.64440000  0.75710000  0.20210000  1.0 0.1309917606
H  H42  1  0.35560000  0.24290000  0.79790000  1.0 0.1309917606
H  H43  1  0.06420000  0.93260000  0.30270000  1.0 0.1210074319
H  H44  1  0.93580000  0.06740000  0.69730000  1.0 0.1210074319
H  H45  1  0.91510000  0.80990000  0.38030000  1.0 0.138746171
H  H46  1  0.08490000  0.19010000  0.61970000  1.0 0.138746171
H  H47  1  0.43170000  0.62940000  0.31460000  1.0 0.1309917606
H  H48  1  0.56830000  0.37060000  0.68540000  1.0 0.1309917606
H  H49  1  0.59780000  0.38800000  0.20740000  1.0 0.1119583205
H  H50  1  0.40220000  0.61200000  0.79260000  1.0 0.1119583205
H  H51  1  0.73520000  0.54780000  0.27030000  1.0 0.1210074319
H  H52  1  0.26480000  0.45220000  0.72970000  1.0 0.1210074319
C  C1  1  0.77430000  0.31200000  0.31480000  1.0 -0.0184659621
C  C2  1  0.22570000  0.68800000  0.68520000  1.0 -0.0184659621
C  C3  1  0.70420000  0.30430000  0.38690000  1.0 -0.1033234012
C  C4  1  0.29580000  0.69570000  0.61310000  1.0 -0.1033234012
C  C5  1  0.86190000  0.46370000  0.39130000  1.0 0.1613842609
C  C6  1  0.13810000  0.53630000  0.60870000  1.0 0.1613842609
C  C7  1  0.95550000  0.57060000  0.41360000  1.0 0.1470959696
C  C8  1  0.04450000  0.42940000  0.58640000  1.0 0.1470959696
C  C9  1  0.96540000  0.63440000  0.48850000  1.0 -0.1794807625
C  C10  1  0.03460000  0.36560000  0.51150000  1.0 -0.1794807625
C  C11  1  0.06260000  0.73200000  0.49990000  1.0 -0.0380738315
C  C12  1  0.93740000  0.26800000  0.50010000  1.0 -0.0380738315
C  C13  1  0.15100000  0.76790000  0.43710000  1.0 -0.1702928978
C  C14  1  0.84900000  0.23210000  0.56290000  1.0 -0.1702928978
C  C15  1  0.13600000  0.70100000  0.36470000  1.0 0.0285626898
C  C16  1  0.86400000  0.29900000  0.63530000  1.0 0.0285626898
C  C17  1  0.70330000  0.42100000  0.51520000  1.0 -0.1702928978
C  C18  1  0.29670000  0.57900000  0.48480000  1.0 -0.1702928978
C  C19  1  0.59870000  0.46350000  0.50630000  1.0 0.0881027903
C  C20  1  0.40130000  0.53650000  0.49370000  1.0 0.0881027903
C  C21  1  0.61690000  0.56190000  0.53990000  1.0 -0.1394278419
C  C22  1  0.38310000  0.43810000  0.46010000  1.0 -0.1394278419
C  C23  1  0.48080000  0.40060000  0.46580000  1.0 -0.1488625569
C  C24  1  0.51920000  0.59940000  0.53420000  1.0 -0.1488625569
C  C25  1  0.59600000  0.58430000  0.04270000  1.0 -0.1488625569
C  C26  1  0.40400000  0.41570000  0.95730000  1.0 -0.1488625569
C  C27  1  0.46590000  0.56780000  0.05560000  1.0 -0.1631380332
C  C28  1  0.53410000  0.43220000  0.94440000  1.0 -0.1631380332
C  C29  1  0.63210000  0.51830000  0.98740000  1.0 0.0969413619
C  C30  1  0.36790000  0.48170000  0.01260000  1.0 0.0969413619
C  C31  1  0.77530000  0.54190000  0.97010000  1.0 -0.1702928978
C  C32  1  0.22470000  0.45810000  0.02990000  1.0 -0.1702928978
C  C33  1  0.91910000  0.67150000  0.08350000  1.0 -0.1033234012
C  C34  1  0.08090000  0.32850000  0.91650000  1.0 -0.1033234012
C  C35  1  0.97980000  0.66760000  0.15280000  1.0 -0.0380738315
C  C36  1  0.02020000  0.33240000  0.84720000  1.0 -0.0380738315
C  C37  1  0.88370000  0.50700000  0.09350000  1.0 0.1719899985
C  C38  1  0.11630000  0.49300000  0.90650000  1.0 0.1719899985
C  C39  1  0.85530000  0.39460000  0.07990000  1.0 0.138746171
C  C40  1  0.14470000  0.60540000  0.92010000  1.0 0.138746171
C  C41  1  0.76890000  0.32030000  0.02040000  1.0 -0.1794807625
C  C42  1  0.23110000  0.67970000  0.97960000  1.0 -0.1794807625
C  C43  1  0.75970000  0.21950000  0.01270000  1.0 -0.0184659621
C  C44  1  0.24030000  0.78050000  0.98730000  1.0 -0.0184659621
C  C45  1  0.83650000  0.19160000  0.06080000  1.0 -0.1337641266
C  C46  1  0.16350000  0.80840000  0.93920000  1.0 -0.1337641266
C  C47  1  0.91770000  0.26830000  0.12110000  1.0 0.0881027903
C  C48  1  0.08230000  0.73170000  0.87890000  1.0 0.0881027903
C  C49  1  0.76870000  0.87990000  0.09660000  1.0 0.4541692051
C  C50  1  0.23130000  0.12010000  0.90340000  1.0 0.4541692051
C  C51  1  0.03690000  0.99830000  0.16010000  1.0 0.4993824276
C  C52  1  0.96310000  0.00170000  0.83990000  1.0 0.4993824276
C  C53  1  0.73010000  0.79170000  0.22230000  1.0 -0.2299814807
C  C54  1  0.26990000  0.20830000  0.77770000  1.0 -0.2299814807
C  C55  1  0.81910000  0.86300000  0.17870000  1.0 -0.0486072389
C  C56  1  0.18090000  0.13700000  0.82130000  1.0 -0.0486072389
C  C57  1  0.94320000  0.91510000  0.20740000  1.0 -0.0643577308
C  C58  1  0.05680000  0.08490000  0.79260000  1.0 -0.0643577308
C  C59  1  0.97870000  0.89570000  0.28260000  1.0 -0.1084290631
C  C60  1  0.02130000  0.10430000  0.71740000  1.0 -0.1084290631
C  C61  1  0.89040000  0.82240000  0.32950000  1.0 -0.2002861139
C  C62  1  0.10960000  0.17760000  0.67050000  1.0 -0.2002861139
C  C63  1  0.76590000  0.76960000  0.29740000  1.0 0.2630743894
C  C64  1  0.23410000  0.23040000  0.70260000  1.0 0.2630743894
C  C65  1  0.59470000  0.60250000  0.29960000  1.0 0.2315451565
C  C66  1  0.40530000  0.39750000  0.70040000  1.0 0.2315451565
C  C67  1  0.46360000  0.57910000  0.29380000  1.0 -0.2299814807
C  C68  1  0.53640000  0.42090000  0.70620000  1.0 -0.2299814807
C  C69  1  0.37710000  0.48120000  0.25730000  1.0 -0.0107616394
C  C70  1  0.62290000  0.51880000  0.74270000  1.0 -0.0107616394
C  C71  1  0.23480000  0.46050000  0.25870000  1.0 0.5446062001
C  C72  1  0.76520000  0.53950000  0.74130000  1.0 0.5446062001
C  C73  1  0.42680000  0.40700000  0.22500000  1.0 -0.0664826103
C  C74  1  0.57320000  0.59300000  0.77500000  1.0 -0.0664826103
C  C75  1  0.34060000  0.30190000  0.17960000  1.0 0.4565181943
C  C76  1  0.65940000  0.69810000  0.82040000  1.0 0.4565181943
C  C77  1  0.56330000  0.43580000  0.23010000  1.0 -0.1084290631
C  C78  1  0.43670000  0.56420000  0.76990000  1.0 -0.1084290631
C  C79  1  0.64570000  0.53100000  0.26700000  1.0 -0.2002861139
C  C80  1  0.35430000  0.46900000  0.73300000  1.0 -0.2002861139
N  N1  1  0.75940000  0.39920000  0.43410000  1.0 0.0214482492
N  N2  1  0.24060000  0.60080000  0.56590000  1.0 0.0214482492
N  N3  1  0.86990000  0.40940000  0.31850000  1.0 -0.3062452313
N  N4  1  0.13010000  0.59060000  0.68150000  1.0 -0.3062452313
N  N5  1  0.04090000  0.60390000  0.35220000  1.0 -0.253522971
N  N6  1  0.95910000  0.39610000  0.64780000  1.0 -0.253522971
N  N7  1  0.95970000  0.56610000  0.15960000  1.0 -0.3199808088
N  N8  1  0.04030000  0.43390000  0.84040000  1.0 -0.3199808088
N  N9  1  0.85640000  0.56950000  0.04640000  1.0 0.0214482492
N  N10  1  0.14360000  0.43050000  0.95360000  1.0 0.0214482492
N  N11  1  0.92600000  0.36610000  0.13120000  1.0 -0.2665234295
N  N12  1  0.07400000  0.63390000  0.86880000  1.0 -0.2665234295
O  O1  1  0.81840000  0.85810000  0.03180000  1.0 -0.490646818
O  O2  1  0.18160000  0.14190000  0.96820000  1.0 -0.490646818
O  O3  1  0.74080000  0.95040000  0.10800000  1.0 0.082411858
O  O4  1  0.25920000  0.04960000  0.89200000  1.0 0.082411858
O  O5  1  0.62950000  0.92680000  0.95030000  1.0 -0.4011708386
O  O6  1  0.37050000  0.07320000  0.04970000  1.0 -0.4011708386
O  O7  1  0.00780000  0.06250000  0.13020000  1.0 -0.3893399822
O  O8  1  0.99220000  0.93750000  0.86980000  1.0 -0.3893399822
O  O9  1  0.12620000  0.99960000  0.13510000  1.0 -0.2399284256
O  O10  1  0.87380000  0.00040000  0.86490000  1.0 -0.2399284256
O  O11  1  0.24500000  0.28650000  0.14350000  1.0 -0.3893399822
O  O12  1  0.75500000  0.71350000  0.85650000  1.0 -0.4011708386
O  O13  1  0.38450000  0.24240000  0.14460000  1.0 -0.1084290631
O  O14  1  0.61550000  0.75760000  0.85540000  1.0 -0.1084290631
O  O15  1  0.15650000  0.39030000  0.29580000  1.0 -0.5286101786
O  O16  1  0.84350000  0.60970000  0.70420000  1.0 -0.5286101786
O  O17  1  0.20300000  0.52510000  0.22540000  1.0 -0.5367844788
O  O18  1  0.79700000  0.47490000  0.77460000  1.0 -0.5367844788
O  O19  1  0.67570000  0.69900000  0.34410000  1.0 -0.2299814807
O  O20  1  0.32430000  0.30100000  0.65590000  1.0 -0.2299814807
O  O21  1  0.64030000  0.88000000  0.09410000  1.0 -0.1394278419
O  O22  1  0.35970000  0.12000000  0.90590000  1.0 -0.1394278419
O  O23  1  0.35730000  0.21680000  0.22560000  1.0 -0.3001880136
O  O24  1  0.64270000  0.78320000  0.77440000  1.0 -0.3001880136
