# DDEC6 charges by PACMAN v1.1 (https://github.com/mtap-research/PACMAN-charge/)
data_POHCOG_ASR_pacman
_symmetry_space_group_name_H-M   'P 1'
_cell_length_a   12.01440000
_cell_length_b   16.98920000
_cell_length_c   31.27160000
_cell_angle_alpha   90.00000000
_cell_angle_beta   90.00000000
_cell_angle_gamma   90.00000000
_symmetry_Int_Tables_number   1
_chemical_formula_structural   FeAg3H12(C3N)7
_chemical_formula_sum   'Fe8 Ag24 H96 C168 N56'
_cell_volume   6383.00402496
_cell_formula_units_Z   8
loop_
 _symmetry_equiv_pos_site_id
 _symmetry_equiv_pos_as_xyz
  1  'x, y, z'
loop_
 _atom_site_type_symbol
 _atom_site_label
 _atom_site_symmetry_multiplicity
 _atom_site_fract_x
 _atom_site_fract_y
 _atom_site_fract_z
 _atom_site_occupancy
 _atom_site_charge
Fe  Fe1  1  0.25000000  0.00000000  0.42348000  1.0 0.7975038983
Fe  Fe2  1  0.75000000  0.00000000  0.07652000  1.0 0.7975038983
Fe  Fe3  1  0.75000000  0.00000000  0.57652000  1.0 0.7975038983
Fe  Fe4  1  0.25000000  0.00000000  0.92348000  1.0 0.794292261
Fe  Fe5  1  0.75000000  0.50000000  0.42820000  1.0 0.8164785998
Fe  Fe6  1  0.25000000  0.50000000  0.07180000  1.0 0.8164785998
Fe  Fe7  1  0.25000000  0.50000000  0.57180000  1.0 0.8164785998
Fe  Fe8  1  0.75000000  0.50000000  0.92820000  1.0 0.8164785998
Ag  Ag1  1  0.48790000  0.25694000  0.43223000  1.0 0.1596253115
Ag  Ag2  1  0.01210000  0.74306000  0.43223000  1.0 0.1596253115
Ag  Ag3  1  0.51210000  0.25694000  0.06777000  1.0 0.1596253115
Ag  Ag4  1  0.98790000  0.74306000  0.06777000  1.0 0.1596253115
Ag  Ag5  1  0.51210000  0.74306000  0.56777000  1.0 0.1596253115
Ag  Ag6  1  0.98790000  0.25694000  0.56777000  1.0 0.1596253115
Ag  Ag7  1  0.48790000  0.74306000  0.93223000  1.0 0.1596253115
Ag  Ag8  1  0.01210000  0.25694000  0.93223000  1.0 0.1596253115
Ag  Ag9  1  0.90630000  0.17597000  0.45366000  1.0 0.2497662502
Ag  Ag10  1  0.59370000  0.82403000  0.45366000  1.0 0.2497662502
Ag  Ag11  1  0.09370000  0.17597000  0.04634000  1.0 0.2497662502
Ag  Ag12  1  0.40630000  0.82403000  0.04634000  1.0 0.2497662502
Ag  Ag13  1  0.09370000  0.82403000  0.54634000  1.0 0.2497662502
Ag  Ag14  1  0.40630000  0.17597000  0.54634000  1.0 0.2497662502
Ag  Ag15  1  0.90630000  0.82403000  0.95366000  1.0 0.2497662502
Ag  Ag16  1  0.59370000  0.17597000  0.95366000  1.0 0.2497662502
Ag  Ag17  1  0.57111000  0.30894000  0.53443000  1.0 0.1468259218
Ag  Ag18  1  0.92889000  0.69106000  0.53443000  1.0 0.1468259218
Ag  Ag19  1  0.42889000  0.30894000  0.96557000  1.0 0.1468259218
Ag  Ag20  1  0.07111000  0.69106000  0.96557000  1.0 0.1468259218
Ag  Ag21  1  0.42889000  0.69106000  0.46557000  1.0 0.1468259218
Ag  Ag22  1  0.07111000  0.30894000  0.46557000  1.0 0.1468259218
Ag  Ag23  1  0.57111000  0.69106000  0.03443000  1.0 0.1468259218
Ag  Ag24  1  0.92889000  0.30894000  0.03443000  1.0 0.1468259218
H  H1  1  0.40350000  0.03950000  0.34970000  1.0 0.1106527968
H  H2  1  0.09650000  0.96050000  0.34970000  1.0 0.1106527968
H  H3  1  0.59650000  0.03950000  0.15030000  1.0 0.1106527968
H  H4  1  0.90350000  0.96050000  0.15030000  1.0 0.1106527968
H  H5  1  0.59650000  0.96050000  0.65030000  1.0 0.1106527968
H  H6  1  0.90350000  0.03950000  0.65030000  1.0 0.1106527968
H  H7  1  0.40350000  0.96050000  0.84970000  1.0 0.1106527968
H  H8  1  0.09650000  0.03950000  0.84970000  1.0 0.1106527968
H  H9  1  0.40730000  0.03880000  0.27530000  1.0 0.1263141009
H  H10  1  0.09270000  0.96120000  0.27530000  1.0 0.1263141009
H  H11  1  0.59270000  0.03880000  0.22470000  1.0 0.1263141009
H  H12  1  0.90730000  0.96120000  0.22470000  1.0 0.1263141009
H  H13  1  0.59270000  0.96120000  0.72470000  1.0 0.1263141009
H  H14  1  0.90730000  0.03880000  0.72470000  1.0 0.1263141009
H  H15  1  0.40730000  0.96120000  0.77530000  1.0 0.1263141009
H  H16  1  0.09270000  0.03880000  0.77530000  1.0 0.1263141009
H  H17  1  0.40340000  0.95180000  0.21050000  1.0 0.1106527968
H  H18  1  0.09660000  0.04820000  0.21050000  1.0 0.1106527968
H  H19  1  0.59660000  0.95180000  0.28950000  1.0 0.1106527968
H  H20  1  0.90340000  0.04820000  0.28950000  1.0 0.1106527968
H  H21  1  0.59660000  0.04820000  0.78950000  1.0 0.1106527968
H  H22  1  0.90340000  0.95180000  0.78950000  1.0 0.1106527968
H  H23  1  0.40340000  0.04820000  0.71050000  1.0 0.1106527968
H  H24  1  0.09660000  0.95180000  0.71050000  1.0 0.1106527968
H  H25  1  0.40740000  0.95510000  0.13710000  1.0 0.1184172124
H  H26  1  0.09260000  0.04490000  0.13710000  1.0 0.1184172124
H  H27  1  0.59260000  0.95510000  0.36290000  1.0 0.1184172124
H  H28  1  0.90740000  0.04490000  0.36290000  1.0 0.1184172124
H  H29  1  0.59260000  0.04490000  0.86290000  1.0 0.1184172124
H  H30  1  0.90740000  0.95510000  0.86290000  1.0 0.1184172124
H  H31  1  0.40740000  0.04490000  0.63710000  1.0 0.1184172124
H  H32  1  0.09260000  0.95510000  0.63710000  1.0 0.1184172124
H  H33  1  0.41340000  0.03020000  0.07210000  1.0 0.1358930674
H  H34  1  0.08660000  0.96980000  0.07210000  1.0 0.1358930674
H  H35  1  0.58660000  0.03020000  0.42790000  1.0 0.1358930674
H  H36  1  0.91340000  0.96980000  0.42790000  1.0 0.1358930674
H  H37  1  0.58660000  0.96980000  0.92790000  1.0 0.1358930674
H  H38  1  0.91340000  0.03020000  0.92790000  1.0 0.1358930674
H  H39  1  0.41340000  0.96980000  0.57210000  1.0 0.1358930674
H  H40  1  0.08660000  0.03020000  0.57210000  1.0 0.1358930674
H  H41  1  0.40850000  0.02810000  0.99820000  1.0 0.1106527968
H  H42  1  0.09150000  0.97190000  0.99820000  1.0 0.1106527968
H  H43  1  0.59150000  0.02810000  0.50180000  1.0 0.1106527968
H  H44  1  0.90850000  0.97190000  0.50180000  1.0 0.1106527968
H  H45  1  0.59150000  0.97190000  0.00180000  1.0 0.1106527968
H  H46  1  0.90850000  0.02810000  0.00180000  1.0 0.1106527968
H  H47  1  0.40850000  0.97190000  0.49820000  1.0 0.1106527968
H  H48  1  0.09150000  0.02810000  0.49820000  1.0 0.1106527968
H  H49  1  0.59020000  0.52380000  0.35380000  1.0 0.1106527968
H  H50  1  0.90980000  0.47620000  0.35380000  1.0 0.1106527968
H  H51  1  0.40980000  0.52380000  0.14620000  1.0 0.1106527968
H  H52  1  0.09020000  0.47620000  0.14620000  1.0 0.1106527968
H  H53  1  0.40980000  0.47620000  0.64620000  1.0 0.1106527968
H  H54  1  0.09020000  0.52380000  0.64620000  1.0 0.1106527968
H  H55  1  0.59020000  0.47620000  0.85380000  1.0 0.1106527968
H  H56  1  0.90980000  0.52380000  0.85380000  1.0 0.1106527968
H  H57  1  0.58550000  0.52440000  0.28040000  1.0 0.1263141009
H  H58  1  0.91450000  0.47560000  0.28040000  1.0 0.1263141009
H  H59  1  0.41450000  0.52440000  0.21960000  1.0 0.1263141009
H  H60  1  0.08550000  0.47560000  0.21960000  1.0 0.1263141009
H  H61  1  0.41450000  0.47560000  0.71960000  1.0 0.1263141009
H  H62  1  0.08550000  0.52440000  0.71960000  1.0 0.1263141009
H  H63  1  0.58550000  0.47560000  0.78040000  1.0 0.1263141009
H  H64  1  0.91450000  0.52440000  0.78040000  1.0 0.1263141009
H  H65  1  0.60900000  0.43520000  0.21620000  1.0 0.1106527968
H  H66  1  0.89100000  0.56480000  0.21620000  1.0 0.1106527968
H  H67  1  0.39100000  0.43520000  0.28380000  1.0 0.1106527968
H  H68  1  0.10900000  0.56480000  0.28380000  1.0 0.1106527968
H  H69  1  0.39100000  0.56480000  0.78380000  1.0 0.1106527968
H  H70  1  0.10900000  0.43520000  0.78380000  1.0 0.1106527968
H  H71  1  0.60900000  0.56480000  0.71620000  1.0 0.1106527968
H  H72  1  0.89100000  0.43520000  0.71620000  1.0 0.1106527968
H  H73  1  0.60600000  0.43890000  0.14150000  1.0 0.1184172124
H  H74  1  0.89400000  0.56110000  0.14150000  1.0 0.1184172124
H  H75  1  0.39400000  0.43890000  0.35850000  1.0 0.1184172124
H  H76  1  0.10600000  0.56110000  0.35850000  1.0 0.1184172124
H  H77  1  0.39400000  0.56110000  0.85850000  1.0 0.1184172124
H  H78  1  0.10600000  0.43890000  0.85850000  1.0 0.1184172124
H  H79  1  0.60600000  0.56110000  0.64150000  1.0 0.1184172124
H  H80  1  0.89400000  0.43890000  0.64150000  1.0 0.1184172124
H  H81  1  0.58850000  0.49190000  0.07750000  1.0 0.1358930674
H  H82  1  0.91150000  0.50810000  0.07750000  1.0 0.1358930674
H  H83  1  0.41150000  0.49190000  0.42250000  1.0 0.1358930674
H  H84  1  0.08850000  0.50810000  0.42250000  1.0 0.1358930674
H  H85  1  0.41150000  0.50810000  0.92250000  1.0 0.1358930674
H  H86  1  0.08850000  0.49190000  0.92250000  1.0 0.1358930674
H  H87  1  0.58850000  0.50810000  0.57750000  1.0 0.1358930674
H  H88  1  0.91150000  0.49190000  0.57750000  1.0 0.1358930674
H  H89  1  0.59090000  0.48870000  0.00250000  1.0 0.1027350882
H  H90  1  0.90910000  0.51130000  0.00250000  1.0 0.1027350882
H  H91  1  0.40910000  0.48870000  0.49750000  1.0 0.1027350882
H  H92  1  0.09090000  0.51130000  0.49750000  1.0 0.1027350882
H  H93  1  0.40910000  0.51130000  0.99750000  1.0 0.1027350882
H  H94  1  0.09090000  0.48870000  0.99750000  1.0 0.1027350882
H  H95  1  0.59090000  0.51130000  0.50250000  1.0 0.1027350882
H  H96  1  0.90910000  0.48870000  0.50250000  1.0 0.1027350882
C  C1  1  0.40610000  0.14890000  0.42790000  1.0 0.0081910306
C  C2  1  0.09390000  0.85110000  0.42790000  1.0 0.0081910306
C  C3  1  0.59390000  0.14890000  0.07210000  1.0 0.0081910306
C  C4  1  0.90610000  0.85110000  0.07210000  1.0 0.0081910306
C  C5  1  0.59390000  0.85110000  0.57210000  1.0 0.0081910306
C  C6  1  0.90610000  0.14890000  0.57210000  1.0 0.0081910306
C  C7  1  0.40610000  0.85110000  0.92790000  1.0 0.0081910306
C  C8  1  0.09390000  0.14890000  0.92790000  1.0 0.0081910306
C  C9  1  0.57150000  0.36130000  0.42980000  1.0 -0.0119631643
C  C10  1  0.92850000  0.63870000  0.42980000  1.0 -0.0119631643
C  C11  1  0.42850000  0.36130000  0.07020000  1.0 -0.0119631643
C  C12  1  0.07150000  0.63870000  0.07020000  1.0 -0.0119631643
C  C13  1  0.42850000  0.63870000  0.57020000  1.0 -0.0119631643
C  C14  1  0.07150000  0.36130000  0.57020000  1.0 -0.0119631643
C  C15  1  0.57150000  0.63870000  0.92980000  1.0 -0.0119631643
C  C16  1  0.92850000  0.36130000  0.92980000  1.0 -0.0119631643
C  C17  1  0.04600000  0.11890000  0.42990000  1.0 -0.0295324213
C  C18  1  0.45400000  0.88110000  0.42990000  1.0 -0.0295324213
C  C19  1  0.95400000  0.11890000  0.07010000  1.0 -0.0295324213
C  C20  1  0.54600000  0.88110000  0.07010000  1.0 -0.0295324213
C  C21  1  0.95400000  0.88110000  0.57010000  1.0 -0.0295324213
C  C22  1  0.54600000  0.11890000  0.57010000  1.0 -0.0295324213
C  C23  1  0.04600000  0.88110000  0.92990000  1.0 -0.0295324213
C  C24  1  0.45400000  0.11890000  0.92990000  1.0 -0.0295324213
C  C25  1  0.70050000  0.25110000  0.50620000  1.0 0.0081910306
C  C26  1  0.79950000  0.74890000  0.50620000  1.0 0.0081910306
C  C27  1  0.29950000  0.25110000  0.99380000  1.0 0.0081910306
C  C28  1  0.20050000  0.74890000  0.99380000  1.0 0.0081910306
C  C29  1  0.29950000  0.74890000  0.49380000  1.0 0.0081910306
C  C30  1  0.20050000  0.25110000  0.49380000  1.0 0.0081910306
C  C31  1  0.70050000  0.74890000  0.00620000  1.0 0.0081910306
C  C32  1  0.79950000  0.25110000  0.00620000  1.0 0.0081910306
C  C33  1  0.44250000  0.37220000  0.56040000  1.0 -0.0033375682
C  C34  1  0.05750000  0.62780000  0.56040000  1.0 -0.0033375682
C  C35  1  0.55750000  0.37220000  0.93960000  1.0 -0.0033375682
C  C36  1  0.94250000  0.62780000  0.93960000  1.0 -0.0033375682
C  C37  1  0.55750000  0.62780000  0.43960000  1.0 -0.0033375682
C  C38  1  0.94250000  0.37220000  0.43960000  1.0 -0.0033375682
C  C39  1  0.44250000  0.62780000  0.06040000  1.0 -0.0033375682
C  C40  1  0.05750000  0.37220000  0.06040000  1.0 -0.0033375682
C  C41  1  0.33950000  0.02280000  0.33440000  1.0 0.1027350882
C  C42  1  0.16050000  0.97720000  0.33440000  1.0 0.1027350882
C  C43  1  0.66050000  0.02280000  0.16560000  1.0 0.1027350882
C  C44  1  0.83950000  0.97720000  0.16560000  1.0 0.1027350882
C  C45  1  0.66050000  0.97720000  0.66560000  1.0 0.1027350882
C  C46  1  0.83950000  0.02280000  0.66560000  1.0 0.1027350882
C  C47  1  0.33950000  0.97720000  0.83440000  1.0 0.1027350882
C  C48  1  0.16050000  0.02280000  0.83440000  1.0 0.1027350882
C  C49  1  0.34140000  0.02280000  0.28960000  1.0 -0.2111682931
C  C50  1  0.15860000  0.97720000  0.28960000  1.0 -0.2111682931
C  C51  1  0.65860000  0.02280000  0.21040000  1.0 -0.2111682931
C  C52  1  0.84140000  0.97720000  0.21040000  1.0 -0.2111682931
C  C53  1  0.65860000  0.97720000  0.71040000  1.0 -0.2111682931
C  C54  1  0.84140000  0.02280000  0.71040000  1.0 -0.2111682931
C  C55  1  0.34140000  0.97720000  0.78960000  1.0 -0.2111682931
C  C56  1  0.15860000  0.02280000  0.78960000  1.0 -0.2111682931
C  C57  1  0.25000000  0.00000000  0.26560000  1.0 0.1184172124
C  C58  1  0.75000000  0.00000000  0.23440000  1.0 0.1184172124
C  C59  1  0.75000000  0.00000000  0.73440000  1.0 0.1184172124
C  C60  1  0.25000000  0.00000000  0.76560000  1.0 0.1184172124
C  C61  1  0.25000000  0.00000000  0.21790000  1.0 0.0574337086
C  C62  1  0.75000000  0.00000000  0.28210000  1.0 0.0574337086
C  C63  1  0.75000000  0.00000000  0.78210000  1.0 0.0574337086
C  C64  1  0.25000000  0.00000000  0.71790000  1.0 0.0574337086
C  C65  1  0.34120000  0.97200000  0.19530000  1.0 -0.1411441294
C  C66  1  0.15880000  0.02800000  0.19530000  1.0 -0.1411441294
C  C67  1  0.65880000  0.97200000  0.30470000  1.0 -0.1411441294
C  C68  1  0.84120000  0.02800000  0.30470000  1.0 -0.1411441294
C  C69  1  0.65880000  0.02800000  0.80470000  1.0 -0.1411441294
C  C70  1  0.84120000  0.97200000  0.80470000  1.0 -0.1411441294
C  C71  1  0.34120000  0.02800000  0.69530000  1.0 -0.1411441294
C  C72  1  0.15880000  0.97200000  0.69530000  1.0 -0.1411441294
C  C73  1  0.34310000  0.97280000  0.15190000  1.0 -0.1459486512
C  C74  1  0.15690000  0.02720000  0.15190000  1.0 -0.1411441294
C  C75  1  0.65690000  0.97280000  0.34810000  1.0 -0.1459486512
C  C76  1  0.84310000  0.02720000  0.34810000  1.0 -0.1411441294
C  C77  1  0.65690000  0.02720000  0.84810000  1.0 -0.1411441294
C  C78  1  0.84310000  0.97280000  0.84810000  1.0 -0.1459486512
C  C79  1  0.34310000  0.02720000  0.65190000  1.0 -0.1411441294
C  C80  1  0.15690000  0.97280000  0.65190000  1.0 -0.1459486512
C  C81  1  0.25000000  0.00000000  0.12880000  1.0 0.0727546486
C  C82  1  0.75000000  0.00000000  0.37120000  1.0 0.0727546486
C  C83  1  0.75000000  0.00000000  0.87120000  1.0 0.0727546486
C  C84  1  0.25000000  0.00000000  0.62880000  1.0 0.0727546486
C  C85  1  0.25000000  0.00000000  0.08210000  1.0 0.1027350882
C  C86  1  0.75000000  0.00000000  0.41790000  1.0 0.1027350882
C  C87  1  0.75000000  0.00000000  0.91790000  1.0 0.1027350882
C  C88  1  0.25000000  0.00000000  0.58210000  1.0 0.1027350882
C  C89  1  0.34580000  0.01760000  0.05790000  1.0 -0.2111682931
C  C90  1  0.15420000  0.98240000  0.05790000  1.0 -0.2111682931
C  C91  1  0.65420000  0.01760000  0.44210000  1.0 -0.2111682931
C  C92  1  0.84580000  0.98240000  0.44210000  1.0 -0.2111682931
C  C93  1  0.65420000  0.98240000  0.94210000  1.0 -0.2111682931
C  C94  1  0.84580000  0.01760000  0.94210000  1.0 -0.2111682931
C  C95  1  0.34580000  0.98240000  0.55790000  1.0 -0.2111682931
C  C96  1  0.15420000  0.01760000  0.55790000  1.0 -0.2111682931
C  C97  1  0.34200000  0.01650000  0.01340000  1.0 0.0775118667
C  C98  1  0.15800000  0.98350000  0.01340000  1.0 0.0775118667
C  C99  1  0.65800000  0.01650000  0.48660000  1.0 0.0775118667
C  C100  1  0.84200000  0.98350000  0.48660000  1.0 0.0775118667
C  C101  1  0.65800000  0.98350000  0.98660000  1.0 0.0775118667
C  C102  1  0.84200000  0.01650000  0.98660000  1.0 0.0775118667
C  C103  1  0.34200000  0.98350000  0.51340000  1.0 0.0775118667
C  C104  1  0.15800000  0.01650000  0.51340000  1.0 0.0775118667
C  C105  1  0.65700000  0.51380000  0.33850000  1.0 0.0930085854
C  C106  1  0.84300000  0.48620000  0.33850000  1.0 0.0930085854
C  C107  1  0.34300000  0.51380000  0.16150000  1.0 0.0930085854
C  C108  1  0.15700000  0.48620000  0.16150000  1.0 0.0930085854
C  C109  1  0.34300000  0.48620000  0.66150000  1.0 0.0930085854
C  C110  1  0.15700000  0.51380000  0.66150000  1.0 0.0930085854
C  C111  1  0.65700000  0.48620000  0.83850000  1.0 0.0930085854
C  C112  1  0.84300000  0.51380000  0.83850000  1.0 0.0930085854
C  C113  1  0.65380000  0.51430000  0.29470000  1.0 -0.204636733
C  C114  1  0.84620000  0.48570000  0.29470000  1.0 -0.2111682931
C  C115  1  0.34620000  0.51430000  0.20530000  1.0 -0.204636733
C  C116  1  0.15380000  0.48570000  0.20530000  1.0 -0.2111682931
C  C117  1  0.34620000  0.48570000  0.70530000  1.0 -0.2111682931
C  C118  1  0.15380000  0.51430000  0.70530000  1.0 -0.2111682931
C  C119  1  0.65380000  0.48570000  0.79470000  1.0 -0.2111682931
C  C120  1  0.84620000  0.51430000  0.79470000  1.0 -0.204636733
C  C121  1  0.75000000  0.50000000  0.27080000  1.0 0.1184172124
C  C122  1  0.25000000  0.50000000  0.22920000  1.0 0.1184172124
C  C123  1  0.25000000  0.50000000  0.72920000  1.0 0.1184172124
C  C124  1  0.75000000  0.50000000  0.77080000  1.0 0.1184172124
C  C125  1  0.75000000  0.50000000  0.22450000  1.0 0.0465402501
C  C126  1  0.25000000  0.50000000  0.27550000  1.0 0.0465402501
C  C127  1  0.25000000  0.50000000  0.77550000  1.0 0.0465402501
C  C128  1  0.75000000  0.50000000  0.72450000  1.0 0.0465402501
C  C129  1  0.66640000  0.46220000  0.20130000  1.0 -0.1459486512
C  C130  1  0.83360000  0.53780000  0.20130000  1.0 -0.1459486512
C  C131  1  0.33360000  0.46220000  0.29870000  1.0 -0.1459486512
C  C132  1  0.16640000  0.53780000  0.29870000  1.0 -0.1459486512
C  C133  1  0.33360000  0.53780000  0.79870000  1.0 -0.1459486512
C  C134  1  0.16640000  0.46220000  0.79870000  1.0 -0.1459486512
C  C135  1  0.66640000  0.53780000  0.70130000  1.0 -0.1459486512
C  C136  1  0.83360000  0.46220000  0.70130000  1.0 -0.1459486512
C  C137  1  0.66520000  0.46330000  0.15660000  1.0 -0.1459486512
C  C138  1  0.83480000  0.53670000  0.15660000  1.0 -0.1459486512
C  C139  1  0.33480000  0.46330000  0.34340000  1.0 -0.1459486512
C  C140  1  0.16520000  0.53670000  0.34340000  1.0 -0.1459486512
C  C141  1  0.33480000  0.53670000  0.84340000  1.0 -0.1459486512
C  C142  1  0.16520000  0.46330000  0.84340000  1.0 -0.1459486512
C  C143  1  0.66520000  0.53670000  0.65660000  1.0 -0.1459486512
C  C144  1  0.83480000  0.46330000  0.65660000  1.0 -0.1459486512
C  C145  1  0.75000000  0.50000000  0.13430000  1.0 0.0775118667
C  C146  1  0.25000000  0.50000000  0.36570000  1.0 0.0775118667
C  C147  1  0.25000000  0.50000000  0.86570000  1.0 0.0775118667
C  C148  1  0.75000000  0.50000000  0.63430000  1.0 0.0775118667
C  C149  1  0.75000000  0.50000000  0.08650000  1.0 0.1184172124
C  C150  1  0.25000000  0.50000000  0.41350000  1.0 0.1184172124
C  C151  1  0.25000000  0.50000000  0.91350000  1.0 0.1184172124
C  C152  1  0.75000000  0.50000000  0.58650000  1.0 0.1184172124
C  C153  1  0.65800000  0.49500000  0.06320000  1.0 -0.2111682931
C  C154  1  0.84200000  0.50500000  0.06320000  1.0 -0.2111682931
C  C155  1  0.34200000  0.49500000  0.43680000  1.0 -0.2111682931
C  C156  1  0.15800000  0.50500000  0.43680000  1.0 -0.2111682931
C  C157  1  0.34200000  0.50500000  0.93680000  1.0 -0.2111682931
C  C158  1  0.15800000  0.49500000  0.93680000  1.0 -0.2111682931
C  C159  1  0.65800000  0.50500000  0.56320000  1.0 -0.2111682931
C  C160  1  0.84200000  0.49500000  0.56320000  1.0 -0.2111682931
C  C161  1  0.65900000  0.49400000  0.01740000  1.0 0.1027350882
C  C162  1  0.84100000  0.50600000  0.01740000  1.0 0.1027350882
C  C163  1  0.34100000  0.49400000  0.48260000  1.0 0.1027350882
C  C164  1  0.15900000  0.50600000  0.48260000  1.0 0.1027350882
C  C165  1  0.34100000  0.50600000  0.98260000  1.0 0.1027350882
C  C166  1  0.15900000  0.49400000  0.98260000  1.0 0.1027350882
C  C167  1  0.65900000  0.50600000  0.51740000  1.0 0.1027350882
C  C168  1  0.84100000  0.49400000  0.51740000  1.0 0.1027350882
N  N1  1  0.35620000  0.09450000  0.42520000  1.0 -0.3395541282
N  N2  1  0.14380000  0.90550000  0.42520000  1.0 -0.3395541282
N  N3  1  0.64380000  0.09450000  0.07480000  1.0 -0.3395541282
N  N4  1  0.85620000  0.90550000  0.07480000  1.0 -0.3395541282
N  N5  1  0.64380000  0.90550000  0.57480000  1.0 -0.3395541282
N  N6  1  0.85620000  0.09450000  0.57480000  1.0 -0.3395541282
N  N7  1  0.35620000  0.90550000  0.92520000  1.0 -0.3395541282
N  N8  1  0.14380000  0.09450000  0.92520000  1.0 -0.3395541282
N  N9  1  0.63120000  0.41310000  0.42860000  1.0 -0.3395541282
N  N10  1  0.86880000  0.58690000  0.42860000  1.0 -0.3395541282
N  N11  1  0.36880000  0.41310000  0.07140000  1.0 -0.3395541282
N  N12  1  0.13120000  0.58690000  0.07140000  1.0 -0.3395541282
N  N13  1  0.36880000  0.58690000  0.57140000  1.0 -0.3395541282
N  N14  1  0.13120000  0.41310000  0.57140000  1.0 -0.3395541282
N  N15  1  0.63120000  0.58690000  0.92860000  1.0 -0.3395541282
N  N16  1  0.86880000  0.41310000  0.92860000  1.0 -0.3395541282
N  N17  1  0.12100000  0.07820000  0.42280000  1.0 -0.3319031437
N  N18  1  0.37900000  0.92180000  0.42280000  1.0 -0.3319031437
N  N19  1  0.87900000  0.07820000  0.07720000  1.0 -0.3319031437
N  N20  1  0.62100000  0.92180000  0.07720000  1.0 -0.3319031437
N  N21  1  0.87900000  0.92180000  0.57720000  1.0 -0.3319031437
N  N22  1  0.62100000  0.07820000  0.57720000  1.0 -0.3319031437
N  N23  1  0.12100000  0.92180000  0.92280000  1.0 -0.3319031437
N  N24  1  0.37900000  0.07820000  0.92280000  1.0 -0.3319031437
N  N25  1  0.76960000  0.22440000  0.48680000  1.0 -0.2791339186
N  N26  1  0.73040000  0.77560000  0.48680000  1.0 -0.2791339186
N  N27  1  0.23040000  0.22440000  0.01320000  1.0 -0.2791339186
N  N28  1  0.26960000  0.77560000  0.01320000  1.0 -0.2791339186
N  N29  1  0.23040000  0.77560000  0.51320000  1.0 -0.2791339186
N  N30  1  0.26960000  0.22440000  0.51320000  1.0 -0.2791339186
N  N31  1  0.76960000  0.77560000  0.98680000  1.0 -0.2791339186
N  N32  1  0.73040000  0.22440000  0.98680000  1.0 -0.2791339186
N  N33  1  0.37070000  0.41580000  0.56990000  1.0 -0.3540475731
N  N34  1  0.12930000  0.58420000  0.56990000  1.0 -0.3540475731
N  N35  1  0.62930000  0.41580000  0.93010000  1.0 -0.3540475731
N  N36  1  0.87070000  0.58420000  0.93010000  1.0 -0.3540475731
N  N37  1  0.62930000  0.58420000  0.43010000  1.0 -0.3540475731
N  N38  1  0.87070000  0.41580000  0.43010000  1.0 -0.3540475731
N  N39  1  0.37070000  0.58420000  0.06990000  1.0 -0.3540475731
N  N40  1  0.12930000  0.41580000  0.06990000  1.0 -0.3540475731
N  N41  1  0.25000000  0.00000000  0.35560000  1.0 -0.2111682931
N  N42  1  0.75000000  0.00000000  0.14440000  1.0 -0.2111682931
N  N43  1  0.75000000  0.00000000  0.64440000  1.0 -0.2111682931
N  N44  1  0.25000000  0.00000000  0.85560000  1.0 -0.2111682931
N  N45  1  0.25000000  0.00000000  0.99080000  1.0 -0.2111682931
N  N46  1  0.75000000  0.00000000  0.50920000  1.0 -0.2111682931
N  N47  1  0.75000000  0.00000000  0.00920000  1.0 -0.2111682931
N  N48  1  0.25000000  0.00000000  0.49080000  1.0 -0.2111682931
N  N49  1  0.75000000  0.50000000  0.36050000  1.0 -0.2111682931
N  N50  1  0.25000000  0.50000000  0.13950000  1.0 -0.2111682931
N  N51  1  0.25000000  0.50000000  0.63950000  1.0 -0.2111682931
N  N52  1  0.75000000  0.50000000  0.86050000  1.0 -0.2111682931
N  N53  1  0.75000000  0.50000000  0.99600000  1.0 -0.204636733
N  N54  1  0.25000000  0.50000000  0.50400000  1.0 -0.204636733
N  N55  1  0.25000000  0.50000000  0.00400000  1.0 -0.2111682931
N  N56  1  0.75000000  0.50000000  0.49600000  1.0 -0.2111682931
