# DDEC6 charges by PACMAN v1.1 (https://github.com/mtap-research/PACMAN-charge/)
data_POLBIB_ASR_pacman
_symmetry_space_group_name_H-M   'P 1'
_cell_length_a   8.41300000
_cell_length_b   10.56700000
_cell_length_c   16.97000000
_cell_angle_alpha   90.00000000
_cell_angle_beta   90.00000000
_cell_angle_gamma   90.00000000
_symmetry_Int_Tables_number   1
_chemical_formula_structural   V3(PO5)2
_chemical_formula_sum   'V12 P8 O40'
_cell_volume   1508.63590187
_cell_formula_units_Z   4
loop_
 _symmetry_equiv_pos_site_id
 _symmetry_equiv_pos_as_xyz
  1  'x, y, z'
loop_
 _atom_site_type_symbol
 _atom_site_label
 _atom_site_symmetry_multiplicity
 _atom_site_fract_x
 _atom_site_fract_y
 _atom_site_fract_z
 _atom_site_occupancy
 _atom_site_charge
V  V1  1  0.77980000  0.14060000  0.56430000  1.0 1.8621477823
V  V2  1  0.27980000  0.35940000  0.43570000  1.0 1.8621477823
V  V3  1  0.72020000  0.64060000  0.93570000  1.0 1.8621477823
V  V4  1  0.22020000  0.85940000  0.06430000  1.0 1.8710115294
V  V5  1  0.22020000  0.85940000  0.43570000  1.0 1.8710115294
V  V6  1  0.72020000  0.64060000  0.56430000  1.0 1.8710115294
V  V7  1  0.27980000  0.35940000  0.06430000  1.0 1.8621477823
V  V8  1  0.77980000  0.14060000  0.93570000  1.0 1.8710115294
V  V9  1  0.82610000  0.77910000  0.75000000  1.0 1.9061115325
V  V10  1  0.32610000  0.72090000  0.25000000  1.0 1.9019279222
V  V11  1  0.67390000  0.27910000  0.75000000  1.0 1.9061115325
V  V12  1  0.17390000  0.22090000  0.25000000  1.0 1.9061115325
P  P1  1  0.97090000  0.87070000  0.58680000  1.0 1.3264439642
P  P2  1  0.47090000  0.62930000  0.41320000  1.0 1.3236118296
P  P3  1  0.52910000  0.37070000  0.91320000  1.0 1.3236118296
P  P4  1  0.02910000  0.12930000  0.08680000  1.0 1.3264439642
P  P5  1  0.02910000  0.12930000  0.41320000  1.0 1.3264439642
P  P6  1  0.52910000  0.37070000  0.58680000  1.0 1.3236118296
P  P7  1  0.47090000  0.62930000  0.08680000  1.0 1.3236118296
P  P8  1  0.97090000  0.87070000  0.91320000  1.0 1.3236118296
O  O1  1  0.94920000  0.01590000  0.58530000  1.0 -0.7788739612
O  O2  1  0.44920000  0.48410000  0.41470000  1.0 -0.7737555166
O  O3  1  0.55080000  0.51590000  0.91470000  1.0 -0.7788739612
O  O4  1  0.05080000  0.98410000  0.08530000  1.0 -0.7788739612
O  O5  1  0.05080000  0.98410000  0.41470000  1.0 -0.7788739612
O  O6  1  0.55080000  0.51590000  0.58530000  1.0 -0.7788739612
O  O7  1  0.44920000  0.48410000  0.08530000  1.0 -0.7788739612
O  O8  1  0.94920000  0.01590000  0.91470000  1.0 -0.7788739612
O  O9  1  0.12830000  0.83590000  0.54540000  1.0 -0.7576513548
O  O10  1  0.62830000  0.66410000  0.45460000  1.0 -0.7536628306
O  O11  1  0.37170000  0.33590000  0.95460000  1.0 -0.7536628306
O  O12  1  0.87170000  0.16410000  0.04540000  1.0 -0.7536628306
O  O13  1  0.87170000  0.16410000  0.45460000  1.0 -0.7536628306
O  O14  1  0.37170000  0.33590000  0.54540000  1.0 -0.7536628306
O  O15  1  0.62830000  0.66410000  0.04540000  1.0 -0.7536628306
O  O16  1  0.12830000  0.83590000  0.95460000  1.0 -0.7576513548
O  O17  1  0.82960000  0.80600000  0.54570000  1.0 -0.8096212208
O  O18  1  0.32960000  0.69400000  0.45430000  1.0 -0.8096212208
O  O19  1  0.67040000  0.30600000  0.95430000  1.0 -0.8158545752
O  O20  1  0.17040000  0.19400000  0.04570000  1.0 -0.8158545752
O  O21  1  0.17040000  0.19400000  0.45430000  1.0 -0.8096212208
O  O22  1  0.67040000  0.30600000  0.54570000  1.0 -0.8096212208
O  O23  1  0.32960000  0.69400000  0.04570000  1.0 -0.8096212208
O  O24  1  0.82960000  0.80600000  0.95430000  1.0 -0.8096212208
O  O25  1  0.98920000  0.82600000  0.67300000  1.0 -0.7737555166
O  O26  1  0.48920000  0.67400000  0.32700000  1.0 -0.7788739612
O  O27  1  0.51080000  0.32600000  0.82700000  1.0 -0.7737555166
O  O28  1  0.01080000  0.17400000  0.17300000  1.0 -0.7737555166
O  O29  1  0.01080000  0.17400000  0.32700000  1.0 -0.7737555166
O  O30  1  0.51080000  0.32600000  0.67300000  1.0 -0.7737555166
O  O31  1  0.48920000  0.67400000  0.17300000  1.0 -0.7737555166
O  O32  1  0.98920000  0.82600000  0.82700000  1.0 -0.7737555166
O  O33  1  0.75860000  0.65920000  0.82610000  1.0 -1.0235644042
O  O34  1  0.25860000  0.84080000  0.17390000  1.0 -1.0235644042
O  O35  1  0.74140000  0.15920000  0.67390000  1.0 -1.0235644042
O  O36  1  0.24140000  0.34080000  0.32610000  1.0 -1.0305761953
O  O37  1  0.24140000  0.34080000  0.17390000  1.0 -1.0235644042
O  O38  1  0.74140000  0.15920000  0.82610000  1.0 -1.0235644042
O  O39  1  0.25860000  0.84080000  0.32610000  1.0 -1.0305761953
O  O40  1  0.75860000  0.65920000  0.67390000  1.0 -1.0235644042
