# DDEC6 charges by PACMAN v1.1 (https://github.com/mtap-research/PACMAN-charge/)
data_POMMAH_ASR_pacman
_symmetry_space_group_name_H-M   'P 1'
_cell_length_a   21.91730000
_cell_length_b   21.91730000
_cell_length_c   28.26850000
_cell_angle_alpha   90.00000000
_cell_angle_beta   90.00000000
_cell_angle_gamma   120.00000000
_symmetry_Int_Tables_number   1
_chemical_formula_structural   In3Cu6H24C36I6N6O13
_chemical_formula_sum   'In12 Cu24 H96 C144 I24 N24 O52'
_cell_volume   11760.00483877
_cell_formula_units_Z   4
loop_
 _symmetry_equiv_pos_site_id
 _symmetry_equiv_pos_as_xyz
  1  'x, y, z'
loop_
 _atom_site_type_symbol
 _atom_site_label
 _atom_site_symmetry_multiplicity
 _atom_site_fract_x
 _atom_site_fract_y
 _atom_site_fract_z
 _atom_site_occupancy
 _atom_site_charge
In  In1  1  0.23073000  0.64358000  0.50000000  1.0 1.4940010078
In  In2  1  0.58715000  0.23073000  0.50000000  1.0 1.4940010078
In  In3  1  0.35642000  0.58715000  0.50000000  1.0 1.4940010078
In  In4  1  0.76927000  0.35642000  0.50000000  1.0 1.4940010078
In  In5  1  0.41285000  0.76927000  0.50000000  1.0 1.4940010078
In  In6  1  0.64358000  0.41285000  0.50000000  1.0 1.4940010078
In  In7  1  0.58715000  0.35642000  0.00000000  1.0 1.4940010078
In  In8  1  0.76927000  0.41285000  0.00000000  1.0 1.4940010078
In  In9  1  0.64358000  0.23073000  0.00000000  1.0 1.4940010078
In  In10  1  0.35642000  0.76927000  0.00000000  1.0 1.4940010078
In  In11  1  0.41285000  0.64358000  0.00000000  1.0 1.4940010078
In  In12  1  0.23073000  0.58715000  0.00000000  1.0 1.4940010078
Cu  Cu1  1  0.05067000  0.48250000  0.28233000  1.0 0.1804525732
Cu  Cu2  1  0.56817000  0.05067000  0.28233000  1.0 0.1804525732
Cu  Cu3  1  0.51750000  0.56817000  0.28233000  1.0 0.1804525732
Cu  Cu4  1  0.94933000  0.51750000  0.28233000  1.0 0.1804525732
Cu  Cu5  1  0.43183000  0.94933000  0.28233000  1.0 0.1804525732
Cu  Cu6  1  0.48250000  0.43183000  0.28233000  1.0 0.1804525732
Cu  Cu7  1  0.56817000  0.51750000  0.21767000  1.0 0.1804525732
Cu  Cu8  1  0.94933000  0.43183000  0.21767000  1.0 0.1804525732
Cu  Cu9  1  0.48250000  0.05067000  0.21767000  1.0 0.1804525732
Cu  Cu10  1  0.51750000  0.94933000  0.21767000  1.0 0.1804525732
Cu  Cu11  1  0.43183000  0.48250000  0.21767000  1.0 0.1804525732
Cu  Cu12  1  0.05067000  0.56817000  0.21767000  1.0 0.1804525732
Cu  Cu13  1  0.94933000  0.51750000  0.71767000  1.0 0.1804525732
Cu  Cu14  1  0.43183000  0.94933000  0.71767000  1.0 0.1804525732
Cu  Cu15  1  0.48250000  0.43183000  0.71767000  1.0 0.1804525732
Cu  Cu16  1  0.05067000  0.48250000  0.71767000  1.0 0.1804525732
Cu  Cu17  1  0.56817000  0.05067000  0.71767000  1.0 0.1804525732
Cu  Cu18  1  0.51750000  0.56817000  0.71767000  1.0 0.1804525732
Cu  Cu19  1  0.43183000  0.48250000  0.78233000  1.0 0.1804525732
Cu  Cu20  1  0.05067000  0.56817000  0.78233000  1.0 0.1804525732
Cu  Cu21  1  0.51750000  0.94933000  0.78233000  1.0 0.1804525732
Cu  Cu22  1  0.48250000  0.05067000  0.78233000  1.0 0.1804525732
Cu  Cu23  1  0.56817000  0.51750000  0.78233000  1.0 0.1804525732
Cu  Cu24  1  0.94933000  0.43183000  0.78233000  1.0 0.1804525732
H  H1  1  0.13760000  0.53620000  0.37050000  1.0 0.108964326
H  H2  1  0.60140000  0.13760000  0.37050000  1.0 0.108964326
H  H3  1  0.46380000  0.60140000  0.37050000  1.0 0.108964326
H  H4  1  0.86240000  0.46380000  0.37050000  1.0 0.108964326
H  H5  1  0.39860000  0.86240000  0.37050000  1.0 0.108964326
H  H6  1  0.53620000  0.39860000  0.37050000  1.0 0.108964326
H  H7  1  0.60140000  0.46380000  0.12950000  1.0 0.108964326
H  H8  1  0.86240000  0.39860000  0.12950000  1.0 0.108964326
H  H9  1  0.53620000  0.13760000  0.12950000  1.0 0.108964326
H  H10  1  0.46380000  0.86240000  0.12950000  1.0 0.108964326
H  H11  1  0.39860000  0.53620000  0.12950000  1.0 0.108964326
H  H12  1  0.13760000  0.60140000  0.12950000  1.0 0.108964326
H  H13  1  0.86240000  0.46380000  0.62950000  1.0 0.108964326
H  H14  1  0.39860000  0.86240000  0.62950000  1.0 0.108964326
H  H15  1  0.53620000  0.39860000  0.62950000  1.0 0.108964326
H  H16  1  0.13760000  0.53620000  0.62950000  1.0 0.108964326
H  H17  1  0.60140000  0.13760000  0.62950000  1.0 0.108964326
H  H18  1  0.46380000  0.60140000  0.62950000  1.0 0.108964326
H  H19  1  0.39860000  0.53620000  0.87050000  1.0 0.108964326
H  H20  1  0.13760000  0.60140000  0.87050000  1.0 0.108964326
H  H21  1  0.46380000  0.86240000  0.87050000  1.0 0.108964326
H  H22  1  0.53620000  0.13760000  0.87050000  1.0 0.108964326
H  H23  1  0.60140000  0.46380000  0.87050000  1.0 0.108964326
H  H24  1  0.86240000  0.39860000  0.87050000  1.0 0.108964326
H  H25  1  0.10150000  0.37530000  0.28660000  1.0 0.108964326
H  H26  1  0.72620000  0.10150000  0.28660000  1.0 0.108964326
H  H27  1  0.62470000  0.72620000  0.28660000  1.0 0.108964326
H  H28  1  0.89850000  0.62470000  0.28660000  1.0 0.108964326
H  H29  1  0.27380000  0.89850000  0.28660000  1.0 0.108964326
H  H30  1  0.37530000  0.27380000  0.28660000  1.0 0.108964326
H  H31  1  0.72620000  0.62470000  0.21340000  1.0 0.108964326
H  H32  1  0.89850000  0.27380000  0.21340000  1.0 0.108964326
H  H33  1  0.37530000  0.10150000  0.21340000  1.0 0.108964326
H  H34  1  0.62470000  0.89850000  0.21340000  1.0 0.108964326
H  H35  1  0.27380000  0.37530000  0.21340000  1.0 0.108964326
H  H36  1  0.10150000  0.72620000  0.21340000  1.0 0.108964326
H  H37  1  0.89850000  0.62470000  0.71340000  1.0 0.108964326
H  H38  1  0.27380000  0.89850000  0.71340000  1.0 0.108964326
H  H39  1  0.37530000  0.27380000  0.71340000  1.0 0.108964326
H  H40  1  0.10150000  0.37530000  0.71340000  1.0 0.108964326
H  H41  1  0.72620000  0.10150000  0.71340000  1.0 0.108964326
H  H42  1  0.62470000  0.72620000  0.71340000  1.0 0.108964326
H  H43  1  0.27380000  0.37530000  0.78660000  1.0 0.108964326
H  H44  1  0.10150000  0.72620000  0.78660000  1.0 0.108964326
H  H45  1  0.62470000  0.89850000  0.78660000  1.0 0.108964326
H  H46  1  0.37530000  0.10150000  0.78660000  1.0 0.108964326
H  H47  1  0.72620000  0.62470000  0.78660000  1.0 0.108964326
H  H48  1  0.89850000  0.27380000  0.78660000  1.0 0.108964326
H  H49  1  0.26140000  0.44480000  0.38200000  1.0 0.1236476592
H  H50  1  0.81660000  0.26140000  0.38200000  1.0 0.1236476592
H  H51  1  0.55520000  0.81660000  0.38200000  1.0 0.1236476592
H  H52  1  0.73860000  0.55520000  0.38200000  1.0 0.1236476592
H  H53  1  0.18340000  0.73860000  0.38200000  1.0 0.1236476592
H  H54  1  0.44480000  0.18340000  0.38200000  1.0 0.1236476592
H  H55  1  0.81660000  0.55520000  0.11800000  1.0 0.1236476592
H  H56  1  0.73860000  0.18340000  0.11800000  1.0 0.1236476592
H  H57  1  0.44480000  0.26140000  0.11800000  1.0 0.1236476592
H  H58  1  0.55520000  0.73860000  0.11800000  1.0 0.1236476592
H  H59  1  0.18340000  0.44480000  0.11800000  1.0 0.1236476592
H  H60  1  0.26140000  0.81660000  0.11800000  1.0 0.1236476592
H  H61  1  0.73860000  0.55520000  0.61800000  1.0 0.1236476592
H  H62  1  0.18340000  0.73860000  0.61800000  1.0 0.1236476592
H  H63  1  0.44480000  0.18340000  0.61800000  1.0 0.1236476592
H  H64  1  0.26140000  0.44480000  0.61800000  1.0 0.1236476592
H  H65  1  0.81660000  0.26140000  0.61800000  1.0 0.1236476592
H  H66  1  0.55520000  0.81660000  0.61800000  1.0 0.1236476592
H  H67  1  0.18340000  0.44480000  0.88200000  1.0 0.1236476592
H  H68  1  0.26140000  0.81660000  0.88200000  1.0 0.1236476592
H  H69  1  0.55520000  0.73860000  0.88200000  1.0 0.1236476592
H  H70  1  0.44480000  0.26140000  0.88200000  1.0 0.1236476592
H  H71  1  0.81660000  0.55520000  0.88200000  1.0 0.1236476592
H  H72  1  0.73860000  0.18340000  0.88200000  1.0 0.1236476592
H  H73  1  0.19710000  0.37240000  0.31310000  1.0 0.1262192345
H  H74  1  0.82470000  0.19710000  0.31310000  1.0 0.1262192345
H  H75  1  0.62760000  0.82470000  0.31310000  1.0 0.1262192345
H  H76  1  0.80290000  0.62760000  0.31310000  1.0 0.1262192345
H  H77  1  0.17530000  0.80290000  0.31310000  1.0 0.1262192345
H  H78  1  0.37240000  0.17530000  0.31310000  1.0 0.1262192345
H  H79  1  0.82470000  0.62760000  0.18690000  1.0 0.1262192345
H  H80  1  0.80290000  0.17530000  0.18690000  1.0 0.1262192345
H  H81  1  0.37240000  0.19710000  0.18690000  1.0 0.1262192345
H  H82  1  0.62760000  0.80290000  0.18690000  1.0 0.1262192345
H  H83  1  0.17530000  0.37240000  0.18690000  1.0 0.1262192345
H  H84  1  0.19710000  0.82470000  0.18690000  1.0 0.1262192345
H  H85  1  0.80290000  0.62760000  0.68690000  1.0 0.1262192345
H  H86  1  0.17530000  0.80290000  0.68690000  1.0 0.1262192345
H  H87  1  0.37240000  0.17530000  0.68690000  1.0 0.1262192345
H  H88  1  0.19710000  0.37240000  0.68690000  1.0 0.1262192345
H  H89  1  0.82470000  0.19710000  0.68690000  1.0 0.1262192345
H  H90  1  0.62760000  0.82470000  0.68690000  1.0 0.1262192345
H  H91  1  0.17530000  0.37240000  0.81310000  1.0 0.1262192345
H  H92  1  0.19710000  0.82470000  0.81310000  1.0 0.1262192345
H  H93  1  0.62760000  0.80290000  0.81310000  1.0 0.1262192345
H  H94  1  0.37240000  0.19710000  0.81310000  1.0 0.1262192345
H  H95  1  0.82470000  0.62760000  0.81310000  1.0 0.1262192345
H  H96  1  0.80290000  0.17530000  0.81310000  1.0 0.1262192345
C  C1  1  0.23030000  0.53200000  0.42830000  1.0 0.612617251
C  C2  1  0.69830000  0.23030000  0.42830000  1.0 0.612617251
C  C3  1  0.46800000  0.69830000  0.42830000  1.0 0.612617251
C  C4  1  0.76970000  0.46800000  0.42830000  1.0 0.612617251
C  C5  1  0.30170000  0.76970000  0.42830000  1.0 0.612617251
C  C6  1  0.53200000  0.30170000  0.42830000  1.0 0.612617251
C  C7  1  0.69830000  0.46800000  0.07170000  1.0 0.612617251
C  C8  1  0.76970000  0.30170000  0.07170000  1.0 0.612617251
C  C9  1  0.53200000  0.23030000  0.07170000  1.0 0.612617251
C  C10  1  0.46800000  0.76970000  0.07170000  1.0 0.612617251
C  C11  1  0.30170000  0.53200000  0.07170000  1.0 0.612617251
C  C12  1  0.23030000  0.69830000  0.07170000  1.0 0.612617251
C  C13  1  0.76970000  0.46800000  0.57170000  1.0 0.612617251
C  C14  1  0.30170000  0.76970000  0.57170000  1.0 0.612617251
C  C15  1  0.53200000  0.30170000  0.57170000  1.0 0.612617251
C  C16  1  0.23030000  0.53200000  0.57170000  1.0 0.612617251
C  C17  1  0.69830000  0.23030000  0.57170000  1.0 0.612617251
C  C18  1  0.46800000  0.69830000  0.57170000  1.0 0.612617251
C  C19  1  0.30170000  0.53200000  0.92830000  1.0 0.612617251
C  C20  1  0.23030000  0.69830000  0.92830000  1.0 0.612617251
C  C21  1  0.46800000  0.76970000  0.92830000  1.0 0.612617251
C  C22  1  0.53200000  0.23030000  0.92830000  1.0 0.612617251
C  C23  1  0.69830000  0.46800000  0.92830000  1.0 0.612617251
C  C24  1  0.76970000  0.30170000  0.92830000  1.0 0.612617251
C  C25  1  0.14980000  0.50280000  0.35920000  1.0 0.0652060202
C  C26  1  0.64700000  0.14980000  0.35920000  1.0 0.063883192
C  C27  1  0.49720000  0.64700000  0.35920000  1.0 0.0652060202
C  C28  1  0.85020000  0.49720000  0.35920000  1.0 0.0652060202
C  C29  1  0.35300000  0.85020000  0.35920000  1.0 0.0652060202
C  C30  1  0.50280000  0.35300000  0.35920000  1.0 0.0652060202
C  C31  1  0.64700000  0.49720000  0.14080000  1.0 0.0652060202
C  C32  1  0.85020000  0.35300000  0.14080000  1.0 0.0652060202
C  C33  1  0.50280000  0.14980000  0.14080000  1.0 0.0652060202
C  C34  1  0.49720000  0.85020000  0.14080000  1.0 0.0652060202
C  C35  1  0.35300000  0.50280000  0.14080000  1.0 0.0652060202
C  C36  1  0.14980000  0.64700000  0.14080000  1.0 0.0652060202
C  C37  1  0.85020000  0.49720000  0.64080000  1.0 0.0652060202
C  C38  1  0.35300000  0.85020000  0.64080000  1.0 0.0652060202
C  C39  1  0.50280000  0.35300000  0.64080000  1.0 0.0652060202
C  C40  1  0.14980000  0.50280000  0.64080000  1.0 0.0652060202
C  C41  1  0.64700000  0.14980000  0.64080000  1.0 0.063883192
C  C42  1  0.49720000  0.64700000  0.64080000  1.0 0.0652060202
C  C43  1  0.35300000  0.50280000  0.85920000  1.0 0.0652060202
C  C44  1  0.14980000  0.64700000  0.85920000  1.0 0.0652060202
C  C45  1  0.49720000  0.85020000  0.85920000  1.0 0.0652060202
C  C46  1  0.50280000  0.14980000  0.85920000  1.0 0.0652060202
C  C47  1  0.64700000  0.49720000  0.85920000  1.0 0.0652060202
C  C48  1  0.85020000  0.35300000  0.85920000  1.0 0.0652060202
C  C49  1  0.13270000  0.41070000  0.30790000  1.0 0.0435938427
C  C50  1  0.72200000  0.13270000  0.30790000  1.0 0.0435938427
C  C51  1  0.58930000  0.72200000  0.30790000  1.0 0.0435938427
C  C52  1  0.86730000  0.58930000  0.30790000  1.0 0.0435938427
C  C53  1  0.27800000  0.86730000  0.30790000  1.0 0.0435938427
C  C54  1  0.41070000  0.27800000  0.30790000  1.0 0.0435938427
C  C55  1  0.72200000  0.58930000  0.19210000  1.0 0.0435938427
C  C56  1  0.86730000  0.27800000  0.19210000  1.0 0.0435938427
C  C57  1  0.41070000  0.13270000  0.19210000  1.0 0.0435938427
C  C58  1  0.58930000  0.86730000  0.19210000  1.0 0.0435938427
C  C59  1  0.27800000  0.41070000  0.19210000  1.0 0.0435938427
C  C60  1  0.13270000  0.72200000  0.19210000  1.0 0.0435938427
C  C61  1  0.86730000  0.58930000  0.69210000  1.0 0.0435938427
C  C62  1  0.27800000  0.86730000  0.69210000  1.0 0.0435938427
C  C63  1  0.41070000  0.27800000  0.69210000  1.0 0.0435938427
C  C64  1  0.13270000  0.41070000  0.69210000  1.0 0.0435938427
C  C65  1  0.72200000  0.13270000  0.69210000  1.0 0.0435938427
C  C66  1  0.58930000  0.72200000  0.69210000  1.0 0.0435938427
C  C67  1  0.27800000  0.41070000  0.80790000  1.0 0.0435938427
C  C68  1  0.13270000  0.72200000  0.80790000  1.0 0.0435938427
C  C69  1  0.58930000  0.86730000  0.80790000  1.0 0.0435938427
C  C70  1  0.41070000  0.13270000  0.80790000  1.0 0.0435938427
C  C71  1  0.72200000  0.58930000  0.80790000  1.0 0.0435938427
C  C72  1  0.86730000  0.27800000  0.80790000  1.0 0.0435938427
C  C73  1  0.19880000  0.48940000  0.38560000  1.0 -0.1003017068
C  C74  1  0.70940000  0.19880000  0.38560000  1.0 -0.1003017068
C  C75  1  0.51060000  0.70940000  0.38560000  1.0 -0.1003017068
C  C76  1  0.80120000  0.51060000  0.38560000  1.0 -0.1003017068
C  C77  1  0.29060000  0.80120000  0.38560000  1.0 -0.1003017068
C  C78  1  0.48940000  0.29060000  0.38560000  1.0 -0.1003017068
C  C79  1  0.70940000  0.51060000  0.11440000  1.0 -0.1003017068
C  C80  1  0.80120000  0.29060000  0.11440000  1.0 -0.1003017068
C  C81  1  0.48940000  0.19880000  0.11440000  1.0 -0.1003017068
C  C82  1  0.51060000  0.80120000  0.11440000  1.0 -0.1003017068
C  C83  1  0.29060000  0.48940000  0.11440000  1.0 -0.1003017068
C  C84  1  0.19880000  0.70940000  0.11440000  1.0 -0.1003017068
C  C85  1  0.80120000  0.51060000  0.61440000  1.0 -0.1003017068
C  C86  1  0.29060000  0.80120000  0.61440000  1.0 -0.1003017068
C  C87  1  0.48940000  0.29060000  0.61440000  1.0 -0.1003017068
C  C88  1  0.19880000  0.48940000  0.61440000  1.0 -0.1003017068
C  C89  1  0.70940000  0.19880000  0.61440000  1.0 -0.1003017068
C  C90  1  0.51060000  0.70940000  0.61440000  1.0 -0.1003017068
C  C91  1  0.29060000  0.48940000  0.88560000  1.0 -0.1003017068
C  C92  1  0.19880000  0.70940000  0.88560000  1.0 -0.1003017068
C  C93  1  0.51060000  0.80120000  0.88560000  1.0 -0.1003017068
C  C94  1  0.48940000  0.19880000  0.88560000  1.0 -0.1003017068
C  C95  1  0.70940000  0.51060000  0.88560000  1.0 -0.1003017068
C  C96  1  0.80120000  0.29060000  0.88560000  1.0 -0.1003017068
C  C97  1  0.22290000  0.44680000  0.36820000  1.0 -0.0540062691
C  C98  1  0.77610000  0.22290000  0.36820000  1.0 -0.0540062691
C  C99  1  0.55320000  0.77610000  0.36820000  1.0 -0.0540062691
C  C100  1  0.77710000  0.55320000  0.36820000  1.0 -0.0540062691
C  C101  1  0.22390000  0.77710000  0.36820000  1.0 -0.0540062691
C  C102  1  0.44680000  0.22390000  0.36820000  1.0 -0.0540062691
C  C103  1  0.77610000  0.55320000  0.13180000  1.0 -0.0540062691
C  C104  1  0.77710000  0.22390000  0.13180000  1.0 -0.0540062691
C  C105  1  0.44680000  0.22290000  0.13180000  1.0 -0.0540062691
C  C106  1  0.55320000  0.77710000  0.13180000  1.0 -0.0540062691
C  C107  1  0.22390000  0.44680000  0.13180000  1.0 -0.0540062691
C  C108  1  0.22290000  0.77610000  0.13180000  1.0 -0.0540062691
C  C109  1  0.77710000  0.55320000  0.63180000  1.0 -0.0540062691
C  C110  1  0.22390000  0.77710000  0.63180000  1.0 -0.0540062691
C  C111  1  0.44680000  0.22390000  0.63180000  1.0 -0.0540062691
C  C112  1  0.22290000  0.44680000  0.63180000  1.0 -0.0540062691
C  C113  1  0.77610000  0.22290000  0.63180000  1.0 -0.0540062691
C  C114  1  0.55320000  0.77610000  0.63180000  1.0 -0.0540062691
C  C115  1  0.22390000  0.44680000  0.86820000  1.0 -0.0540062691
C  C116  1  0.22290000  0.77610000  0.86820000  1.0 -0.0540062691
C  C117  1  0.55320000  0.77710000  0.86820000  1.0 -0.0540062691
C  C118  1  0.44680000  0.22290000  0.86820000  1.0 -0.0540062691
C  C119  1  0.77610000  0.55320000  0.86820000  1.0 -0.0540062691
C  C120  1  0.77710000  0.22390000  0.86820000  1.0 -0.0540062691
C  C121  1  0.18450000  0.40440000  0.32650000  1.0 -0.1416529202
C  C122  1  0.78010000  0.18450000  0.32650000  1.0 -0.1416529202
C  C123  1  0.59560000  0.78010000  0.32650000  1.0 -0.1416529202
C  C124  1  0.81550000  0.59560000  0.32650000  1.0 -0.1416529202
C  C125  1  0.21990000  0.81550000  0.32650000  1.0 -0.1416529202
C  C126  1  0.40440000  0.21990000  0.32650000  1.0 -0.1416529202
C  C127  1  0.78010000  0.59560000  0.17350000  1.0 -0.1416529202
C  C128  1  0.81550000  0.21990000  0.17350000  1.0 -0.1416529202
C  C129  1  0.40440000  0.18450000  0.17350000  1.0 -0.1416529202
C  C130  1  0.59560000  0.81550000  0.17350000  1.0 -0.1416529202
C  C131  1  0.21990000  0.40440000  0.17350000  1.0 -0.1416529202
C  C132  1  0.18450000  0.78010000  0.17350000  1.0 -0.1416529202
C  C133  1  0.81550000  0.59560000  0.67350000  1.0 -0.1416529202
C  C134  1  0.21990000  0.81550000  0.67350000  1.0 -0.1416529202
C  C135  1  0.40440000  0.21990000  0.67350000  1.0 -0.1416529202
C  C136  1  0.18450000  0.40440000  0.67350000  1.0 -0.1416529202
C  C137  1  0.78010000  0.18450000  0.67350000  1.0 -0.1416529202
C  C138  1  0.59560000  0.78010000  0.67350000  1.0 -0.1416529202
C  C139  1  0.21990000  0.40440000  0.82650000  1.0 -0.1416529202
C  C140  1  0.18450000  0.78010000  0.82650000  1.0 -0.1416529202
C  C141  1  0.59560000  0.81550000  0.82650000  1.0 -0.1416529202
C  C142  1  0.40440000  0.18450000  0.82650000  1.0 -0.1416529202
C  C143  1  0.78010000  0.59560000  0.82650000  1.0 -0.1416529202
C  C144  1  0.81550000  0.21990000  0.82650000  1.0 -0.1416529202
I  I1  1  0.07657000  0.46421000  0.19169000  1.0 -0.3498729388
I  I2  1  0.61236000  0.07657000  0.19169000  1.0 -0.3498729388
I  I3  1  0.53579000  0.61236000  0.19169000  1.0 -0.3498729388
I  I4  1  0.92343000  0.53579000  0.19169000  1.0 -0.3498729388
I  I5  1  0.38764000  0.92343000  0.19169000  1.0 -0.3498729388
I  I6  1  0.46421000  0.38764000  0.19169000  1.0 -0.3498729388
I  I7  1  0.61236000  0.53579000  0.30831000  1.0 -0.3498729388
I  I8  1  0.92343000  0.38764000  0.30831000  1.0 -0.3498729388
I  I9  1  0.46421000  0.07657000  0.30831000  1.0 -0.3498729388
I  I10  1  0.53579000  0.92343000  0.30831000  1.0 -0.3498729388
I  I11  1  0.38764000  0.46421000  0.30831000  1.0 -0.3498729388
I  I12  1  0.07657000  0.61236000  0.30831000  1.0 -0.3498729388
I  I13  1  0.92343000  0.53579000  0.80831000  1.0 -0.3498729388
I  I14  1  0.38764000  0.92343000  0.80831000  1.0 -0.3498729388
I  I15  1  0.46421000  0.38764000  0.80831000  1.0 -0.3498729388
I  I16  1  0.07657000  0.46421000  0.80831000  1.0 -0.3498729388
I  I17  1  0.61236000  0.07657000  0.80831000  1.0 -0.3498729388
I  I18  1  0.53579000  0.61236000  0.80831000  1.0 -0.3498729388
I  I19  1  0.38764000  0.46421000  0.69169000  1.0 -0.3498729388
I  I20  1  0.07657000  0.61236000  0.69169000  1.0 -0.3498729388
I  I21  1  0.53579000  0.92343000  0.69169000  1.0 -0.3498729388
I  I22  1  0.46421000  0.07657000  0.69169000  1.0 -0.3498729388
I  I23  1  0.61236000  0.53579000  0.69169000  1.0 -0.3498729388
I  I24  1  0.92343000  0.38764000  0.69169000  1.0 -0.3498729388
N  N1  1  0.12130000  0.46690000  0.31780000  1.0 -0.1598684871
N  N2  1  0.65440000  0.12130000  0.31780000  1.0 -0.1598684871
N  N3  1  0.53310000  0.65440000  0.31780000  1.0 -0.1598684871
N  N4  1  0.87870000  0.53310000  0.31780000  1.0 -0.1598684871
N  N5  1  0.34560000  0.87870000  0.31780000  1.0 -0.1598684871
N  N6  1  0.46690000  0.34560000  0.31780000  1.0 -0.1598684871
N  N7  1  0.65440000  0.53310000  0.18220000  1.0 -0.1598684871
N  N8  1  0.87870000  0.34560000  0.18220000  1.0 -0.1598684871
N  N9  1  0.46690000  0.12130000  0.18220000  1.0 -0.1598684871
N  N10  1  0.53310000  0.87870000  0.18220000  1.0 -0.1598684871
N  N11  1  0.34560000  0.46690000  0.18220000  1.0 -0.1598684871
N  N12  1  0.12130000  0.65440000  0.18220000  1.0 -0.1598684871
N  N13  1  0.87870000  0.53310000  0.68220000  1.0 -0.1598684871
N  N14  1  0.34560000  0.87870000  0.68220000  1.0 -0.1598684871
N  N15  1  0.46690000  0.34560000  0.68220000  1.0 -0.1598684871
N  N16  1  0.12130000  0.46690000  0.68220000  1.0 -0.1598684871
N  N17  1  0.65440000  0.12130000  0.68220000  1.0 -0.1598684871
N  N18  1  0.53310000  0.65440000  0.68220000  1.0 -0.1598684871
N  N19  1  0.34560000  0.46690000  0.81780000  1.0 -0.1598684871
N  N20  1  0.12130000  0.65440000  0.81780000  1.0 -0.1598684871
N  N21  1  0.53310000  0.87870000  0.81780000  1.0 -0.1598684871
N  N22  1  0.46690000  0.12130000  0.81780000  1.0 -0.1598684871
N  N23  1  0.65440000  0.53310000  0.81780000  1.0 -0.1598684871
N  N24  1  0.87870000  0.34560000  0.81780000  1.0 -0.1598684871
O  O1  1  0.33333333  0.66666667  0.50000000  1.0 -1.0775217646
O  O2  1  0.66666667  0.33333333  0.50000000  1.0 -1.0775217646
O  O3  1  0.66666667  0.33333333  0.00000000  1.0 -1.0775217646
O  O4  1  0.33333333  0.66666667  0.00000000  1.0 -1.0775217646
O  O5  1  0.20310000  0.56650000  0.44350000  1.0 -0.5649092429
O  O6  1  0.63660000  0.20310000  0.44350000  1.0 -0.5649092429
O  O7  1  0.43350000  0.63660000  0.44350000  1.0 -0.5649092429
O  O8  1  0.79690000  0.43350000  0.44350000  1.0 -0.5659950421
O  O9  1  0.36340000  0.79690000  0.44350000  1.0 -0.5649092429
O  O10  1  0.56650000  0.36340000  0.44350000  1.0 -0.5649092429
O  O11  1  0.63660000  0.43350000  0.05650000  1.0 -0.5649092429
O  O12  1  0.79690000  0.36340000  0.05650000  1.0 -0.5659950421
O  O13  1  0.56650000  0.20310000  0.05650000  1.0 -0.5649092429
O  O14  1  0.43350000  0.79690000  0.05650000  1.0 -0.5649092429
O  O15  1  0.36340000  0.56650000  0.05650000  1.0 -0.5649092429
O  O16  1  0.20310000  0.63660000  0.05650000  1.0 -0.5649092429
O  O17  1  0.79690000  0.43350000  0.55650000  1.0 -0.5659950421
O  O18  1  0.36340000  0.79690000  0.55650000  1.0 -0.5649092429
O  O19  1  0.56650000  0.36340000  0.55650000  1.0 -0.5659950421
O  O20  1  0.20310000  0.56650000  0.55650000  1.0 -0.5649092429
O  O21  1  0.63660000  0.20310000  0.55650000  1.0 -0.5649092429
O  O22  1  0.43350000  0.63660000  0.55650000  1.0 -0.5649092429
O  O23  1  0.36340000  0.56650000  0.94350000  1.0 -0.5649092429
O  O24  1  0.20310000  0.63660000  0.94350000  1.0 -0.5649092429
O  O25  1  0.43350000  0.79690000  0.94350000  1.0 -0.5659950421
O  O26  1  0.56650000  0.20310000  0.94350000  1.0 -0.5659950421
O  O27  1  0.63660000  0.43350000  0.94350000  1.0 -0.5659950421
O  O28  1  0.79690000  0.36340000  0.94350000  1.0 -0.5659950421
O  O29  1  0.28100000  0.52760000  0.44540000  1.0 -0.5659950421
O  O30  1  0.75340000  0.28100000  0.44540000  1.0 -0.5659950421
O  O31  1  0.47240000  0.75340000  0.44540000  1.0 -0.5659950421
O  O32  1  0.71900000  0.47240000  0.44540000  1.0 -0.5659950421
O  O33  1  0.24660000  0.71900000  0.44540000  1.0 -0.5659950421
O  O34  1  0.52760000  0.24660000  0.44540000  1.0 -0.5659950421
O  O35  1  0.75340000  0.47240000  0.05460000  1.0 -0.5659950421
O  O36  1  0.71900000  0.24660000  0.05460000  1.0 -0.5659950421
O  O37  1  0.52760000  0.28100000  0.05460000  1.0 -0.5659950421
O  O38  1  0.47240000  0.71900000  0.05460000  1.0 -0.5659950421
O  O39  1  0.24660000  0.52760000  0.05460000  1.0 -0.5659950421
O  O40  1  0.28100000  0.75340000  0.05460000  1.0 -0.5659950421
O  O41  1  0.71900000  0.47240000  0.55460000  1.0 -0.5659950421
O  O42  1  0.24660000  0.71900000  0.55460000  1.0 -0.5659950421
O  O43  1  0.52760000  0.24660000  0.55460000  1.0 -0.5659950421
O  O44  1  0.28100000  0.52760000  0.55460000  1.0 -0.5659950421
O  O45  1  0.75340000  0.28100000  0.55460000  1.0 -0.5659950421
O  O46  1  0.47240000  0.75340000  0.55460000  1.0 -0.5659950421
O  O47  1  0.24660000  0.52760000  0.94540000  1.0 -0.5659950421
O  O48  1  0.28100000  0.75340000  0.94540000  1.0 -0.5659950421
O  O49  1  0.47240000  0.71900000  0.94540000  1.0 -0.5659950421
O  O50  1  0.52760000  0.28100000  0.94540000  1.0 -0.5659950421
O  O51  1  0.75340000  0.47240000  0.94540000  1.0 -0.5659950421
O  O52  1  0.71900000  0.24660000  0.94540000  1.0 -0.5659950421
