# DDEC6 charges by PACMAN v1.1 (https://github.com/mtap-research/PACMAN-charge/)
data_POQDIJ_ion_pacman
_symmetry_space_group_name_H-M   'P 1'
_cell_length_a   17.64770000
_cell_length_b   17.65910000
_cell_length_c   42.62800000
_cell_angle_alpha   90.00000000
_cell_angle_beta   90.00000000
_cell_angle_gamma   90.00000000
_symmetry_Int_Tables_number   1
_chemical_formula_structural   SiAgBH44C60(SF)4
_chemical_formula_sum   'Si8 Ag8 B8 H352 C480 S32 F32'
_cell_volume   13284.69645036
_cell_formula_units_Z   8
loop_
 _symmetry_equiv_pos_site_id
 _symmetry_equiv_pos_as_xyz
  1  'x, y, z'
loop_
 _atom_site_type_symbol
 _atom_site_label
 _atom_site_symmetry_multiplicity
 _atom_site_fract_x
 _atom_site_fract_y
 _atom_site_fract_z
 _atom_site_occupancy
 _atom_site_charge
Si  Si1  1  0.74050000  0.46451000  0.99025000  1.0 0.6274796504
Si  Si2  1  0.25950000  0.03549000  0.49025000  1.0 0.6274796504
Si  Si3  1  0.24050000  0.53549000  0.50975000  1.0 0.6274796504
Si  Si4  1  0.75950000  0.96451000  0.00975000  1.0 0.6274796504
Si  Si5  1  0.25950000  0.53549000  0.00975000  1.0 0.6274796504
Si  Si6  1  0.74050000  0.96451000  0.50975000  1.0 0.6274796504
Si  Si7  1  0.75950000  0.46451000  0.49025000  1.0 0.6274796504
Si  Si8  1  0.24050000  0.03549000  0.99025000  1.0 0.6274796504
Ag  Ag1  1  0.76184000  0.98020000  0.24095000  1.0 0.0672238456
Ag  Ag2  1  0.23816000  0.51980000  0.74095000  1.0 0.0594686116
Ag  Ag3  1  0.26184000  0.01980000  0.25905000  1.0 0.0672238456
Ag  Ag4  1  0.73816000  0.48020000  0.75905000  1.0 0.0672238456
Ag  Ag5  1  0.23816000  0.01980000  0.75905000  1.0 0.0594686116
Ag  Ag6  1  0.76184000  0.48020000  0.25905000  1.0 0.0672238456
Ag  Ag7  1  0.73816000  0.98020000  0.74095000  1.0 0.0672238456
Ag  Ag8  1  0.26184000  0.51980000  0.24095000  1.0 0.0672238456
B  B1  1  0.00490000  0.25010000  0.73739000  1.0 1.0184163677
B  B2  1  0.99510000  0.24990000  0.23739000  1.0 1.0184163677
B  B3  1  0.50490000  0.74990000  0.76261000  1.0 1.0184163677
B  B4  1  0.49510000  0.75010000  0.26261000  1.0 1.0184163677
B  B5  1  0.99510000  0.74990000  0.26261000  1.0 1.0184163677
B  B6  1  0.00490000  0.75010000  0.76261000  1.0 1.0184163677
B  B7  1  0.49510000  0.25010000  0.23739000  1.0 1.0184163677
B  B8  1  0.50490000  0.24990000  0.73739000  1.0 1.0184163677
H  H1  1  0.62730000  0.42590000  0.03710000  1.0 0.1107436831
H  H2  1  0.37270000  0.07410000  0.53710000  1.0 0.1107436831
H  H3  1  0.60550000  0.32790000  0.07170000  1.0 0.1190343506
H  H4  1  0.39450000  0.17210000  0.57170000  1.0 0.1190343506
H  H5  1  0.78320000  0.21300000  0.03570000  1.0 0.1107436831
H  H6  1  0.21680000  0.28700000  0.53570000  1.0 0.1107436831
H  H7  1  0.80500000  0.31230000  0.00040000  1.0 0.1107436831
H  H8  1  0.19500000  0.18770000  0.50040000  1.0 0.1107436831
H  H9  1  0.63720000  0.19120000  0.16070000  1.0 0.1302889168
H  H10  1  0.36280000  0.30880000  0.66070000  1.0 0.1302889168
H  H11  1  0.61960000  0.10960000  0.20300000  1.0 0.1302889168
H  H12  1  0.38040000  0.39040000  0.70300000  1.0 0.1302889168
H  H13  1  0.68230000  0.93240000  0.14930000  1.0 0.1190343506
H  H14  1  0.31770000  0.56760000  0.64930000  1.0 0.1190343506
H  H15  1  0.70130000  0.01300000  0.10680000  1.0 0.1107436831
H  H16  1  0.29870000  0.48700000  0.60680000  1.0 0.1107436831
H  H17  1  0.58100000  0.03880000  0.24340000  1.0 0.149952228
H  H18  1  0.41900000  0.46120000  0.74340000  1.0 0.149952228
H  H19  1  0.55290000  0.95590000  0.25320000  1.0 0.1673276334
H  H20  1  0.44710000  0.54410000  0.75320000  1.0 0.1673276334
H  H21  1  0.51800000  0.99640000  0.22290000  1.0 0.1610417656
H  H22  1  0.48200000  0.50360000  0.72290000  1.0 0.1610417656
H  H23  1  0.67270000  0.60880000  0.00950000  1.0 0.1107436831
H  H24  1  0.32730000  0.89120000  0.50950000  1.0 0.1107436831
H  H25  1  0.70040000  0.70370000  0.04540000  1.0 0.1190343506
H  H26  1  0.29960000  0.79630000  0.54540000  1.0 0.1190343506
H  H27  1  0.89150000  0.59250000  0.07020000  1.0 0.1190343506
H  H28  1  0.10850000  0.90750000  0.57020000  1.0 0.1190343506
H  H29  1  0.86270000  0.49750000  0.03450000  1.0 0.1190343506
H  H30  1  0.13730000  0.00250000  0.53450000  1.0 0.1190343506
H  H31  1  0.85030000  0.91030000  0.09810000  1.0 0.1190343506
H  H32  1  0.14970000  0.58970000  0.59810000  1.0 0.1190343506
H  H33  1  0.86720000  0.00080000  0.13720000  1.0 0.1107436831
H  H34  1  0.13280000  0.49920000  0.63720000  1.0 0.1107436831
H  H35  1  0.85070000  0.83880000  0.20340000  1.0 0.1302889168
H  H36  1  0.14930000  0.66120000  0.70340000  1.0 0.1302889168
H  H37  1  0.83333000  0.74790000  0.16450000  1.0 0.1190343506
H  H38  1  0.16667000  0.75210000  0.66450000  1.0 0.1190343506
H  H39  1  0.90610000  0.08770000  0.16920000  1.0 0.1610417656
H  H40  1  0.09390000  0.41230000  0.66920000  1.0 0.1610417656
H  H41  1  0.87560000  0.12380000  0.20120000  1.0 0.1673276334
H  H42  1  0.12440000  0.37620000  0.70120000  1.0 0.1673276334
H  H43  1  0.81720000  0.08770000  0.17670000  1.0 0.149952228
H  H44  1  0.18280000  0.41230000  0.67670000  1.0 0.149952228
H  H45  1  0.57330000  0.42740000  0.98000000  1.0 0.1107436831
H  H46  1  0.42670000  0.07260000  0.48000000  1.0 0.1107436831
H  H47  1  0.48200000  0.46840000  0.94440000  1.0 0.1190343506
H  H48  1  0.51800000  0.03160000  0.44440000  1.0 0.1190343506
H  H49  1  0.63230000  0.61660000  0.90710000  1.0 0.1302889168
H  H50  1  0.36770000  0.88340000  0.40710000  1.0 0.1302889168
H  H51  1  0.72370000  0.57490000  0.94240000  1.0 0.1107436831
H  H52  1  0.27630000  0.92510000  0.44240000  1.0 0.1107436831
H  H53  1  0.30240000  0.56840000  0.88300000  1.0 0.1190343506
H  H54  1  0.69760000  0.93160000  0.38300000  1.0 0.1190343506
H  H55  1  0.20750000  0.58410000  0.84510000  1.0 0.1190343506
H  H56  1  0.79250000  0.91590000  0.34510000  1.0 0.1190343506
H  H57  1  0.36530000  0.65630000  0.78330000  1.0 0.1302889168
H  H58  1  0.63470000  0.84370000  0.28330000  1.0 0.1302889168
H  H59  1  0.45960000  0.64130000  0.82140000  1.0 0.1302889168
H  H60  1  0.54040000  0.85870000  0.32140000  1.0 0.1302889168
H  H61  1  0.12540000  0.54910000  0.80510000  1.0 0.1427855881
H  H62  1  0.87460000  0.95090000  0.30510000  1.0 0.1427855881
H  H63  1  0.08170000  0.60330000  0.78110000  1.0 0.1610417656
H  H64  1  0.91830000  0.89670000  0.28110000  1.0 0.1610417656
H  H65  1  0.10930000  0.63550000  0.81430000  1.0 0.1610417656
H  H66  1  0.89070000  0.86450000  0.31430000  1.0 0.1610417656
H  H67  1  0.77020000  0.35230000  0.94230000  1.0 0.1107436831
H  H68  1  0.22980000  0.14770000  0.44230000  1.0 0.1107436831
H  H69  1  0.85930000  0.33060000  0.90370000  1.0 0.1302889168
H  H70  1  0.14070000  0.16940000  0.40370000  1.0 0.1302889168
H  H71  1  0.98060000  0.51070000  0.93520000  1.0 0.1190343506
H  H72  1  0.01940000  0.98930000  0.43520000  1.0 0.1190343506
H  H73  1  0.88990000  0.53210000  0.97340000  1.0 0.1107436831
H  H74  1  0.11010000  0.96790000  0.47340000  1.0 0.1107436831
H  H75  1  0.01520000  0.36540000  0.81010000  1.0 0.1302889168
H  H76  1  0.98480000  0.13460000  0.31010000  1.0 0.1302889168
H  H77  1  0.10700000  0.36320000  0.77090000  1.0 0.1302889168
H  H78  1  0.89300000  0.13680000  0.27090000  1.0 0.1302889168
H  H79  1  0.26730000  0.42390000  0.83390000  1.0 0.1190343506
H  H80  1  0.73270000  0.07610000  0.33390000  1.0 0.1190343506
H  H81  1  0.17610000  0.43020000  0.87300000  1.0 0.1190343506
H  H82  1  0.82390000  0.06980000  0.37300000  1.0 0.1190343506
H  H83  1  0.25200000  0.26610000  0.76270000  1.0 0.1610417656
H  H84  1  0.74800000  0.23390000  0.26270000  1.0 0.1610417656
H  H85  1  0.29240000  0.30230000  0.73260000  1.0 0.1610417656
H  H86  1  0.70760000  0.19770000  0.23260000  1.0 0.1610417656
H  H87  1  0.20300000  0.31170000  0.73740000  1.0 0.1610417656
H  H88  1  0.79700000  0.18830000  0.23740000  1.0 0.1610417656
H  H89  1  0.12730000  0.57410000  0.46290000  1.0 0.1107436831
H  H90  1  0.87270000  0.92590000  0.96290000  1.0 0.1107436831
H  H91  1  0.10550000  0.67210000  0.42830000  1.0 0.1190343506
H  H92  1  0.89450000  0.82790000  0.92830000  1.0 0.1190343506
H  H93  1  0.28320000  0.78700000  0.46430000  1.0 0.1107436831
H  H94  1  0.71680000  0.71300000  0.96430000  1.0 0.1107436831
H  H95  1  0.30500000  0.68770000  0.49960000  1.0 0.1107436831
H  H96  1  0.69500000  0.81230000  0.99960000  1.0 0.1107436831
H  H97  1  0.13720000  0.80880000  0.33930000  1.0 0.1302889168
H  H98  1  0.86280000  0.69120000  0.83930000  1.0 0.1302889168
H  H99  1  0.11960000  0.89040000  0.29700000  1.0 0.1302889168
H  H100  1  0.88040000  0.60960000  0.79700000  1.0 0.1302889168
H  H101  1  0.18230000  0.06760000  0.35070000  1.0 0.1190343506
H  H102  1  0.81770000  0.43240000  0.85070000  1.0 0.1190343506
H  H103  1  0.20130000  0.98700000  0.39320000  1.0 0.1107436831
H  H104  1  0.79870000  0.51300000  0.89320000  1.0 0.1107436831
H  H105  1  0.08100000  0.96120000  0.25660000  1.0 0.149952228
H  H106  1  0.91900000  0.53880000  0.75660000  1.0 0.149952228
H  H107  1  0.05290000  0.04410000  0.24680000  1.0 0.1673276334
H  H108  1  0.94710000  0.45590000  0.74680000  1.0 0.1673276334
H  H109  1  0.01800000  0.00360000  0.27710000  1.0 0.1610417656
H  H110  1  0.98200000  0.49640000  0.77710000  1.0 0.1610417656
H  H111  1  0.17270000  0.39120000  0.49050000  1.0 0.1107436831
H  H112  1  0.82730000  0.10880000  0.99050000  1.0 0.1107436831
H  H113  1  0.20040000  0.29630000  0.45460000  1.0 0.1190343506
H  H114  1  0.79960000  0.20370000  0.95460000  1.0 0.1190343506
H  H115  1  0.39150000  0.40750000  0.42980000  1.0 0.1190343506
H  H116  1  0.60850000  0.09250000  0.92980000  1.0 0.1190343506
H  H117  1  0.36270000  0.50250000  0.46550000  1.0 0.1190343506
H  H118  1  0.63730000  0.99750000  0.96550000  1.0 0.1190343506
H  H119  1  0.35030000  0.08970000  0.40190000  1.0 0.1190343506
H  H120  1  0.64970000  0.41030000  0.90190000  1.0 0.1190343506
H  H121  1  0.36720000  0.99920000  0.36280000  1.0 0.1107436831
H  H122  1  0.63280000  0.50080000  0.86280000  1.0 0.1107436831
H  H123  1  0.35070000  0.16120000  0.29660000  1.0 0.1302889168
H  H124  1  0.64930000  0.33880000  0.79660000  1.0 0.1302889168
H  H125  1  0.33333333  0.25210000  0.33550000  1.0 0.1190343506
H  H126  1  0.66666667  0.24790000  0.83550000  1.0 0.1190343506
H  H127  1  0.40610000  0.91230000  0.33080000  1.0 0.1610417656
H  H128  1  0.59390000  0.58770000  0.83080000  1.0 0.1610417656
H  H129  1  0.37560000  0.87620000  0.29880000  1.0 0.1673276334
H  H130  1  0.62440000  0.62380000  0.79880000  1.0 0.1673276334
H  H131  1  0.31720000  0.91230000  0.32330000  1.0 0.149952228
H  H132  1  0.68280000  0.58770000  0.82330000  1.0 0.149952228
H  H133  1  0.07330000  0.57260000  0.52000000  1.0 0.1107436831
H  H134  1  0.92670000  0.92740000  0.02000000  1.0 0.1107436831
H  H135  1  0.98200000  0.53160000  0.55560000  1.0 0.1190343506
H  H136  1  0.01800000  0.96840000  0.05560000  1.0 0.1190343506
H  H137  1  0.13230000  0.38340000  0.59290000  1.0 0.1302889168
H  H138  1  0.86770000  0.11660000  0.09290000  1.0 0.1302889168
H  H139  1  0.22370000  0.42510000  0.55760000  1.0 0.1107436831
H  H140  1  0.77630000  0.07490000  0.05760000  1.0 0.1107436831
H  H141  1  0.80240000  0.43160000  0.61700000  1.0 0.1190343506
H  H142  1  0.19760000  0.06840000  0.11700000  1.0 0.1190343506
H  H143  1  0.70750000  0.41590000  0.65490000  1.0 0.1190343506
H  H144  1  0.29250000  0.08410000  0.15490000  1.0 0.1190343506
H  H145  1  0.86530000  0.34370000  0.71670000  1.0 0.1302889168
H  H146  1  0.13470000  0.15630000  0.21670000  1.0 0.1302889168
H  H147  1  0.95960000  0.35870000  0.67860000  1.0 0.1302889168
H  H148  1  0.04040000  0.14130000  0.17860000  1.0 0.1302889168
H  H149  1  0.62540000  0.45090000  0.69490000  1.0 0.1427855881
H  H150  1  0.37460000  0.04910000  0.19490000  1.0 0.1427855881
H  H151  1  0.58170000  0.39670000  0.71890000  1.0 0.1610417656
H  H152  1  0.41830000  0.10330000  0.21890000  1.0 0.1610417656
H  H153  1  0.60930000  0.36450000  0.68570000  1.0 0.1610417656
H  H154  1  0.39070000  0.13550000  0.18570000  1.0 0.1610417656
H  H155  1  0.27020000  0.64770000  0.55770000  1.0 0.1107436831
H  H156  1  0.72980000  0.85230000  0.05770000  1.0 0.1107436831
H  H157  1  0.35930000  0.66940000  0.59630000  1.0 0.1302889168
H  H158  1  0.64070000  0.83060000  0.09630000  1.0 0.1302889168
H  H159  1  0.48060000  0.48930000  0.56480000  1.0 0.1190343506
H  H160  1  0.51940000  0.01070000  0.06480000  1.0 0.1190343506
H  H161  1  0.38990000  0.46790000  0.52660000  1.0 0.1107436831
H  H162  1  0.61010000  0.03210000  0.02660000  1.0 0.1107436831
H  H163  1  0.51520000  0.63460000  0.68990000  1.0 0.1302889168
H  H164  1  0.48480000  0.86540000  0.18990000  1.0 0.1302889168
H  H165  1  0.60700000  0.63680000  0.72910000  1.0 0.1302889168
H  H166  1  0.39300000  0.86320000  0.22910000  1.0 0.1302889168
H  H167  1  0.76730000  0.57610000  0.66610000  1.0 0.1190343506
H  H168  1  0.23270000  0.92390000  0.16610000  1.0 0.1302889168
H  H169  1  0.67610000  0.56980000  0.62700000  1.0 0.1190343506
H  H170  1  0.32390000  0.93020000  0.12700000  1.0 0.1190343506
H  H171  1  0.75200000  0.73390000  0.73730000  1.0 0.1610417656
H  H172  1  0.24800000  0.76610000  0.23730000  1.0 0.1610417656
H  H173  1  0.79240000  0.69770000  0.76740000  1.0 0.1610417656
H  H174  1  0.20760000  0.80230000  0.26740000  1.0 0.1610417656
H  H175  1  0.70300000  0.68830000  0.76260000  1.0 0.1610417656
H  H176  1  0.29700000  0.81170000  0.26260000  1.0 0.1610417656
H  H177  1  0.37270000  0.57410000  0.96290000  1.0 0.1107436831
H  H178  1  0.62730000  0.92590000  0.46290000  1.0 0.1107436831
H  H179  1  0.39450000  0.67210000  0.92830000  1.0 0.1190343506
H  H180  1  0.60550000  0.82790000  0.42830000  1.0 0.1190343506
H  H181  1  0.21680000  0.78700000  0.96430000  1.0 0.1107436831
H  H182  1  0.78320000  0.71300000  0.46430000  1.0 0.1107436831
H  H183  1  0.19500000  0.68770000  0.99960000  1.0 0.1107436831
H  H184  1  0.80500000  0.81230000  0.49960000  1.0 0.1107436831
H  H185  1  0.36280000  0.80880000  0.83930000  1.0 0.1302889168
H  H186  1  0.63720000  0.69120000  0.33930000  1.0 0.1302889168
H  H187  1  0.38040000  0.89040000  0.79700000  1.0 0.1302889168
H  H188  1  0.61960000  0.60960000  0.29700000  1.0 0.1302889168
H  H189  1  0.31770000  0.06760000  0.85070000  1.0 0.1190343506
H  H190  1  0.68230000  0.43240000  0.35070000  1.0 0.1190343506
H  H191  1  0.29870000  0.98700000  0.89320000  1.0 0.1107436831
H  H192  1  0.70130000  0.51300000  0.39320000  1.0 0.1107436831
H  H193  1  0.41900000  0.96120000  0.75660000  1.0 0.149952228
H  H194  1  0.58100000  0.53880000  0.25660000  1.0 0.149952228
H  H195  1  0.44710000  0.04410000  0.74680000  1.0 0.1673276334
H  H196  1  0.55290000  0.45590000  0.24680000  1.0 0.1673276334
H  H197  1  0.48200000  0.00360000  0.77710000  1.0 0.1610417656
H  H198  1  0.51800000  0.49640000  0.27710000  1.0 0.1610417656
H  H199  1  0.32730000  0.39120000  0.99050000  1.0 0.1107436831
H  H200  1  0.67270000  0.10880000  0.49050000  1.0 0.1107436831
H  H201  1  0.29960000  0.29630000  0.95460000  1.0 0.1190343506
H  H202  1  0.70040000  0.20370000  0.45460000  1.0 0.1190343506
H  H203  1  0.10850000  0.40750000  0.92980000  1.0 0.1190343506
H  H204  1  0.89150000  0.09250000  0.42980000  1.0 0.1190343506
H  H205  1  0.13730000  0.50250000  0.96550000  1.0 0.1190343506
H  H206  1  0.86270000  0.99750000  0.46550000  1.0 0.1190343506
H  H207  1  0.14970000  0.08970000  0.90190000  1.0 0.1190343506
H  H208  1  0.85030000  0.41030000  0.40190000  1.0 0.1190343506
H  H209  1  0.13280000  0.99920000  0.86280000  1.0 0.1107436831
H  H210  1  0.86720000  0.50080000  0.36280000  1.0 0.1107436831
H  H211  1  0.14930000  0.16120000  0.79660000  1.0 0.1302889168
H  H212  1  0.85070000  0.33880000  0.29660000  1.0 0.1302889168
H  H213  1  0.16667000  0.25210000  0.83550000  1.0 0.1190343506
H  H214  1  0.83333000  0.24790000  0.33550000  1.0 0.1190343506
H  H215  1  0.09390000  0.91230000  0.83080000  1.0 0.1610417656
H  H216  1  0.90610000  0.58770000  0.33080000  1.0 0.1610417656
H  H217  1  0.12440000  0.87620000  0.79880000  1.0 0.1673276334
H  H218  1  0.87560000  0.62380000  0.29880000  1.0 0.1673276334
H  H219  1  0.18280000  0.91230000  0.82330000  1.0 0.149952228
H  H220  1  0.81720000  0.58770000  0.32330000  1.0 0.149952228
H  H221  1  0.42670000  0.57260000  0.02000000  1.0 0.1107436831
H  H222  1  0.57330000  0.92740000  0.52000000  1.0 0.1107436831
H  H223  1  0.51800000  0.53160000  0.05560000  1.0 0.1190343506
H  H224  1  0.48200000  0.96840000  0.55560000  1.0 0.1190343506
H  H225  1  0.36770000  0.38340000  0.09290000  1.0 0.1302889168
H  H226  1  0.63230000  0.11660000  0.59290000  1.0 0.1302889168
H  H227  1  0.27630000  0.42510000  0.05760000  1.0 0.1107436831
H  H228  1  0.72370000  0.07490000  0.55760000  1.0 0.1107436831
H  H229  1  0.69760000  0.43160000  0.11700000  1.0 0.1190343506
H  H230  1  0.30240000  0.06840000  0.61700000  1.0 0.1190343506
H  H231  1  0.79250000  0.41590000  0.15490000  1.0 0.1190343506
H  H232  1  0.20750000  0.08410000  0.65490000  1.0 0.1190343506
H  H233  1  0.63470000  0.34370000  0.21670000  1.0 0.1302889168
H  H234  1  0.36530000  0.15630000  0.71670000  1.0 0.1302889168
H  H235  1  0.54040000  0.35870000  0.17860000  1.0 0.1302889168
H  H236  1  0.45960000  0.14130000  0.67860000  1.0 0.1302889168
H  H237  1  0.87460000  0.45090000  0.19490000  1.0 0.1427855881
H  H238  1  0.12540000  0.04910000  0.69490000  1.0 0.1427855881
H  H239  1  0.91830000  0.39670000  0.21890000  1.0 0.1610417656
H  H240  1  0.08170000  0.10330000  0.71890000  1.0 0.1610417656
H  H241  1  0.89070000  0.36450000  0.18570000  1.0 0.1610417656
H  H242  1  0.10930000  0.13550000  0.68570000  1.0 0.1610417656
H  H243  1  0.22980000  0.64770000  0.05770000  1.0 0.1107436831
H  H244  1  0.77020000  0.85230000  0.55770000  1.0 0.1107436831
H  H245  1  0.14070000  0.66940000  0.09630000  1.0 0.1302889168
H  H246  1  0.85930000  0.83060000  0.59630000  1.0 0.1302889168
H  H247  1  0.01940000  0.48930000  0.06480000  1.0 0.1190343506
H  H248  1  0.98060000  0.01070000  0.56480000  1.0 0.1190343506
H  H249  1  0.11010000  0.46790000  0.02660000  1.0 0.1107436831
H  H250  1  0.88990000  0.03210000  0.52660000  1.0 0.1107436831
H  H251  1  0.98480000  0.63460000  0.18990000  1.0 0.1302889168
H  H252  1  0.01520000  0.86540000  0.68990000  1.0 0.1302889168
H  H253  1  0.89300000  0.63680000  0.22910000  1.0 0.1302889168
H  H254  1  0.10700000  0.86320000  0.72910000  1.0 0.1302889168
H  H255  1  0.73270000  0.57610000  0.16610000  1.0 0.1302889168
H  H256  1  0.26730000  0.92390000  0.66610000  1.0 0.1190343506
H  H257  1  0.82390000  0.56980000  0.12700000  1.0 0.1190343506
H  H258  1  0.17610000  0.93020000  0.62700000  1.0 0.1190343506
H  H259  1  0.74800000  0.73390000  0.23730000  1.0 0.1610417656
H  H260  1  0.25200000  0.76610000  0.73730000  1.0 0.1610417656
H  H261  1  0.70760000  0.69770000  0.26740000  1.0 0.1610417656
H  H262  1  0.29240000  0.80230000  0.76740000  1.0 0.1610417656
H  H263  1  0.79700000  0.68830000  0.26260000  1.0 0.1610417656
H  H264  1  0.20300000  0.81170000  0.76260000  1.0 0.1610417656
H  H265  1  0.87270000  0.42590000  0.53710000  1.0 0.1107436831
H  H266  1  0.12730000  0.07410000  0.03710000  1.0 0.1107436831
H  H267  1  0.89450000  0.32790000  0.57170000  1.0 0.1190343506
H  H268  1  0.10550000  0.17210000  0.07170000  1.0 0.1190343506
H  H269  1  0.71680000  0.21300000  0.53570000  1.0 0.1107436831
H  H270  1  0.28320000  0.28700000  0.03570000  1.0 0.1107436831
H  H271  1  0.69500000  0.31230000  0.50040000  1.0 0.1107436831
H  H272  1  0.30500000  0.18770000  0.00040000  1.0 0.1107436831
H  H273  1  0.86280000  0.19120000  0.66070000  1.0 0.1302889168
H  H274  1  0.13720000  0.30880000  0.16070000  1.0 0.1302889168
H  H275  1  0.88040000  0.10960000  0.70300000  1.0 0.1302889168
H  H276  1  0.11960000  0.39040000  0.20300000  1.0 0.1302889168
H  H277  1  0.81770000  0.93240000  0.64930000  1.0 0.1190343506
H  H278  1  0.18230000  0.56760000  0.14930000  1.0 0.1190343506
H  H279  1  0.79870000  0.01300000  0.60680000  1.0 0.1107436831
H  H280  1  0.20130000  0.48700000  0.10680000  1.0 0.1107436831
H  H281  1  0.91900000  0.03880000  0.74340000  1.0 0.149952228
H  H282  1  0.08100000  0.46120000  0.24340000  1.0 0.149952228
H  H283  1  0.94710000  0.95590000  0.75320000  1.0 0.1673276334
H  H284  1  0.05290000  0.54410000  0.25320000  1.0 0.1673276334
H  H285  1  0.98200000  0.99640000  0.72290000  1.0 0.1610417656
H  H286  1  0.01800000  0.50360000  0.22290000  1.0 0.1610417656
H  H287  1  0.82730000  0.60880000  0.50950000  1.0 0.1107436831
H  H288  1  0.17270000  0.89120000  0.00950000  1.0 0.1107436831
H  H289  1  0.79960000  0.70370000  0.54540000  1.0 0.1190343506
H  H290  1  0.20040000  0.79630000  0.04540000  1.0 0.1190343506
H  H291  1  0.60850000  0.59250000  0.57020000  1.0 0.1190343506
H  H292  1  0.39150000  0.90750000  0.07020000  1.0 0.1190343506
H  H293  1  0.63730000  0.49750000  0.53450000  1.0 0.1190343506
H  H294  1  0.36270000  0.00250000  0.03450000  1.0 0.1190343506
H  H295  1  0.64970000  0.91030000  0.59810000  1.0 0.1190343506
H  H296  1  0.35030000  0.58970000  0.09810000  1.0 0.1190343506
H  H297  1  0.63280000  0.00080000  0.63720000  1.0 0.1107436831
H  H298  1  0.36720000  0.49920000  0.13720000  1.0 0.1107436831
H  H299  1  0.64930000  0.83880000  0.70340000  1.0 0.1302889168
H  H300  1  0.35070000  0.66120000  0.20340000  1.0 0.1302889168
H  H301  1  0.66666667  0.74790000  0.66450000  1.0 0.1190343506
H  H302  1  0.33333333  0.75210000  0.16450000  1.0 0.1190343506
H  H303  1  0.59390000  0.08770000  0.66920000  1.0 0.1610417656
H  H304  1  0.40610000  0.41230000  0.16920000  1.0 0.1610417656
H  H305  1  0.62440000  0.12380000  0.70120000  1.0 0.1673276334
H  H306  1  0.37560000  0.37620000  0.20120000  1.0 0.1673276334
H  H307  1  0.68280000  0.08770000  0.67670000  1.0 0.149952228
H  H308  1  0.31720000  0.41230000  0.17670000  1.0 0.149952228
H  H309  1  0.92670000  0.42740000  0.48000000  1.0 0.1107436831
H  H310  1  0.07330000  0.07260000  0.98000000  1.0 0.1107436831
H  H311  1  0.01800000  0.46840000  0.44440000  1.0 0.1190343506
H  H312  1  0.98200000  0.03160000  0.94440000  1.0 0.1190343506
H  H313  1  0.86770000  0.61660000  0.40710000  1.0 0.1302889168
H  H314  1  0.13230000  0.88340000  0.90710000  1.0 0.1302889168
H  H315  1  0.77630000  0.57490000  0.44240000  1.0 0.1107436831
H  H316  1  0.22370000  0.92510000  0.94240000  1.0 0.1107436831
H  H317  1  0.19760000  0.56840000  0.38300000  1.0 0.1190343506
H  H318  1  0.80240000  0.93160000  0.88300000  1.0 0.1190343506
H  H319  1  0.29250000  0.58410000  0.34510000  1.0 0.1190343506
H  H320  1  0.70750000  0.91590000  0.84510000  1.0 0.1190343506
H  H321  1  0.13470000  0.65630000  0.28330000  1.0 0.1302889168
H  H322  1  0.86530000  0.84370000  0.78330000  1.0 0.1302889168
H  H323  1  0.04040000  0.64130000  0.32140000  1.0 0.1302889168
H  H324  1  0.95960000  0.85870000  0.82140000  1.0 0.1302889168
H  H325  1  0.37460000  0.54910000  0.30510000  1.0 0.1427855881
H  H326  1  0.62540000  0.95090000  0.80510000  1.0 0.1427855881
H  H327  1  0.41830000  0.60330000  0.28110000  1.0 0.1610417656
H  H328  1  0.58170000  0.89670000  0.78110000  1.0 0.1610417656
H  H329  1  0.39070000  0.63550000  0.31430000  1.0 0.1610417656
H  H330  1  0.60930000  0.86450000  0.81430000  1.0 0.1610417656
H  H331  1  0.72980000  0.35230000  0.44230000  1.0 0.1107436831
H  H332  1  0.27020000  0.14770000  0.94230000  1.0 0.1107436831
H  H333  1  0.64070000  0.33060000  0.40370000  1.0 0.1302889168
H  H334  1  0.35930000  0.16940000  0.90370000  1.0 0.1302889168
H  H335  1  0.51940000  0.51070000  0.43520000  1.0 0.1190343506
H  H336  1  0.48060000  0.98930000  0.93520000  1.0 0.1190343506
H  H337  1  0.61010000  0.53210000  0.47340000  1.0 0.1107436831
H  H338  1  0.38990000  0.96790000  0.97340000  1.0 0.1107436831
H  H339  1  0.48480000  0.36540000  0.31010000  1.0 0.1302889168
H  H340  1  0.51520000  0.13460000  0.81010000  1.0 0.1302889168
H  H341  1  0.39300000  0.36320000  0.27090000  1.0 0.1302889168
H  H342  1  0.60700000  0.13680000  0.77090000  1.0 0.1302889168
H  H343  1  0.23270000  0.42390000  0.33390000  1.0 0.1302889168
H  H344  1  0.76730000  0.07610000  0.83390000  1.0 0.1190343506
H  H345  1  0.32390000  0.43020000  0.37300000  1.0 0.1190343506
H  H346  1  0.67610000  0.06980000  0.87300000  1.0 0.1190343506
H  H347  1  0.24800000  0.26610000  0.26270000  1.0 0.1610417656
H  H348  1  0.75200000  0.23390000  0.76270000  1.0 0.1610417656
H  H349  1  0.20760000  0.30230000  0.23260000  1.0 0.1610417656
H  H350  1  0.79240000  0.19770000  0.73260000  1.0 0.1610417656
H  H351  1  0.29700000  0.31170000  0.23740000  1.0 0.1610417656
H  H352  1  0.70300000  0.18830000  0.73740000  1.0 0.1610417656
C  C1  1  0.71780000  0.37930000  0.01469000  1.0 -0.1944822294
C  C2  1  0.28220000  0.12070000  0.51469000  1.0 -0.1944822294
C  C3  1  0.65920000  0.38260000  0.03654000  1.0 -0.0810402446
C  C4  1  0.34080000  0.11740000  0.53654000  1.0 -0.0810402446
C  C5  1  0.64640000  0.32440000  0.05734000  1.0 -0.1399236617
C  C6  1  0.35360000  0.17560000  0.55734000  1.0 -0.1399236617
C  C7  1  0.69240000  0.26060000  0.05765000  1.0 0.1427855881
C  C8  1  0.30760000  0.23940000  0.55765000  1.0 0.1427855881
C  C9  1  0.75140000  0.25640000  0.03606000  1.0 -0.1481647069
C  C10  1  0.24860000  0.24360000  0.53606000  1.0 -0.1481647069
C  C11  1  0.76420000  0.31560000  0.01483000  1.0 -0.0810402446
C  C12  1  0.23580000  0.18440000  0.51483000  1.0 -0.0810402446
C  C13  1  0.68260000  0.20330000  0.08130000  1.0 -0.0978175412
C  C14  1  0.31740000  0.29670000  0.58130000  1.0 -0.0978175412
C  C15  1  0.67700000  0.16050000  0.10272000  1.0 -0.0978175412
C  C16  1  0.32300000  0.33950000  0.60272000  1.0 -0.0978175412
C  C17  1  0.66990000  0.11010000  0.12907000  1.0 0.1190343506
C  C18  1  0.33010000  0.38990000  0.62907000  1.0 0.1190343506
C  C19  1  0.64620000  0.13850000  0.15825000  1.0 -0.1104251339
C  C20  1  0.35380000  0.36150000  0.65825000  1.0 -0.1104251339
C  C21  1  0.63580000  0.09000000  0.18333000  1.0 -0.1323083653
C  C22  1  0.36420000  0.41000000  0.68333000  1.0 -0.1323083653
C  C23  1  0.64880000  0.01340000  0.18008000  1.0 0.0594686116
C  C24  1  0.35120000  0.48660000  0.68008000  1.0 0.0594686116
C  C25  1  0.67310000  0.98510000  0.15157000  1.0 -0.1399236617
C  C26  1  0.32690000  0.51490000  0.65157000  1.0 -0.1481647069
C  C27  1  0.68400000  0.03300000  0.12623000  1.0 -0.1323083653
C  C28  1  0.31600000  0.46700000  0.62623000  1.0 -0.1323083653
C  C29  1  0.56390000  0.98950000  0.23550000  1.0 -0.4295498093
C  C30  1  0.43610000  0.51050000  0.73550000  1.0 -0.4295498093
C  C31  1  0.76570000  0.54300000  0.01778000  1.0 -0.1944822294
C  C32  1  0.23430000  0.95700000  0.51778000  1.0 -0.1944822294
C  C33  1  0.71750000  0.60540000  0.02173000  1.0 -0.0810402446
C  C34  1  0.28250000  0.89460000  0.52173000  1.0 -0.0810402446
C  C35  1  0.73400000  0.66210000  0.04310000  1.0 -0.1481647069
C  C36  1  0.26600000  0.83790000  0.54310000  1.0 -0.1481647069
C  C37  1  0.79940000  0.65860000  0.06118000  1.0 0.1427855881
C  C38  1  0.20060000  0.84140000  0.56118000  1.0 0.1427855881
C  C39  1  0.84690000  0.59630000  0.05779000  1.0 -0.1481647069
C  C40  1  0.15310000  0.90370000  0.55779000  1.0 -0.1481647069
C  C41  1  0.82960000  0.53970000  0.03640000  1.0 -0.0810402446
C  C42  1  0.17040000  0.96030000  0.53640000  1.0 -0.0810402446
C  C43  1  0.81590000  0.71660000  0.08391000  1.0 -0.1104251339
C  C44  1  0.18410000  0.78340000  0.58391000  1.0 -0.1104251339
C  C45  1  0.82780000  0.76370000  0.10317000  1.0 -0.0978175412
C  C46  1  0.17220000  0.73630000  0.60317000  1.0 -0.0978175412
C  C47  1  0.84010000  0.82030000  0.12717000  1.0 0.1302889168
C  C48  1  0.15990000  0.67970000  0.62717000  1.0 0.1302889168
C  C49  1  0.85030000  0.89530000  0.11948000  1.0 -0.1323083653
C  C50  1  0.14970000  0.60470000  0.61948000  1.0 -0.1323083653
C  C51  1  0.86060000  0.94910000  0.14274000  1.0 -0.1399236617
C  C52  1  0.13940000  0.55090000  0.64274000  1.0 -0.1399236617
C  C53  1  0.86130000  0.92790000  0.17401000  1.0 0.0594686116
C  C54  1  0.13870000  0.57210000  0.67401000  1.0 0.0594686116
C  C55  1  0.85080000  0.85340000  0.18193000  1.0 -0.1399236617
C  C56  1  0.14920000  0.64660000  0.68193000  1.0 -0.1399236617
C  C57  1  0.84030000  0.79950000  0.15881000  1.0 -0.1208309572
C  C58  1  0.15970000  0.70050000  0.65881000  1.0 -0.1208309572
C  C59  1  0.86800000  0.08330000  0.18584000  1.0 -0.4396659754
C  C60  1  0.13200000  0.41670000  0.68584000  1.0 -0.4396659754
C  C61  1  0.65940000  0.49610000  0.96480000  1.0 -0.1998968696
C  C62  1  0.34060000  0.00390000  0.46480000  1.0 -0.1998968696
C  C63  1  0.58590000  0.46540000  0.96507000  1.0 -0.0810402446
C  C64  1  0.41410000  0.03460000  0.46507000  1.0 -0.0810402446
C  C65  1  0.53140000  0.48980000  0.94381000  1.0 -0.1553325278
C  C66  1  0.46860000  0.01020000  0.44381000  1.0 -0.1481647069
C  C67  1  0.54840000  0.54510000  0.92178000  1.0 0.1427855881
C  C68  1  0.45160000  0.95490000  0.42178000  1.0 0.1427855881
C  C69  1  0.62050000  0.57760000  0.92166000  1.0 -0.1481647069
C  C70  1  0.37950000  0.92240000  0.42166000  1.0 -0.1481647069
C  C71  1  0.67470000  0.55270000  0.94284000  1.0 -0.0810402446
C  C72  1  0.32530000  0.94730000  0.44284000  1.0 -0.0810402446
C  C73  1  0.49360000  0.56760000  0.89841000  1.0 -0.0978175412
C  C74  1  0.50640000  0.93240000  0.39841000  1.0 -0.0978175412
C  C75  1  0.44830000  0.58440000  0.87867000  1.0 -0.0884434317
C  C76  1  0.55170000  0.91560000  0.37867000  1.0 -0.0884434317
C  C77  1  0.39100000  0.59940000  0.85554000  1.0 0.1190343506
C  C78  1  0.60900000  0.90060000  0.35554000  1.0 0.1190343506
C  C79  1  0.31570000  0.58480000  0.86252000  1.0 -0.1399236617
C  C80  1  0.68430000  0.91520000  0.36252000  1.0 -0.1399236617
C  C81  1  0.25900000  0.59390000  0.83995000  1.0 -0.1323083653
C  C82  1  0.74100000  0.90610000  0.33995000  1.0 -0.1323083653
C  C83  1  0.27850000  0.61710000  0.81029000  1.0 0.0672238456
C  C84  1  0.72150000  0.88290000  0.31029000  1.0 0.0672238456
C  C85  1  0.35270000  0.63680000  0.80343000  1.0 -0.1399236617
C  C86  1  0.64730000  0.86320000  0.30343000  1.0 -0.1399236617
C  C87  1  0.40870000  0.62780000  0.82614000  1.0 -0.1208309572
C  C88  1  0.59130000  0.87220000  0.32614000  1.0 -0.1208309572
C  C89  1  0.12170000  0.60090000  0.79703000  1.0 -0.4295498093
C  C90  1  0.87830000  0.89910000  0.29703000  1.0 -0.4295498093
C  C91  1  0.82010000  0.44400000  0.96241000  1.0 -0.1998968696
C  C92  1  0.17990000  0.05600000  0.46241000  1.0 -0.1998968696
C  C93  1  0.81300000  0.38470000  0.94095000  1.0 -0.0884434317
C  C94  1  0.18700000  0.11530000  0.44095000  1.0 -0.0884434317
C  C95  1  0.86590000  0.37170000  0.91788000  1.0 -0.1481647069
C  C96  1  0.13410000  0.12830000  0.41788000  1.0 -0.1481647069
C  C97  1  0.92910000  0.41870000  0.91520000  1.0 0.149952228
C  C98  1  0.07090000  0.08130000  0.41520000  1.0 0.149952228
C  C99  1  0.93760000  0.47850000  0.93654000  1.0 -0.1481647069
C  C100  1  0.06240000  0.02150000  0.43654000  1.0 -0.1481647069
C  C101  1  0.88370000  0.49080000  0.95939000  1.0 -0.0810402446
C  C102  1  0.11630000  0.00920000  0.45939000  1.0 -0.0810402446
C  C103  1  0.98400000  0.40810000  0.89059000  1.0 -0.0978175412
C  C104  1  0.01600000  0.09190000  0.39059000  1.0 -0.0978175412
C  C105  1  0.02930000  0.40270000  0.86986000  1.0 -0.0978175412
C  C106  1  0.97070000  0.09730000  0.36986000  1.0 -0.0978175412
C  C107  1  0.08530000  0.39890000  0.84556000  1.0 0.1190343506
C  C108  1  0.91470000  0.10110000  0.34556000  1.0 0.1190343506
C  C109  1  0.06610000  0.37840000  0.81497000  1.0 -0.1208309572
C  C110  1  0.93390000  0.12160000  0.31497000  1.0 -0.1208309572
C  C111  1  0.12070000  0.37670000  0.79170000  1.0 -0.1323083653
C  C112  1  0.87930000  0.12330000  0.29170000  1.0 -0.1323083653
C  C113  1  0.19570000  0.39470000  0.79859000  1.0 0.0594686116
C  C114  1  0.80430000  0.10530000  0.29859000  1.0 0.0594686116
C  C115  1  0.21580000  0.41320000  0.82904000  1.0 -0.1481647069
C  C116  1  0.78420000  0.08680000  0.32904000  1.0 -0.1481647069
C  C117  1  0.16190000  0.41630000  0.85230000  1.0 -0.1399236617
C  C118  1  0.83810000  0.08370000  0.35230000  1.0 -0.1323083653
C  C119  1  0.25200000  0.30910000  0.74816000  1.0 -0.4295498093
C  C120  1  0.74800000  0.19090000  0.24816000  1.0 -0.4295498093
C  C121  1  0.21780000  0.62070000  0.48531000  1.0 -0.1944822294
C  C122  1  0.78220000  0.87930000  0.98531000  1.0 -0.1998968696
C  C123  1  0.15920000  0.61740000  0.46346000  1.0 -0.0810402446
C  C124  1  0.84080000  0.88260000  0.96346000  1.0 -0.0810402446
C  C125  1  0.14640000  0.67560000  0.44266000  1.0 -0.1399236617
C  C126  1  0.85360000  0.82440000  0.94266000  1.0 -0.1399236617
C  C127  1  0.19240000  0.73940000  0.44235000  1.0 0.1427855881
C  C128  1  0.80760000  0.76060000  0.94235000  1.0 0.1427855881
C  C129  1  0.25140000  0.74360000  0.46394000  1.0 -0.1481647069
C  C130  1  0.74860000  0.75640000  0.96394000  1.0 -0.1481647069
C  C131  1  0.26420000  0.68440000  0.48517000  1.0 -0.0810402446
C  C132  1  0.73580000  0.81560000  0.98517000  1.0 -0.0810402446
C  C133  1  0.18260000  0.79670000  0.41870000  1.0 -0.0978175412
C  C134  1  0.81740000  0.70330000  0.91870000  1.0 -0.0978175412
C  C135  1  0.17700000  0.83950000  0.39728000  1.0 -0.0978175412
C  C136  1  0.82300000  0.66050000  0.89728000  1.0 -0.0978175412
C  C137  1  0.16990000  0.88990000  0.37093000  1.0 0.1190343506
C  C138  1  0.83010000  0.61010000  0.87093000  1.0 0.1190343506
C  C139  1  0.14620000  0.86150000  0.34175000  1.0 -0.1104251339
C  C140  1  0.85380000  0.63850000  0.84175000  1.0 -0.1104251339
C  C141  1  0.13580000  0.91000000  0.31667000  1.0 -0.1323083653
C  C142  1  0.86420000  0.59000000  0.81667000  1.0 -0.1323083653
C  C143  1  0.14880000  0.98660000  0.31992000  1.0 0.0594686116
C  C144  1  0.85120000  0.51340000  0.81992000  1.0 0.0594686116
C  C145  1  0.17310000  0.01490000  0.34843000  1.0 -0.1399236617
C  C146  1  0.82690000  0.48510000  0.84843000  1.0 -0.1481647069
C  C147  1  0.18400000  0.96700000  0.37377000  1.0 -0.1323083653
C  C148  1  0.81600000  0.53300000  0.87377000  1.0 -0.1323083653
C  C149  1  0.06390000  0.01050000  0.26450000  1.0 -0.4295498093
C  C150  1  0.93610000  0.48950000  0.76450000  1.0 -0.4295498093
C  C151  1  0.26570000  0.45700000  0.48222000  1.0 -0.1944822294
C  C152  1  0.73430000  0.04300000  0.98222000  1.0 -0.1998968696
C  C153  1  0.21750000  0.39460000  0.47827000  1.0 -0.0810402446
C  C154  1  0.78250000  0.10540000  0.97827000  1.0 -0.0810402446
C  C155  1  0.23400000  0.33790000  0.45690000  1.0 -0.1481647069
C  C156  1  0.76600000  0.16210000  0.95690000  1.0 -0.1481647069
C  C157  1  0.29940000  0.34140000  0.43882000  1.0 0.1427855881
C  C158  1  0.70060000  0.15860000  0.93882000  1.0 0.149952228
C  C159  1  0.34690000  0.40370000  0.44221000  1.0 -0.1481647069
C  C160  1  0.65310000  0.09630000  0.94221000  1.0 -0.1481647069
C  C161  1  0.32960000  0.46030000  0.46360000  1.0 -0.0810402446
C  C162  1  0.67040000  0.03970000  0.96360000  1.0 -0.0810402446
C  C163  1  0.31590000  0.28340000  0.41609000  1.0 -0.1104251339
C  C164  1  0.68410000  0.21660000  0.91609000  1.0 -0.1104251339
C  C165  1  0.32780000  0.23630000  0.39683000  1.0 -0.0978175412
C  C166  1  0.67220000  0.26370000  0.89683000  1.0 -0.0978175412
C  C167  1  0.34010000  0.17970000  0.37283000  1.0 0.1302889168
C  C168  1  0.65990000  0.32030000  0.87283000  1.0 0.1302889168
C  C169  1  0.35030000  0.10470000  0.38052000  1.0 -0.1323083653
C  C170  1  0.64970000  0.39530000  0.88052000  1.0 -0.1323083653
C  C171  1  0.36060000  0.05090000  0.35726000  1.0 -0.1399236617
C  C172  1  0.63940000  0.44910000  0.85726000  1.0 -0.1399236617
C  C173  1  0.36130000  0.07210000  0.32599000  1.0 0.0672238456
C  C174  1  0.63870000  0.42790000  0.82599000  1.0 0.0594686116
C  C175  1  0.35080000  0.14660000  0.31807000  1.0 -0.1399236617
C  C176  1  0.64920000  0.35340000  0.81807000  1.0 -0.1399236617
C  C177  1  0.34030000  0.20050000  0.34119000  1.0 -0.1208309572
C  C178  1  0.65970000  0.29950000  0.84119000  1.0 -0.1208309572
C  C179  1  0.36800000  0.91670000  0.31416000  1.0 -0.4396659754
C  C180  1  0.63200000  0.58330000  0.81416000  1.0 -0.4396659754
C  C181  1  0.15940000  0.50390000  0.53520000  1.0 -0.1998968696
C  C182  1  0.84060000  0.99610000  0.03520000  1.0 -0.1998968696
C  C183  1  0.08590000  0.53460000  0.53493000  1.0 -0.0810402446
C  C184  1  0.91410000  0.96540000  0.03493000  1.0 -0.0810402446
C  C185  1  0.03140000  0.51020000  0.55619000  1.0 -0.1481647069
C  C186  1  0.96860000  0.98980000  0.05619000  1.0 -0.1553325278
C  C187  1  0.04840000  0.45490000  0.57822000  1.0 0.1427855881
C  C188  1  0.95160000  0.04510000  0.07822000  1.0 0.1427855881
C  C189  1  0.12050000  0.42240000  0.57834000  1.0 -0.1481647069
C  C190  1  0.87950000  0.07760000  0.07834000  1.0 -0.1481647069
C  C191  1  0.17470000  0.44730000  0.55716000  1.0 -0.0810402446
C  C192  1  0.82530000  0.05270000  0.05716000  1.0 -0.0810402446
C  C193  1  0.99360000  0.43240000  0.60159000  1.0 -0.0978175412
C  C194  1  0.00640000  0.06760000  0.10159000  1.0 -0.0978175412
C  C195  1  0.94830000  0.41560000  0.62133000  1.0 -0.0884434317
C  C196  1  0.05170000  0.08440000  0.12133000  1.0 -0.0884434317
C  C197  1  0.89100000  0.40060000  0.64446000  1.0 0.1190343506
C  C198  1  0.10900000  0.09940000  0.14446000  1.0 0.1302889168
C  C199  1  0.81570000  0.41520000  0.63748000  1.0 -0.1399236617
C  C200  1  0.18430000  0.08480000  0.13748000  1.0 -0.1399236617
C  C201  1  0.75900000  0.40610000  0.66005000  1.0 -0.1323083653
C  C202  1  0.24100000  0.09390000  0.16005000  1.0 -0.1323083653
C  C203  1  0.77850000  0.38290000  0.68971000  1.0 0.0672238456
C  C204  1  0.22150000  0.11710000  0.18971000  1.0 0.0672238456
C  C205  1  0.85270000  0.36320000  0.69657000  1.0 -0.1399236617
C  C206  1  0.14730000  0.13680000  0.19657000  1.0 -0.1399236617
C  C207  1  0.90870000  0.37220000  0.67386000  1.0 -0.1208309572
C  C208  1  0.09130000  0.12780000  0.17386000  1.0 -0.1208309572
C  C209  1  0.62170000  0.39910000  0.70297000  1.0 -0.4295498093
C  C210  1  0.37830000  0.10090000  0.20297000  1.0 -0.4295498093
C  C211  1  0.32010000  0.55600000  0.53759000  1.0 -0.1998968696
C  C212  1  0.67990000  0.94400000  0.03759000  1.0 -0.1998968696
C  C213  1  0.31300000  0.61530000  0.55905000  1.0 -0.0884434317
C  C214  1  0.68700000  0.88470000  0.05905000  1.0 -0.0884434317
C  C215  1  0.36590000  0.62830000  0.58212000  1.0 -0.1481647069
C  C216  1  0.63410000  0.87170000  0.08212000  1.0 -0.1481647069
C  C217  1  0.42910000  0.58130000  0.58480000  1.0 0.149952228
C  C218  1  0.57090000  0.91870000  0.08480000  1.0 0.149952228
C  C219  1  0.43760000  0.52150000  0.56346000  1.0 -0.1481647069
C  C220  1  0.56240000  0.97850000  0.06346000  1.0 -0.1481647069
C  C221  1  0.38370000  0.50920000  0.54061000  1.0 -0.0810402446
C  C222  1  0.61630000  0.99080000  0.04061000  1.0 -0.0810402446
C  C223  1  0.48400000  0.59190000  0.60941000  1.0 -0.0978175412
C  C224  1  0.51600000  0.90810000  0.10941000  1.0 -0.0978175412
C  C225  1  0.52930000  0.59730000  0.63014000  1.0 -0.0978175412
C  C226  1  0.47070000  0.90270000  0.13014000  1.0 -0.0978175412
C  C227  1  0.58530000  0.60110000  0.65444000  1.0 0.1190343506
C  C228  1  0.41470000  0.89890000  0.15444000  1.0 0.1190343506
C  C229  1  0.56610000  0.62160000  0.68503000  1.0 -0.1208309572
C  C230  1  0.43390000  0.87840000  0.18503000  1.0 -0.1208309572
C  C231  1  0.62070000  0.62330000  0.70830000  1.0 -0.1323083653
C  C232  1  0.37930000  0.87670000  0.20830000  1.0 -0.1323083653
C  C233  1  0.69570000  0.60530000  0.70141000  1.0 0.0594686116
C  C234  1  0.30430000  0.89470000  0.20141000  1.0 0.0594686116
C  C235  1  0.71580000  0.58680000  0.67096000  1.0 -0.1481647069
C  C236  1  0.28420000  0.91320000  0.17096000  1.0 -0.1481647069
C  C237  1  0.66190000  0.58370000  0.64770000  1.0 -0.1323083653
C  C238  1  0.33810000  0.91630000  0.14770000  1.0 -0.1323083653
C  C239  1  0.75200000  0.69090000  0.75184000  1.0 -0.4295498093
C  C240  1  0.24800000  0.80910000  0.25184000  1.0 -0.4295498093
C  C241  1  0.28220000  0.62070000  0.98531000  1.0 -0.1998968696
C  C242  1  0.71780000  0.87930000  0.48531000  1.0 -0.1944822294
C  C243  1  0.34080000  0.61740000  0.96346000  1.0 -0.0810402446
C  C244  1  0.65920000  0.88260000  0.46346000  1.0 -0.0810402446
C  C245  1  0.35360000  0.67560000  0.94266000  1.0 -0.1399236617
C  C246  1  0.64640000  0.82440000  0.44266000  1.0 -0.1399236617
C  C247  1  0.30760000  0.73940000  0.94235000  1.0 0.1427855881
C  C248  1  0.69240000  0.76060000  0.44235000  1.0 0.1427855881
C  C249  1  0.24860000  0.74360000  0.96394000  1.0 -0.1481647069
C  C250  1  0.75140000  0.75640000  0.46394000  1.0 -0.1481647069
C  C251  1  0.23580000  0.68440000  0.98517000  1.0 -0.0810402446
C  C252  1  0.76420000  0.81560000  0.48517000  1.0 -0.0810402446
C  C253  1  0.31740000  0.79670000  0.91870000  1.0 -0.0978175412
C  C254  1  0.68260000  0.70330000  0.41870000  1.0 -0.0978175412
C  C255  1  0.32300000  0.83950000  0.89728000  1.0 -0.0978175412
C  C256  1  0.67700000  0.66050000  0.39728000  1.0 -0.0978175412
C  C257  1  0.33010000  0.88990000  0.87093000  1.0 0.1190343506
C  C258  1  0.66990000  0.61010000  0.37093000  1.0 0.1190343506
C  C259  1  0.35380000  0.86150000  0.84175000  1.0 -0.1104251339
C  C260  1  0.64620000  0.63850000  0.34175000  1.0 -0.1104251339
C  C261  1  0.36420000  0.91000000  0.81667000  1.0 -0.1323083653
C  C262  1  0.63580000  0.59000000  0.31667000  1.0 -0.1323083653
C  C263  1  0.35120000  0.98660000  0.81992000  1.0 0.0594686116
C  C264  1  0.64880000  0.51340000  0.31992000  1.0 0.0594686116
C  C265  1  0.32690000  0.01490000  0.84843000  1.0 -0.1481647069
C  C266  1  0.67310000  0.48510000  0.34843000  1.0 -0.1399236617
C  C267  1  0.31600000  0.96700000  0.87377000  1.0 -0.1323083653
C  C268  1  0.68400000  0.53300000  0.37377000  1.0 -0.1323083653
C  C269  1  0.43610000  0.01050000  0.76450000  1.0 -0.4295498093
C  C270  1  0.56390000  0.48950000  0.26450000  1.0 -0.4295498093
C  C271  1  0.23430000  0.45700000  0.98222000  1.0 -0.1944822294
C  C272  1  0.76570000  0.04300000  0.48222000  1.0 -0.1944822294
C  C273  1  0.28250000  0.39460000  0.97827000  1.0 -0.0810402446
C  C274  1  0.71750000  0.10540000  0.47827000  1.0 -0.0810402446
C  C275  1  0.26600000  0.33790000  0.95690000  1.0 -0.1481647069
C  C276  1  0.73400000  0.16210000  0.45690000  1.0 -0.1481647069
C  C277  1  0.20060000  0.34140000  0.93882000  1.0 0.1427855881
C  C278  1  0.79940000  0.15860000  0.43882000  1.0 0.1427855881
C  C279  1  0.15310000  0.40370000  0.94221000  1.0 -0.1481647069
C  C280  1  0.84690000  0.09630000  0.44221000  1.0 -0.1481647069
C  C281  1  0.17040000  0.46030000  0.96360000  1.0 -0.0810402446
C  C282  1  0.82960000  0.03970000  0.46360000  1.0 -0.0810402446
C  C283  1  0.18410000  0.28340000  0.91609000  1.0 -0.1104251339
C  C284  1  0.81590000  0.21660000  0.41609000  1.0 -0.1104251339
C  C285  1  0.17220000  0.23630000  0.89683000  1.0 -0.0978175412
C  C286  1  0.82780000  0.26370000  0.39683000  1.0 -0.0978175412
C  C287  1  0.15990000  0.17970000  0.87283000  1.0 0.1302889168
C  C288  1  0.84010000  0.32030000  0.37283000  1.0 0.1302889168
C  C289  1  0.14970000  0.10470000  0.88052000  1.0 -0.1323083653
C  C290  1  0.85030000  0.39530000  0.38052000  1.0 -0.1323083653
C  C291  1  0.13940000  0.05090000  0.85726000  1.0 -0.1399236617
C  C292  1  0.86060000  0.44910000  0.35726000  1.0 -0.1399236617
C  C293  1  0.13870000  0.07210000  0.82599000  1.0 0.0594686116
C  C294  1  0.86130000  0.42790000  0.32599000  1.0 0.0594686116
C  C295  1  0.14920000  0.14660000  0.81807000  1.0 -0.1399236617
C  C296  1  0.85080000  0.35340000  0.31807000  1.0 -0.1399236617
C  C297  1  0.15970000  0.20050000  0.84119000  1.0 -0.1208309572
C  C298  1  0.84030000  0.29950000  0.34119000  1.0 -0.1208309572
C  C299  1  0.13200000  0.91670000  0.81416000  1.0 -0.4396659754
C  C300  1  0.86800000  0.58330000  0.31416000  1.0 -0.4396659754
C  C301  1  0.34060000  0.50390000  0.03520000  1.0 -0.1998968696
C  C302  1  0.65940000  0.99610000  0.53520000  1.0 -0.1998968696
C  C303  1  0.41410000  0.53460000  0.03493000  1.0 -0.0810402446
C  C304  1  0.58590000  0.96540000  0.53493000  1.0 -0.0810402446
C  C305  1  0.46860000  0.51020000  0.05619000  1.0 -0.1553325278
C  C306  1  0.53140000  0.98980000  0.55619000  1.0 -0.1553325278
C  C307  1  0.45160000  0.45490000  0.07822000  1.0 0.1427855881
C  C308  1  0.54840000  0.04510000  0.57822000  1.0 0.1427855881
C  C309  1  0.37950000  0.42240000  0.07834000  1.0 -0.1481647069
C  C310  1  0.62050000  0.07760000  0.57834000  1.0 -0.1481647069
C  C311  1  0.32530000  0.44730000  0.05716000  1.0 -0.0810402446
C  C312  1  0.67470000  0.05270000  0.55716000  1.0 -0.0810402446
C  C313  1  0.50640000  0.43240000  0.10159000  1.0 -0.0978175412
C  C314  1  0.49360000  0.06760000  0.60159000  1.0 -0.0978175412
C  C315  1  0.55170000  0.41560000  0.12133000  1.0 -0.0884434317
C  C316  1  0.44830000  0.08440000  0.62133000  1.0 -0.0884434317
C  C317  1  0.60900000  0.40060000  0.14446000  1.0 0.1190343506
C  C318  1  0.39100000  0.09940000  0.64446000  1.0 0.1190343506
C  C319  1  0.68430000  0.41520000  0.13748000  1.0 -0.1399236617
C  C320  1  0.31570000  0.08480000  0.63748000  1.0 -0.1399236617
C  C321  1  0.74100000  0.40610000  0.16005000  1.0 -0.1323083653
C  C322  1  0.25900000  0.09390000  0.66005000  1.0 -0.1323083653
C  C323  1  0.72150000  0.38290000  0.18971000  1.0 0.0672238456
C  C324  1  0.27850000  0.11710000  0.68971000  1.0 0.0672238456
C  C325  1  0.64730000  0.36320000  0.19657000  1.0 -0.1399236617
C  C326  1  0.35270000  0.13680000  0.69657000  1.0 -0.1399236617
C  C327  1  0.59130000  0.37220000  0.17386000  1.0 -0.1208309572
C  C328  1  0.40870000  0.12780000  0.67386000  1.0 -0.1208309572
C  C329  1  0.87830000  0.39910000  0.20297000  1.0 -0.4295498093
C  C330  1  0.12170000  0.10090000  0.70297000  1.0 -0.4295498093
C  C331  1  0.17990000  0.55600000  0.03759000  1.0 -0.1998968696
C  C332  1  0.82010000  0.94400000  0.53759000  1.0 -0.1998968696
C  C333  1  0.18700000  0.61530000  0.05905000  1.0 -0.0884434317
C  C334  1  0.81300000  0.88470000  0.55905000  1.0 -0.0884434317
C  C335  1  0.13410000  0.62830000  0.08212000  1.0 -0.1481647069
C  C336  1  0.86590000  0.87170000  0.58212000  1.0 -0.1481647069
C  C337  1  0.07090000  0.58130000  0.08480000  1.0 0.149952228
C  C338  1  0.92910000  0.91870000  0.58480000  1.0 0.149952228
C  C339  1  0.06240000  0.52150000  0.06346000  1.0 -0.1481647069
C  C340  1  0.93760000  0.97850000  0.56346000  1.0 -0.1481647069
C  C341  1  0.11630000  0.50920000  0.04061000  1.0 -0.0810402446
C  C342  1  0.88370000  0.99080000  0.54061000  1.0 -0.0810402446
C  C343  1  0.01600000  0.59190000  0.10941000  1.0 -0.0978175412
C  C344  1  0.98400000  0.90810000  0.60941000  1.0 -0.0978175412
C  C345  1  0.97070000  0.59730000  0.13014000  1.0 -0.0978175412
C  C346  1  0.02930000  0.90270000  0.63014000  1.0 -0.0978175412
C  C347  1  0.91470000  0.60110000  0.15444000  1.0 0.1190343506
C  C348  1  0.08530000  0.89890000  0.65444000  1.0 0.1190343506
C  C349  1  0.93390000  0.62160000  0.18503000  1.0 -0.1208309572
C  C350  1  0.06610000  0.87840000  0.68503000  1.0 -0.1208309572
C  C351  1  0.87930000  0.62330000  0.20830000  1.0 -0.1323083653
C  C352  1  0.12070000  0.87670000  0.70830000  1.0 -0.1323083653
C  C353  1  0.80430000  0.60530000  0.20141000  1.0 0.0594686116
C  C354  1  0.19570000  0.89470000  0.70141000  1.0 0.0594686116
C  C355  1  0.78420000  0.58680000  0.17096000  1.0 -0.1481647069
C  C356  1  0.21580000  0.91320000  0.67096000  1.0 -0.1481647069
C  C357  1  0.83810000  0.58370000  0.14770000  1.0 -0.1323083653
C  C358  1  0.16190000  0.91630000  0.64770000  1.0 -0.1399236617
C  C359  1  0.74800000  0.69090000  0.25184000  1.0 -0.4295498093
C  C360  1  0.25200000  0.80910000  0.75184000  1.0 -0.4295498093
C  C361  1  0.78220000  0.37930000  0.51469000  1.0 -0.1998968696
C  C362  1  0.21780000  0.12070000  0.01469000  1.0 -0.1944822294
C  C363  1  0.84080000  0.38260000  0.53654000  1.0 -0.0810402446
C  C364  1  0.15920000  0.11740000  0.03654000  1.0 -0.0810402446
C  C365  1  0.85360000  0.32440000  0.55734000  1.0 -0.1399236617
C  C366  1  0.14640000  0.17560000  0.05734000  1.0 -0.1399236617
C  C367  1  0.80760000  0.26060000  0.55765000  1.0 0.1427855881
C  C368  1  0.19240000  0.23940000  0.05765000  1.0 0.1427855881
C  C369  1  0.74860000  0.25640000  0.53606000  1.0 -0.1481647069
C  C370  1  0.25140000  0.24360000  0.03606000  1.0 -0.1481647069
C  C371  1  0.73580000  0.31560000  0.51483000  1.0 -0.0810402446
C  C372  1  0.26420000  0.18440000  0.01483000  1.0 -0.0810402446
C  C373  1  0.81740000  0.20330000  0.58130000  1.0 -0.0978175412
C  C374  1  0.18260000  0.29670000  0.08130000  1.0 -0.0978175412
C  C375  1  0.82300000  0.16050000  0.60272000  1.0 -0.0978175412
C  C376  1  0.17700000  0.33950000  0.10272000  1.0 -0.0978175412
C  C377  1  0.83010000  0.11010000  0.62907000  1.0 0.1190343506
C  C378  1  0.16990000  0.38990000  0.12907000  1.0 0.1190343506
C  C379  1  0.85380000  0.13850000  0.65825000  1.0 -0.1104251339
C  C380  1  0.14620000  0.36150000  0.15825000  1.0 -0.1104251339
C  C381  1  0.86420000  0.09000000  0.68333000  1.0 -0.1323083653
C  C382  1  0.13580000  0.41000000  0.18333000  1.0 -0.1323083653
C  C383  1  0.85120000  0.01340000  0.68008000  1.0 0.0594686116
C  C384  1  0.14880000  0.48660000  0.18008000  1.0 0.0594686116
C  C385  1  0.82690000  0.98510000  0.65157000  1.0 -0.1481647069
C  C386  1  0.17310000  0.51490000  0.15157000  1.0 -0.1399236617
C  C387  1  0.81600000  0.03300000  0.62623000  1.0 -0.1323083653
C  C388  1  0.18400000  0.46700000  0.12623000  1.0 -0.1323083653
C  C389  1  0.93610000  0.98950000  0.73550000  1.0 -0.4295498093
C  C390  1  0.06390000  0.51050000  0.23550000  1.0 -0.4295498093
C  C391  1  0.73430000  0.54300000  0.51778000  1.0 -0.1944822294
C  C392  1  0.26570000  0.95700000  0.01778000  1.0 -0.1944822294
C  C393  1  0.78250000  0.60540000  0.52173000  1.0 -0.0810402446
C  C394  1  0.21750000  0.89460000  0.02173000  1.0 -0.0810402446
C  C395  1  0.76600000  0.66210000  0.54310000  1.0 -0.1481647069
C  C396  1  0.23400000  0.83790000  0.04310000  1.0 -0.1481647069
C  C397  1  0.70060000  0.65860000  0.56118000  1.0 0.1427855881
C  C398  1  0.29940000  0.84140000  0.06118000  1.0 0.1427855881
C  C399  1  0.65310000  0.59630000  0.55779000  1.0 -0.1481647069
C  C400  1  0.34690000  0.90370000  0.05779000  1.0 -0.1481647069
C  C401  1  0.67040000  0.53970000  0.53640000  1.0 -0.0810402446
C  C402  1  0.32960000  0.96030000  0.03640000  1.0 -0.0810402446
C  C403  1  0.68410000  0.71660000  0.58391000  1.0 -0.1104251339
C  C404  1  0.31590000  0.78340000  0.08391000  1.0 -0.1104251339
C  C405  1  0.67220000  0.76370000  0.60317000  1.0 -0.0978175412
C  C406  1  0.32780000  0.73630000  0.10317000  1.0 -0.0978175412
C  C407  1  0.65990000  0.82030000  0.62717000  1.0 0.1302889168
C  C408  1  0.34010000  0.67970000  0.12717000  1.0 0.1302889168
C  C409  1  0.64970000  0.89530000  0.61948000  1.0 -0.1323083653
C  C410  1  0.35030000  0.60470000  0.11948000  1.0 -0.1323083653
C  C411  1  0.63940000  0.94910000  0.64274000  1.0 -0.1399236617
C  C412  1  0.36060000  0.55090000  0.14274000  1.0 -0.1399236617
C  C413  1  0.63870000  0.92790000  0.67401000  1.0 0.0594686116
C  C414  1  0.36130000  0.57210000  0.17401000  1.0 0.0672238456
C  C415  1  0.64920000  0.85340000  0.68193000  1.0 -0.1399236617
C  C416  1  0.35080000  0.64660000  0.18193000  1.0 -0.1399236617
C  C417  1  0.65970000  0.79950000  0.65881000  1.0 -0.1208309572
C  C418  1  0.34030000  0.70050000  0.15881000  1.0 -0.1208309572
C  C419  1  0.63200000  0.08330000  0.68584000  1.0 -0.4396659754
C  C420  1  0.36800000  0.41670000  0.18584000  1.0 -0.4396659754
C  C421  1  0.84060000  0.49610000  0.46480000  1.0 -0.1998968696
C  C422  1  0.15940000  0.00390000  0.96480000  1.0 -0.1998968696
C  C423  1  0.91410000  0.46540000  0.46507000  1.0 -0.0810402446
C  C424  1  0.08590000  0.03460000  0.96507000  1.0 -0.0810402446
C  C425  1  0.96860000  0.48980000  0.44381000  1.0 -0.1553325278
C  C426  1  0.03140000  0.01020000  0.94381000  1.0 -0.1481647069
C  C427  1  0.95160000  0.54510000  0.42178000  1.0 0.1427855881
C  C428  1  0.04840000  0.95490000  0.92178000  1.0 0.1427855881
C  C429  1  0.87950000  0.57760000  0.42166000  1.0 -0.1481647069
C  C430  1  0.12050000  0.92240000  0.92166000  1.0 -0.1481647069
C  C431  1  0.82530000  0.55270000  0.44284000  1.0 -0.0810402446
C  C432  1  0.17470000  0.94730000  0.94284000  1.0 -0.0810402446
C  C433  1  0.00640000  0.56760000  0.39841000  1.0 -0.0978175412
C  C434  1  0.99360000  0.93240000  0.89841000  1.0 -0.0978175412
C  C435  1  0.05170000  0.58440000  0.37867000  1.0 -0.0884434317
C  C436  1  0.94830000  0.91560000  0.87867000  1.0 -0.0884434317
C  C437  1  0.10900000  0.59940000  0.35554000  1.0 0.1302889168
C  C438  1  0.89100000  0.90060000  0.85554000  1.0 0.1190343506
C  C439  1  0.18430000  0.58480000  0.36252000  1.0 -0.1399236617
C  C440  1  0.81570000  0.91520000  0.86252000  1.0 -0.1399236617
C  C441  1  0.24100000  0.59390000  0.33995000  1.0 -0.1323083653
C  C442  1  0.75900000  0.90610000  0.83995000  1.0 -0.1323083653
C  C443  1  0.22150000  0.61710000  0.31029000  1.0 0.0672238456
C  C444  1  0.77850000  0.88290000  0.81029000  1.0 0.0672238456
C  C445  1  0.14730000  0.63680000  0.30343000  1.0 -0.1399236617
C  C446  1  0.85270000  0.86320000  0.80343000  1.0 -0.1399236617
C  C447  1  0.09130000  0.62780000  0.32614000  1.0 -0.1208309572
C  C448  1  0.90870000  0.87220000  0.82614000  1.0 -0.1208309572
C  C449  1  0.37830000  0.60090000  0.29703000  1.0 -0.4295498093
C  C450  1  0.62170000  0.89910000  0.79703000  1.0 -0.4295498093
C  C451  1  0.67990000  0.44400000  0.46241000  1.0 -0.1998968696
C  C452  1  0.32010000  0.05600000  0.96241000  1.0 -0.1998968696
C  C453  1  0.68700000  0.38470000  0.44095000  1.0 -0.0884434317
C  C454  1  0.31300000  0.11530000  0.94095000  1.0 -0.0884434317
C  C455  1  0.63410000  0.37170000  0.41788000  1.0 -0.1481647069
C  C456  1  0.36590000  0.12830000  0.91788000  1.0 -0.1481647069
C  C457  1  0.57090000  0.41870000  0.41520000  1.0 0.149952228
C  C458  1  0.42910000  0.08130000  0.91520000  1.0 0.149952228
C  C459  1  0.56240000  0.47850000  0.43654000  1.0 -0.1481647069
C  C460  1  0.43760000  0.02150000  0.93654000  1.0 -0.1481647069
C  C461  1  0.61630000  0.49080000  0.45939000  1.0 -0.0810402446
C  C462  1  0.38370000  0.00920000  0.95939000  1.0 -0.0810402446
C  C463  1  0.51600000  0.40810000  0.39059000  1.0 -0.0978175412
C  C464  1  0.48400000  0.09190000  0.89059000  1.0 -0.0978175412
C  C465  1  0.47070000  0.40270000  0.36986000  1.0 -0.0978175412
C  C466  1  0.52930000  0.09730000  0.86986000  1.0 -0.0978175412
C  C467  1  0.41470000  0.39890000  0.34556000  1.0 0.1190343506
C  C468  1  0.58530000  0.10110000  0.84556000  1.0 0.1190343506
C  C469  1  0.43390000  0.37840000  0.31497000  1.0 -0.1208309572
C  C470  1  0.56610000  0.12160000  0.81497000  1.0 -0.1208309572
C  C471  1  0.37930000  0.37670000  0.29170000  1.0 -0.1323083653
C  C472  1  0.62070000  0.12330000  0.79170000  1.0 -0.1323083653
C  C473  1  0.30430000  0.39470000  0.29859000  1.0 0.0594686116
C  C474  1  0.69570000  0.10530000  0.79859000  1.0 0.0594686116
C  C475  1  0.28420000  0.41320000  0.32904000  1.0 -0.1481647069
C  C476  1  0.71580000  0.08680000  0.82904000  1.0 -0.1481647069
C  C477  1  0.33810000  0.41630000  0.35230000  1.0 -0.1323083653
C  C478  1  0.66190000  0.08370000  0.85230000  1.0 -0.1323083653
C  C479  1  0.24800000  0.30910000  0.24816000  1.0 -0.4295498093
C  C480  1  0.75200000  0.19090000  0.74816000  1.0 -0.4295498093
S  S1  1  0.63743000  0.94811000  0.21148000  1.0 0.0672238456
S  S2  1  0.36257000  0.55189000  0.71148000  1.0 0.0672238456
S  S3  1  0.87724000  0.99429000  0.20454000  1.0 0.080949893
S  S4  1  0.12276000  0.50571000  0.70454000  1.0 0.080949893
S  S5  1  0.21079000  0.62819000  0.77980000  1.0 0.0594686116
S  S6  1  0.78921000  0.87181000  0.27980000  1.0 0.0594686116
S  S7  1  0.26783000  0.39549000  0.76964000  1.0 0.080949893
S  S8  1  0.73217000  0.10451000  0.26964000  1.0 0.080949893
S  S9  1  0.13743000  0.05189000  0.28852000  1.0 0.0672238456
S  S10  1  0.86257000  0.44811000  0.78852000  1.0 0.0672238456
S  S11  1  0.37724000  0.00571000  0.29546000  1.0 0.080949893
S  S12  1  0.62276000  0.49429000  0.79546000  1.0 0.080949893
S  S13  1  0.71079000  0.37181000  0.72020000  1.0 0.0594686116
S  S14  1  0.28921000  0.12819000  0.22020000  1.0 0.0594686116
S  S15  1  0.76783000  0.60451000  0.73036000  1.0 0.080949893
S  S16  1  0.23217000  0.89549000  0.23036000  1.0 0.080949893
S  S17  1  0.36257000  0.05189000  0.78852000  1.0 0.0672238456
S  S18  1  0.63743000  0.44811000  0.28852000  1.0 0.0672238456
S  S19  1  0.12276000  0.00571000  0.79546000  1.0 0.080949893
S  S20  1  0.87724000  0.49429000  0.29546000  1.0 0.080949893
S  S21  1  0.78921000  0.37181000  0.22020000  1.0 0.0594686116
S  S22  1  0.21079000  0.12819000  0.72020000  1.0 0.0594686116
S  S23  1  0.73217000  0.60451000  0.23036000  1.0 0.080949893
S  S24  1  0.26783000  0.89549000  0.73036000  1.0 0.080949893
S  S25  1  0.86257000  0.94811000  0.71148000  1.0 0.0672238456
S  S26  1  0.13743000  0.55189000  0.21148000  1.0 0.0672238456
S  S27  1  0.62276000  0.99429000  0.70454000  1.0 0.080949893
S  S28  1  0.37724000  0.50571000  0.20454000  1.0 0.080949893
S  S29  1  0.28921000  0.62819000  0.27980000  1.0 0.0594686116
S  S30  1  0.71079000  0.87181000  0.77980000  1.0 0.0594686116
S  S31  1  0.23217000  0.39549000  0.26964000  1.0 0.080949893
S  S32  1  0.76783000  0.10451000  0.76964000  1.0 0.080949893
F  F1  1  0.05610000  0.21440000  0.75649000  1.0 -0.4583430809
F  F2  1  0.04260000  0.27140000  0.71151000  1.0 -0.4396659754
F  F3  1  0.97510000  0.31240000  0.75111000  1.0 -0.4520070252
F  F4  1  0.95160000  0.20350000  0.72861000  1.0 -0.4396659754
F  F5  1  0.94390000  0.28560000  0.25649000  1.0 -0.4583430809
F  F6  1  0.95740000  0.22860000  0.21151000  1.0 -0.4396659754
F  F7  1  0.02490000  0.18760000  0.25111000  1.0 -0.4520070252
F  F8  1  0.04840000  0.29650000  0.22861000  1.0 -0.4396659754
F  F9  1  0.55610000  0.78560000  0.74351000  1.0 -0.4583430809
F  F10  1  0.54260000  0.72860000  0.78849000  1.0 -0.4396659754
F  F11  1  0.47510000  0.68760000  0.74889000  1.0 -0.4520070252
F  F12  1  0.45160000  0.79650000  0.77139000  1.0 -0.4396659754
F  F13  1  0.44390000  0.71440000  0.24351000  1.0 -0.4583430809
F  F14  1  0.45740000  0.77140000  0.28849000  1.0 -0.4396659754
F  F15  1  0.52490000  0.81240000  0.24889000  1.0 -0.4520070252
F  F16  1  0.54840000  0.70350000  0.27139000  1.0 -0.4396659754
F  F17  1  0.94390000  0.78560000  0.24351000  1.0 -0.4583430809
F  F18  1  0.95740000  0.72860000  0.28849000  1.0 -0.4396659754
F  F19  1  0.02490000  0.68760000  0.24889000  1.0 -0.4520070252
F  F20  1  0.04840000  0.79650000  0.27139000  1.0 -0.4396659754
F  F21  1  0.05610000  0.71440000  0.74351000  1.0 -0.4583430809
F  F22  1  0.04260000  0.77140000  0.78849000  1.0 -0.4396659754
F  F23  1  0.97510000  0.81240000  0.74889000  1.0 -0.4520070252
F  F24  1  0.95160000  0.70350000  0.77139000  1.0 -0.4396659754
F  F25  1  0.44390000  0.21440000  0.25649000  1.0 -0.4583430809
F  F26  1  0.45740000  0.27140000  0.21151000  1.0 -0.4396659754
F  F27  1  0.52490000  0.31240000  0.25111000  1.0 -0.4520070252
F  F28  1  0.54840000  0.20350000  0.22861000  1.0 -0.4396659754
F  F29  1  0.55610000  0.28560000  0.75649000  1.0 -0.4583430809
F  F30  1  0.54260000  0.22860000  0.71151000  1.0 -0.4396659754
F  F31  1  0.47510000  0.18760000  0.75111000  1.0 -0.4520070252
F  F32  1  0.45160000  0.29650000  0.72861000  1.0 -0.4396659754
