# DDEC6 charges by PACMAN v1.1 (https://github.com/mtap-research/PACMAN-charge/)
data_PORLEP_ASR_pacman
_symmetry_space_group_name_H-M   'P 1'
_cell_length_a   32.58910000
_cell_length_b   32.58910000
_cell_length_c   15.42720000
_cell_angle_alpha   80.07320000
_cell_angle_beta   99.92680000
_cell_angle_gamma   107.08000000
_symmetry_Int_Tables_number   1
_chemical_formula_structural   Cu13H85C108(IN2)14
_chemical_formula_sum   'Cu52 H340 C432 I56 N112'
_cell_volume   15297.81860046
_cell_formula_units_Z   4
loop_
 _symmetry_equiv_pos_site_id
 _symmetry_equiv_pos_as_xyz
  1  'x, y, z'
loop_
 _atom_site_type_symbol
 _atom_site_label
 _atom_site_symmetry_multiplicity
 _atom_site_fract_x
 _atom_site_fract_y
 _atom_site_fract_z
 _atom_site_occupancy
 _atom_site_charge
Cu  Cu1  1  0.94613000  0.29977000  0.79620000  1.0 0.1488945591
Cu  Cu2  1  0.29977000  0.94613000  0.70380000  1.0 0.1488945591
Cu  Cu3  1  0.05387000  0.70023000  0.20380000  1.0 0.1488945591
Cu  Cu4  1  0.70023000  0.05387000  0.29620000  1.0 0.1488945591
Cu  Cu5  1  0.95714000  0.37010000  0.68000000  1.0 0.1604836029
Cu  Cu6  1  0.37010000  0.95714000  0.82000000  1.0 0.1604836029
Cu  Cu7  1  0.04286000  0.62990000  0.32000000  1.0 0.1604836029
Cu  Cu8  1  0.62990000  0.04286000  0.18000000  1.0 0.1604836029
Cu  Cu9  1  0.95397000  0.29445000  0.62408000  1.0 0.1681472404
Cu  Cu10  1  0.29445000  0.95397000  0.87592000  1.0 0.1681472404
Cu  Cu11  1  0.04603000  0.70555000  0.37592000  1.0 0.1681472404
Cu  Cu12  1  0.70555000  0.04603000  0.12408000  1.0 0.1681472404
Cu  Cu13  1  0.88045000  0.30179000  0.66296000  1.0 0.1681472404
Cu  Cu14  1  0.30179000  0.88045000  0.83704000  1.0 0.1681472404
Cu  Cu15  1  0.11955000  0.69821000  0.33704000  1.0 0.1681472404
Cu  Cu16  1  0.69821000  0.11955000  0.16296000  1.0 0.1681472404
Cu  Cu17  1  0.57852000  0.22464000  0.35230000  1.0 0.1791978192
Cu  Cu18  1  0.22464000  0.57852000  0.14770000  1.0 0.1791978192
Cu  Cu19  1  0.42148000  0.77536000  0.64770000  1.0 0.1791978192
Cu  Cu20  1  0.77536000  0.42148000  0.85230000  1.0 0.1791978192
Cu  Cu21  1  0.88250000  0.93404000  0.72224000  1.0 0.1791978192
Cu  Cu22  1  0.93404000  0.88250000  0.77776000  1.0 0.1791978192
Cu  Cu23  1  0.11750000  0.06596000  0.27776000  1.0 0.1791978192
Cu  Cu24  1  0.06596000  0.11750000  0.22224000  1.0 0.1791978192
Cu  Cu25  1  0.78365000  0.50171000  0.87911000  1.0 0.1488945591
Cu  Cu26  1  0.50171000  0.78365000  0.62089000  1.0 0.1488945591
Cu  Cu27  1  0.21635000  0.49829000  0.12089000  1.0 0.1488945591
Cu  Cu28  1  0.49829000  0.21635000  0.37911000  1.0 0.1488945591
Cu  Cu29  1  0.86236000  0.85638000  0.67070000  1.0 0.1604836029
Cu  Cu30  1  0.85638000  0.86236000  0.82930000  1.0 0.1604836029
Cu  Cu31  1  0.13764000  0.14362000  0.32930000  1.0 0.1604836029
Cu  Cu32  1  0.14362000  0.13764000  0.17070000  1.0 0.1604836029
Cu  Cu33  1  0.51236000  0.22442000  0.21603000  1.0 0.1400222728
Cu  Cu34  1  0.22442000  0.51236000  0.28397000  1.0 0.1400222728
Cu  Cu35  1  0.48764000  0.77558000  0.78397000  1.0 0.1400222728
Cu  Cu36  1  0.77558000  0.48764000  0.71603000  1.0 0.1400222728
Cu  Cu37  1  0.64960000  0.61160000  0.31010000  1.0 0.0696878868
Cu  Cu38  1  0.61160000  0.64960000  0.18990000  1.0 0.0696878868
Cu  Cu39  1  0.35040000  0.38840000  0.68990000  1.0 0.0696878868
Cu  Cu40  1  0.38840000  0.35040000  0.81010000  1.0 0.0696878868
Cu  Cu41  1  0.51691000  0.14897000  0.33271000  1.0 0.1604836029
Cu  Cu42  1  0.14897000  0.51691000  0.16729000  1.0 0.1604836029
Cu  Cu43  1  0.48309000  0.85103000  0.66729000  1.0 0.1604836029
Cu  Cu44  1  0.85103000  0.48309000  0.83271000  1.0 0.1604836029
Cu  Cu45  1  0.66547000  0.69835000  0.30447000  1.0 0.0696878868
Cu  Cu46  1  0.69835000  0.66547000  0.19553000  1.0 0.0696878868
Cu  Cu47  1  0.33453000  0.30165000  0.69553000  1.0 0.0696878868
Cu  Cu48  1  0.30165000  0.33453000  0.80447000  1.0 0.0696878868
Cu  Cu49  1  0.61690000  0.64950000  0.16440000  1.0 0.0393717154
Cu  Cu50  1  0.64950000  0.61690000  0.33560000  1.0 0.0393717154
Cu  Cu51  1  0.38310000  0.35050000  0.83560000  1.0 0.0393717154
Cu  Cu52  1  0.35050000  0.38310000  0.66440000  1.0 0.0393717154
H  H1  1  0.90650000  0.27730000  0.97240000  1.0 0.1011973134
H  H2  1  0.27730000  0.90650000  0.52760000  1.0 0.1011973134
H  H3  1  0.09350000  0.72270000  0.02760000  1.0 0.1011973134
H  H4  1  0.72270000  0.09350000  0.47240000  1.0 0.1011973134
H  H5  1  0.01450000  0.25710000  0.93510000  1.0 0.120808357
H  H6  1  0.25710000  0.01450000  0.56490000  1.0 0.120808357
H  H7  1  0.98550000  0.74290000  0.06490000  1.0 0.120808357
H  H8  1  0.74290000  0.98550000  0.43510000  1.0 0.120808357
H  H9  1  0.91630000  0.44450000  0.62580000  1.0 0.1116542459
H  H10  1  0.44450000  0.91630000  0.87420000  1.0 0.1116542459
H  H11  1  0.08370000  0.55550000  0.37420000  1.0 0.1116542459
H  H12  1  0.55550000  0.08370000  0.12580000  1.0 0.1116542459
H  H13  1  0.04020000  0.45860000  0.67740000  1.0 0.1116542459
H  H14  1  0.45860000  0.04020000  0.82260000  1.0 0.1116542459
H  H15  1  0.95980000  0.54140000  0.32260000  1.0 0.1116542459
H  H16  1  0.54140000  0.95980000  0.17740000  1.0 0.1116542459
H  H17  1  0.99860000  0.22260000  0.08830000  1.0 0.1116542459
H  H18  1  0.22260000  0.99860000  0.41170000  1.0 0.1116542459
H  H19  1  0.00140000  0.77740000  0.91170000  1.0 0.1116542459
H  H20  1  0.77740000  0.00140000  0.58830000  1.0 0.1116542459
H  H21  1  0.03150000  0.53030000  0.61690000  1.0 0.1281891875
H  H22  1  0.53030000  0.03150000  0.88310000  1.0 0.1281891875
H  H23  1  0.96850000  0.46970000  0.38310000  1.0 0.1281891875
H  H24  1  0.46970000  0.96850000  0.11690000  1.0 0.1281891875
H  H25  1  0.79580000  0.32560000  0.68610000  1.0 0.1011973134
H  H26  1  0.32560000  0.79580000  0.81390000  1.0 0.1011973134
H  H27  1  0.20420000  0.67440000  0.31390000  1.0 0.1011973134
H  H28  1  0.67440000  0.20420000  0.18610000  1.0 0.1011973134
H  H29  1  0.80080000  0.23100000  0.56700000  1.0 0.1116542459
H  H30  1  0.23100000  0.80080000  0.93300000  1.0 0.1116542459
H  H31  1  0.19920000  0.76900000  0.43300000  1.0 0.1116542459
H  H32  1  0.76900000  0.19920000  0.06700000  1.0 0.1116542459
H  H33  1  0.72390000  0.22790000  0.55900000  1.0 0.1116542459
H  H34  1  0.22790000  0.72390000  0.94100000  1.0 0.1116542459
H  H35  1  0.27610000  0.77210000  0.44100000  1.0 0.1116542459
H  H36  1  0.77210000  0.27610000  0.05900000  1.0 0.1116542459
H  H37  1  0.86350000  0.23250000  0.07460000  1.0 0.120808357
H  H38  1  0.23250000  0.86350000  0.42540000  1.0 0.120808357
H  H39  1  0.13650000  0.76750000  0.92540000  1.0 0.120808357
H  H40  1  0.76750000  0.13650000  0.57460000  1.0 0.120808357
H  H41  1  0.97540000  0.22900000  0.22890000  1.0 0.120808357
H  H42  1  0.22900000  0.97540000  0.27110000  1.0 0.120808357
H  H43  1  0.02460000  0.77100000  0.77110000  1.0 0.120808357
H  H44  1  0.77100000  0.02460000  0.72890000  1.0 0.120808357
H  H45  1  0.88680000  0.50020000  0.61570000  1.0 0.120808357
H  H46  1  0.50020000  0.88680000  0.88430000  1.0 0.120808357
H  H47  1  0.11320000  0.49980000  0.38430000  1.0 0.120808357
H  H48  1  0.49980000  0.11320000  0.11570000  1.0 0.120808357
H  H49  1  0.99450000  0.57650000  0.52970000  1.0 0.120808357
H  H50  1  0.57650000  0.99450000  0.97030000  1.0 0.120808357
H  H51  1  0.00550000  0.42350000  0.47030000  1.0 0.120808357
H  H52  1  0.42350000  0.00550000  0.02970000  1.0 0.120808357
H  H53  1  0.82790000  0.21070000  0.19830000  1.0 0.120808357
H  H54  1  0.21070000  0.82790000  0.30170000  1.0 0.120808357
H  H55  1  0.17210000  0.78930000  0.80170000  1.0 0.120808357
H  H56  1  0.78930000  0.17210000  0.69830000  1.0 0.120808357
H  H57  1  0.94310000  0.20770000  0.34820000  1.0 0.120808357
H  H58  1  0.20770000  0.94310000  0.15180000  1.0 0.120808357
H  H59  1  0.05690000  0.79230000  0.65180000  1.0 0.120808357
H  H60  1  0.79230000  0.05690000  0.84820000  1.0 0.120808357
H  H61  1  0.84770000  0.54690000  0.53640000  1.0 0.1281891875
H  H62  1  0.54690000  0.84770000  0.96360000  1.0 0.1281891875
H  H63  1  0.15230000  0.45310000  0.46360000  1.0 0.1281891875
H  H64  1  0.45310000  0.15230000  0.03640000  1.0 0.1281891875
H  H65  1  0.95760000  0.62600000  0.45400000  1.0 0.120808357
H  H66  1  0.62600000  0.95760000  0.04600000  1.0 0.120808357
H  H67  1  0.04240000  0.37400000  0.54600000  1.0 0.120808357
H  H68  1  0.37400000  0.04240000  0.95400000  1.0 0.120808357
H  H69  1  0.74340000  0.35680000  0.65880000  1.0 0.120808357
H  H70  1  0.35680000  0.74340000  0.84120000  1.0 0.120808357
H  H71  1  0.25660000  0.64320000  0.34120000  1.0 0.120808357
H  H72  1  0.64320000  0.25660000  0.15880000  1.0 0.120808357
H  H73  1  0.66420000  0.23980000  0.60970000  1.0 0.1281891875
H  H74  1  0.23980000  0.66420000  0.89030000  1.0 0.1281891875
H  H75  1  0.33580000  0.76020000  0.39030000  1.0 0.1281891875
H  H76  1  0.76020000  0.33580000  0.10970000  1.0 0.1281891875
H  H77  1  0.68350000  0.37730000  0.67110000  1.0 0.120808357
H  H78  1  0.37730000  0.68350000  0.82890000  1.0 0.120808357
H  H79  1  0.31650000  0.62270000  0.32890000  1.0 0.120808357
H  H80  1  0.62270000  0.31650000  0.17110000  1.0 0.120808357
H  H81  1  0.60420000  0.26400000  0.61820000  1.0 0.1400222728
H  H82  1  0.26400000  0.60420000  0.88180000  1.0 0.1400222728
H  H83  1  0.39580000  0.73600000  0.38180000  1.0 0.1400222728
H  H84  1  0.73600000  0.39580000  0.11820000  1.0 0.1400222728
H  H85  1  0.85030000  0.27250000  0.34410000  1.0 0.1400222728
H  H86  1  0.27250000  0.85030000  0.15590000  1.0 0.1400222728
H  H87  1  0.14970000  0.72750000  0.65590000  1.0 0.1400222728
H  H88  1  0.72750000  0.14970000  0.84410000  1.0 0.1400222728
H  H89  1  0.78320000  0.15000000  0.39300000  1.0 0.120808357
H  H90  1  0.15000000  0.78320000  0.10700000  1.0 0.120808357
H  H91  1  0.21680000  0.85000000  0.60700000  1.0 0.120808357
H  H92  1  0.85000000  0.21680000  0.89300000  1.0 0.120808357
H  H93  1  0.87030000  0.19150000  0.53640000  1.0 0.1281891875
H  H94  1  0.19150000  0.87030000  0.96360000  1.0 0.1281891875
H  H95  1  0.12970000  0.80850000  0.46360000  1.0 0.1281891875
H  H96  1  0.80850000  0.12970000  0.03640000  1.0 0.1281891875
H  H97  1  0.86980000  0.12320000  0.34660000  1.0 0.120808357
H  H98  1  0.12320000  0.86980000  0.15340000  1.0 0.120808357
H  H99  1  0.13020000  0.87680000  0.65340000  1.0 0.120808357
H  H100  1  0.87680000  0.13020000  0.84660000  1.0 0.120808357
H  H101  1  0.79760000  0.61860000  0.34400000  1.0 0.1011973134
H  H102  1  0.61860000  0.79760000  0.15600000  1.0 0.1011973134
H  H103  1  0.20240000  0.38140000  0.65600000  1.0 0.1011973134
H  H104  1  0.38140000  0.20240000  0.84400000  1.0 0.1011973134
H  H105  1  0.89870000  0.57750000  0.31430000  1.0 0.120808357
H  H106  1  0.57750000  0.89870000  0.18570000  1.0 0.120808357
H  H107  1  0.10130000  0.42250000  0.68570000  1.0 0.1281891875
H  H108  1  0.42250000  0.10130000  0.81430000  1.0 0.1281891875
H  H109  1  0.86530000  0.68930000  0.32900000  1.0 0.120808357
H  H110  1  0.68930000  0.86530000  0.17100000  1.0 0.120808357
H  H111  1  0.13470000  0.31070000  0.67100000  1.0 0.120808357
H  H112  1  0.31070000  0.13470000  0.82900000  1.0 0.120808357
H  H113  1  0.86030000  0.62490000  0.58780000  1.0 0.120808357
H  H114  1  0.62490000  0.86030000  0.91220000  1.0 0.120808357
H  H115  1  0.13970000  0.37510000  0.41220000  1.0 0.120808357
H  H116  1  0.37510000  0.13970000  0.08780000  1.0 0.120808357
H  H117  1  0.78950000  0.29610000  0.33550000  1.0 0.1281891875
H  H118  1  0.29610000  0.78950000  0.16450000  1.0 0.1281891875
H  H119  1  0.21050000  0.70390000  0.66450000  1.0 0.1281891875
H  H120  1  0.70390000  0.21050000  0.83550000  1.0 0.1281891875
H  H121  1  0.72150000  0.17170000  0.39610000  1.0 0.1116542459
H  H122  1  0.17170000  0.72150000  0.10390000  1.0 0.1116542459
H  H123  1  0.27850000  0.82830000  0.60390000  1.0 0.1116542459
H  H124  1  0.82830000  0.27850000  0.89610000  1.0 0.1116542459
H  H125  1  0.88060000  0.13580000  0.64060000  1.0 0.120808357
H  H126  1  0.13580000  0.88060000  0.85940000  1.0 0.120808357
H  H127  1  0.11940000  0.86420000  0.35940000  1.0 0.120808357
H  H128  1  0.86420000  0.11940000  0.14060000  1.0 0.120808357
H  H129  1  0.87760000  0.06460000  0.45710000  1.0 0.120808357
H  H130  1  0.06460000  0.87760000  0.04290000  1.0 0.120808357
H  H131  1  0.12240000  0.93540000  0.54290000  1.0 0.120808357
H  H132  1  0.93540000  0.12240000  0.95710000  1.0 0.120808357
H  H133  1  0.75850000  0.58930000  0.21720000  1.0 0.1116542459
H  H134  1  0.58930000  0.75850000  0.28280000  1.0 0.1116542459
H  H135  1  0.24150000  0.41070000  0.78280000  1.0 0.1116542459
H  H136  1  0.41070000  0.24150000  0.71720000  1.0 0.1116542459
H  H137  1  0.86260000  0.55220000  0.18410000  1.0 0.1281891875
H  H138  1  0.55220000  0.86260000  0.31590000  1.0 0.1281891875
H  H139  1  0.13740000  0.44780000  0.81590000  1.0 0.1281891875
H  H140  1  0.44780000  0.13740000  0.68410000  1.0 0.1281891875
H  H141  1  0.84950000  0.74690000  0.37640000  1.0 0.1281891875
H  H142  1  0.74690000  0.84950000  0.12360000  1.0 0.1281891875
H  H143  1  0.15050000  0.25310000  0.62360000  1.0 0.1281891875
H  H144  1  0.25310000  0.15050000  0.87640000  1.0 0.1281891875
H  H145  1  0.84300000  0.68500000  0.62270000  1.0 0.1281891875
H  H146  1  0.68500000  0.84300000  0.87730000  1.0 0.1281891875
H  H147  1  0.15700000  0.31500000  0.37730000  1.0 0.1281891875
H  H148  1  0.31500000  0.15700000  0.12270000  1.0 0.1281891875
H  H149  1  0.62240000  0.29240000  0.80070000  1.0 0.1116542459
H  H150  1  0.29240000  0.62240000  0.69930000  1.0 0.1116542459
H  H151  1  0.37760000  0.70760000  0.19930000  1.0 0.1116542459
H  H152  1  0.70760000  0.37760000  0.30070000  1.0 0.1116542459
H  H153  1  0.52940000  0.34840000  0.68100000  1.0 0.120808357
H  H154  1  0.34840000  0.52940000  0.81900000  1.0 0.120808357
H  H155  1  0.47060000  0.65160000  0.31900000  1.0 0.120808357
H  H156  1  0.65160000  0.47060000  0.18100000  1.0 0.120808357
H  H157  1  0.59260000  0.34520000  0.49150000  1.0 0.1281891875
H  H158  1  0.34520000  0.59260000  0.00850000  1.0 0.1281891875
H  H159  1  0.40740000  0.65480000  0.50850000  1.0 0.1281891875
H  H160  1  0.65480000  0.40740000  0.99150000  1.0 0.1281891875
H  H161  1  0.60480000  0.41620000  0.69050000  1.0 0.1281891875
H  H162  1  0.41620000  0.60480000  0.80950000  1.0 0.1281891875
H  H163  1  0.39520000  0.58380000  0.30950000  1.0 0.1281891875
H  H164  1  0.58380000  0.39520000  0.19050000  1.0 0.1281891875
H  H165  1  0.58550000  0.27030000  0.92780000  1.0 0.120808357
H  H166  1  0.27030000  0.58550000  0.57220000  1.0 0.120808357
H  H167  1  0.41450000  0.72970000  0.07220000  1.0 0.120808357
H  H168  1  0.72970000  0.41450000  0.42780000  1.0 0.120808357
H  H169  1  0.49110000  0.32210000  0.80270000  1.0 0.1116542459
H  H170  1  0.32210000  0.49110000  0.69730000  1.0 0.1116542459
H  H171  1  0.50890000  0.67790000  0.19730000  1.0 0.1116542459
H  H172  1  0.67790000  0.50890000  0.30270000  1.0 0.1116542459
H  H173  1  0.59520000  0.40720000  0.38780000  1.0 0.120808357
H  H174  1  0.40720000  0.59520000  0.11220000  1.0 0.120808357
H  H175  1  0.40480000  0.59280000  0.61220000  1.0 0.120808357
H  H176  1  0.59280000  0.40480000  0.88780000  1.0 0.120808357
H  H177  1  0.60740000  0.47820000  0.58690000  1.0 0.1281891875
H  H178  1  0.47820000  0.60740000  0.91310000  1.0 0.1281891875
H  H179  1  0.39260000  0.52180000  0.41310000  1.0 0.1281891875
H  H180  1  0.52180000  0.39260000  0.08690000  1.0 0.1281891875
H  H181  1  0.66110000  0.19410000  0.35850000  1.0 0.1011973134
H  H182  1  0.19410000  0.66110000  0.14150000  1.0 0.1011973134
H  H183  1  0.33890000  0.80590000  0.64150000  1.0 0.1011973134
H  H184  1  0.80590000  0.33890000  0.85850000  1.0 0.1011973134
H  H185  1  0.73490000  0.31530000  0.38320000  1.0 0.120808357
H  H186  1  0.31530000  0.73490000  0.11680000  1.0 0.120808357
H  H187  1  0.26510000  0.68470000  0.61680000  1.0 0.120808357
H  H188  1  0.68470000  0.26510000  0.88320000  1.0 0.120808357
H  H189  1  0.87750000  0.01410000  0.56230000  1.0 0.1116542459
H  H190  1  0.01410000  0.87750000  0.93770000  1.0 0.1116542459
H  H191  1  0.12250000  0.98590000  0.43770000  1.0 0.1116542459
H  H192  1  0.98590000  0.12250000  0.06230000  1.0 0.1116542459
H  H193  1  0.90760000  0.09080000  0.73940000  1.0 0.120808357
H  H194  1  0.09080000  0.90760000  0.76060000  1.0 0.120808357
H  H195  1  0.09240000  0.90920000  0.26060000  1.0 0.120808357
H  H196  1  0.90920000  0.09240000  0.23940000  1.0 0.120808357
H  H197  1  0.83100000  0.56240000  0.02670000  1.0 0.1011973134
H  H198  1  0.56240000  0.83100000  0.47330000  1.0 0.1011973134
H  H199  1  0.16900000  0.43760000  0.97330000  1.0 0.1011973134
H  H200  1  0.43760000  0.16900000  0.52670000  1.0 0.1011973134
H  H201  1  0.72070000  0.52710000  0.13420000  1.0 0.1116542459
H  H202  1  0.52710000  0.72070000  0.36580000  1.0 0.1116542459
H  H203  1  0.27930000  0.47290000  0.86580000  1.0 0.1116542459
H  H204  1  0.47290000  0.27930000  0.63420000  1.0 0.1116542459
H  H205  1  0.77790000  0.76350000  0.43620000  1.0 0.120808357
H  H206  1  0.76350000  0.77790000  0.06380000  1.0 0.120808357
H  H207  1  0.22210000  0.23650000  0.56380000  1.0 0.120808357
H  H208  1  0.23650000  0.22210000  0.93620000  1.0 0.120808357
H  H209  1  0.87790000  0.77290000  0.62230000  1.0 0.1011973134
H  H210  1  0.77290000  0.87790000  0.87770000  1.0 0.1011973134
H  H211  1  0.12210000  0.22710000  0.37770000  1.0 0.1011973134
H  H212  1  0.22710000  0.12210000  0.12230000  1.0 0.1011973134
H  H213  1  0.65820000  0.31100000  0.39100000  1.0 0.120808357
H  H214  1  0.31100000  0.65820000  0.10900000  1.0 0.120808357
H  H215  1  0.34180000  0.68900000  0.60900000  1.0 0.120808357
H  H216  1  0.68900000  0.34180000  0.89100000  1.0 0.120808357
H  H217  1  0.88930000  0.01350000  0.82590000  1.0 0.120808357
H  H218  1  0.01350000  0.88930000  0.67410000  1.0 0.120808357
H  H219  1  0.11070000  0.98650000  0.17410000  1.0 0.120808357
H  H220  1  0.98650000  0.11070000  0.32590000  1.0 0.120808357
H  H221  1  0.70920000  0.49880000  0.98620000  1.0 0.1116542459
H  H222  1  0.49880000  0.70920000  0.51380000  1.0 0.1116542459
H  H223  1  0.29080000  0.50120000  0.01380000  1.0 0.1116542459
H  H224  1  0.50120000  0.29080000  0.48620000  1.0 0.1116542459
H  H225  1  0.77590000  0.81850000  0.53080000  1.0 0.1116542459
H  H226  1  0.81850000  0.77590000  0.96920000  1.0 0.1116542459
H  H227  1  0.22410000  0.18150000  0.46920000  1.0 0.1116542459
H  H228  1  0.18150000  0.22410000  0.03080000  1.0 0.1116542459
H  H229  1  0.55800000  0.26940000  0.05450000  1.0 0.1011973134
H  H230  1  0.26940000  0.55800000  0.44550000  1.0 0.1011973134
H  H231  1  0.44200000  0.73060000  0.94550000  1.0 0.1011973134
H  H232  1  0.73060000  0.44200000  0.55450000  1.0 0.1011973134
H  H233  1  0.44550000  0.26650000  0.90210000  1.0 0.120808357
H  H234  1  0.26650000  0.44550000  0.59790000  1.0 0.120808357
H  H235  1  0.55450000  0.73350000  0.09790000  1.0 0.120808357
H  H236  1  0.73350000  0.55450000  0.40210000  1.0 0.120808357
H  H237  1  0.64290000  0.53230000  0.47420000  1.0 0.1116542459
H  H238  1  0.53230000  0.64290000  0.02580000  1.0 0.1116542459
H  H239  1  0.35710000  0.46770000  0.52580000  1.0 0.1116542459
H  H240  1  0.46770000  0.35710000  0.97420000  1.0 0.1116542459
H  H241  1  0.43470000  0.23770000  0.05480000  1.0 0.120808357
H  H242  1  0.23770000  0.43470000  0.44520000  1.0 0.120808357
H  H243  1  0.56530000  0.76230000  0.94520000  1.0 0.120808357
H  H244  1  0.76230000  0.56530000  0.55480000  1.0 0.120808357
H  H245  1  0.57180000  0.53620000  0.22740000  1.0 0.1116542459
H  H246  1  0.53620000  0.57180000  0.27260000  1.0 0.1116542459
H  H247  1  0.42820000  0.46380000  0.77260000  1.0 0.1116542459
H  H248  1  0.46380000  0.42820000  0.72740000  1.0 0.1116542459
H  H249  1  0.56500000  0.08640000  0.44450000  1.0 0.1116542459
H  H250  1  0.08640000  0.56500000  0.05550000  1.0 0.1116542459
H  H251  1  0.43500000  0.91360000  0.55550000  1.0 0.1116542459
H  H252  1  0.91360000  0.43500000  0.94450000  1.0 0.1116542459
H  H253  1  0.46170000  0.05270000  0.26980000  1.0 0.1116542459
H  H254  1  0.05270000  0.46170000  0.23020000  1.0 0.1116542459
H  H255  1  0.53830000  0.94730000  0.73020000  1.0 0.1116542459
H  H256  1  0.94730000  0.53830000  0.76980000  1.0 0.1116542459
H  H257  1  0.48580000  0.98660000  0.32250000  1.0 0.120808357
H  H258  1  0.98660000  0.48580000  0.17750000  1.0 0.120808357
H  H259  1  0.51420000  0.01340000  0.67750000  1.0 0.120808357
H  H260  1  0.01340000  0.51420000  0.82250000  1.0 0.120808357
H  H261  1  0.51350000  0.94190000  0.44830000  1.0 0.120808357
H  H262  1  0.94190000  0.51350000  0.05170000  1.0 0.120808357
H  H263  1  0.48650000  0.05810000  0.55170000  1.0 0.120808357
H  H264  1  0.05810000  0.48650000  0.94830000  1.0 0.120808357
H  H265  1  0.61620000  0.04900000  0.47490000  1.0 0.120808357
H  H266  1  0.04900000  0.61620000  0.02510000  1.0 0.120808357
H  H267  1  0.38380000  0.95100000  0.52510000  1.0 0.120808357
H  H268  1  0.95100000  0.38380000  0.97490000  1.0 0.120808357
H  H269  1  0.55800000  0.89780000  0.52300000  1.0 0.120808357
H  H270  1  0.89780000  0.55800000  0.97700000  1.0 0.120808357
H  H271  1  0.44200000  0.10220000  0.47700000  1.0 0.120808357
H  H272  1  0.10220000  0.44200000  0.02300000  1.0 0.120808357
H  H273  1  0.65820000  0.00480000  0.54580000  1.0 0.120808357
H  H274  1  0.00480000  0.65820000  0.95420000  1.0 0.120808357
H  H275  1  0.34180000  0.99520000  0.45420000  1.0 0.120808357
H  H276  1  0.99520000  0.34180000  0.04580000  1.0 0.120808357
H  H277  1  0.60750000  0.95070000  0.70690000  1.0 0.120808357
H  H278  1  0.95070000  0.60750000  0.79310000  1.0 0.120808357
H  H279  1  0.39250000  0.04930000  0.29310000  1.0 0.120808357
H  H280  1  0.04930000  0.39250000  0.20690000  1.0 0.120808357
H  H281  1  0.71670000  0.92070000  0.68640000  1.0 0.120808357
H  H282  1  0.92070000  0.71670000  0.81360000  1.0 0.120808357
H  H283  1  0.28330000  0.07930000  0.31360000  1.0 0.120808357
H  H284  1  0.07930000  0.28330000  0.18640000  1.0 0.120808357
H  H285  1  0.65910000  0.84990000  0.66140000  1.0 0.1281891875
H  H286  1  0.84990000  0.65910000  0.83860000  1.0 0.1281891875
H  H287  1  0.34090000  0.15010000  0.33860000  1.0 0.1281891875
H  H288  1  0.15010000  0.34090000  0.16140000  1.0 0.1281891875
H  H289  1  0.64880000  0.92940000  0.43530000  1.0 0.120808357
H  H290  1  0.92940000  0.64880000  0.06470000  1.0 0.120808357
H  H291  1  0.35120000  0.07060000  0.56470000  1.0 0.120808357
H  H292  1  0.07060000  0.35120000  0.93530000  1.0 0.120808357
H  H293  1  0.63460000  0.96820000  0.84580000  1.0 0.120808357
H  H294  1  0.96820000  0.63460000  0.65420000  1.0 0.120808357
H  H295  1  0.36540000  0.03180000  0.15420000  1.0 0.120808357
H  H296  1  0.03180000  0.36540000  0.34580000  1.0 0.120808357
H  H297  1  0.74710000  0.94650000  0.82160000  1.0 0.120808357
H  H298  1  0.94650000  0.74710000  0.67840000  1.0 0.120808357
H  H299  1  0.25290000  0.05350000  0.17840000  1.0 0.120808357
H  H300  1  0.05350000  0.25290000  0.32160000  1.0 0.120808357
H  H301  1  0.67680000  0.80220000  0.58340000  1.0 0.1281891875
H  H302  1  0.80220000  0.67680000  0.91660000  1.0 0.1281891875
H  H303  1  0.32320000  0.19780000  0.41660000  1.0 0.1281891875
H  H304  1  0.19780000  0.32320000  0.08340000  1.0 0.1281891875
H  H305  1  0.66800000  0.88280000  0.35860000  1.0 0.1281891875
H  H306  1  0.88280000  0.66800000  0.14140000  1.0 0.1281891875
H  H307  1  0.33200000  0.11720000  0.64140000  1.0 0.1281891875
H  H308  1  0.11720000  0.33200000  0.85860000  1.0 0.1281891875
H  H309  1  0.67880000  0.02320000  0.92640000  1.0 0.1116542459
H  H310  1  0.02320000  0.67880000  0.57360000  1.0 0.1116542459
H  H311  1  0.32120000  0.97680000  0.07360000  1.0 0.1116542459
H  H312  1  0.97680000  0.32120000  0.42640000  1.0 0.1116542459
H  H313  1  0.75840000  0.94260000  0.98510000  1.0 0.1116542459
H  H314  1  0.94260000  0.75840000  0.51490000  1.0 0.120808357
H  H315  1  0.24160000  0.05740000  0.01490000  1.0 0.120808357
H  H316  1  0.05740000  0.24160000  0.48510000  1.0 0.120808357
H  H317  1  0.64850000  0.75330000  0.44570000  1.0 0.1011973134
H  H318  1  0.75330000  0.64850000  0.05430000  1.0 0.1011973134
H  H319  1  0.35150000  0.24670000  0.55430000  1.0 0.1011973134
H  H320  1  0.24670000  0.35150000  0.94570000  1.0 0.1011973134
H  H321  1  0.73690000  0.85430000  0.34420000  1.0 0.1281891875
H  H322  1  0.85430000  0.73690000  0.15580000  1.0 0.1281891875
H  H323  1  0.26310000  0.14570000  0.65580000  1.0 0.1281891875
H  H324  1  0.14570000  0.26310000  0.84420000  1.0 0.1281891875
H  H325  1  0.77040000  0.98500000  0.11480000  1.0 0.120808357
H  H326  1  0.98500000  0.77040000  0.38520000  1.0 0.120808357
H  H327  1  0.22960000  0.01500000  0.88520000  1.0 0.120808357
H  H328  1  0.01500000  0.22960000  0.61480000  1.0 0.120808357
H  H329  1  0.73320000  0.79300000  0.27230000  1.0 0.1116542459
H  H330  1  0.79300000  0.73320000  0.22770000  1.0 0.1116542459
H  H331  1  0.26680000  0.20700000  0.72770000  1.0 0.1116542459
H  H332  1  0.20700000  0.26680000  0.77230000  1.0 0.1116542459
H  H333  1  0.54050000  0.47330000  0.33350000  1.0 0.1281891875
H  H334  1  0.47330000  0.54050000  0.16650000  1.0 0.1281891875
H  H335  1  0.45950000  0.52670000  0.66650000  1.0 0.1281891875
H  H336  1  0.52670000  0.45950000  0.83350000  1.0 0.1281891875
H  H337  1  0.57800000  0.46300000  0.29280000  1.0 0.1116542459
H  H338  1  0.46300000  0.57800000  0.20720000  1.0 0.1116542459
H  H339  1  0.42200000  0.53700000  0.70720000  1.0 0.1116542459
H  H340  1  0.53700000  0.42200000  0.79280000  1.0 0.1116542459
C  C1  1  0.93230000  0.26830000  0.98250000  1.0 0.0897313913
C  C2  1  0.26830000  0.93230000  0.51750000  1.0 0.0897313913
C  C3  1  0.06770000  0.73170000  0.01750000  1.0 0.0897313913
C  C4  1  0.73170000  0.06770000  0.48250000  1.0 0.0897313913
C  C5  1  0.99030000  0.25710000  0.96170000  1.0 -0.0286082871
C  C6  1  0.25710000  0.99030000  0.53830000  1.0 -0.0286082871
C  C7  1  0.00970000  0.74290000  0.03830000  1.0 -0.0286082871
C  C8  1  0.74290000  0.00970000  0.46170000  1.0 -0.0286082871
C  C9  1  0.94660000  0.45740000  0.63130000  1.0 0.0897313913
C  C10  1  0.45740000  0.94660000  0.86870000  1.0 0.0897313913
C  C11  1  0.05340000  0.54260000  0.36870000  1.0 0.0897313913
C  C12  1  0.54260000  0.05340000  0.13130000  1.0 0.0897313913
C  C13  1  0.01300000  0.46460000  0.65850000  1.0 -0.0191456458
C  C14  1  0.46460000  0.01300000  0.84150000  1.0 -0.0191456458
C  C15  1  0.98700000  0.53540000  0.34150000  1.0 -0.0191456458
C  C16  1  0.53540000  0.98700000  0.15850000  1.0 -0.0191456458
C  C17  1  0.98180000  0.23840000  0.04710000  1.0 -0.1107184273
C  C18  1  0.23840000  0.98180000  0.45290000  1.0 -0.1107184273
C  C19  1  0.01820000  0.76160000  0.95290000  1.0 -0.1107184273
C  C20  1  0.76160000  0.01820000  0.54710000  1.0 -0.1107184273
C  C21  1  0.00880000  0.50460000  0.62640000  1.0 -0.1507662747
C  C22  1  0.50460000  0.00880000  0.87360000  1.0 -0.1507662747
C  C23  1  0.99120000  0.49540000  0.37360000  1.0 -0.1507662747
C  C24  1  0.49540000  0.99120000  0.12640000  1.0 -0.1507662747
C  C25  1  0.78760000  0.30140000  0.65410000  1.0 0.1011973134
C  C26  1  0.30140000  0.78760000  0.84590000  1.0 0.1011973134
C  C27  1  0.21240000  0.69860000  0.34590000  1.0 0.1011973134
C  C28  1  0.69860000  0.21240000  0.15410000  1.0 0.1011973134
C  C29  1  0.79030000  0.25050000  0.59070000  1.0 -0.0400491792
C  C30  1  0.25050000  0.79030000  0.90930000  1.0 -0.0400491792
C  C31  1  0.20970000  0.74950000  0.40930000  1.0 -0.0400491792
C  C32  1  0.74950000  0.20970000  0.09070000  1.0 -0.0400491792
C  C33  1  0.92500000  0.23400000  0.13870000  1.0 0.120808357
C  C34  1  0.23400000  0.92500000  0.36130000  1.0 0.120808357
C  C35  1  0.07500000  0.76600000  0.86130000  1.0 0.120808357
C  C36  1  0.76600000  0.07500000  0.63870000  1.0 0.120808357
C  C37  1  0.94200000  0.53220000  0.57160000  1.0 0.1400222728
C  C38  1  0.53220000  0.94200000  0.92840000  1.0 0.1400222728
C  C39  1  0.05800000  0.46780000  0.42840000  1.0 0.1400222728
C  C40  1  0.46780000  0.05800000  0.07160000  1.0 0.1400222728
C  C41  1  0.74790000  0.24850000  0.58520000  1.0 -0.1204272274
C  C42  1  0.24850000  0.74790000  0.91480000  1.0 -0.1204272274
C  C43  1  0.25210000  0.75150000  0.41480000  1.0 -0.1204272274
C  C44  1  0.75150000  0.25210000  0.08520000  1.0 -0.1204272274
C  C45  1  0.87930000  0.22770000  0.13130000  1.0 -0.1711016124
C  C46  1  0.22770000  0.87930000  0.36870000  1.0 -0.1711016124
C  C47  1  0.12070000  0.77230000  0.86870000  1.0 -0.1711016124
C  C48  1  0.77230000  0.12070000  0.63130000  1.0 -0.1711016124
C  C49  1  0.94520000  0.22560000  0.22240000  1.0 -0.1424097742
C  C50  1  0.22560000  0.94520000  0.27760000  1.0 -0.1424097742
C  C51  1  0.05480000  0.77440000  0.77760000  1.0 -0.1424097742
C  C52  1  0.77440000  0.05480000  0.72240000  1.0 -0.1424097742
C  C53  1  0.90090000  0.52490000  0.57850000  1.0 -0.1606904629
C  C54  1  0.52490000  0.90090000  0.92150000  1.0 -0.1606904629
C  C55  1  0.09910000  0.47510000  0.42150000  1.0 -0.1606904629
C  C56  1  0.47510000  0.09910000  0.07850000  1.0 -0.1606904629
C  C57  1  0.96410000  0.57010000  0.52850000  1.0 -0.1711016124
C  C58  1  0.57010000  0.96410000  0.97150000  1.0 -0.1711016124
C  C59  1  0.03590000  0.42990000  0.47150000  1.0 -0.1711016124
C  C60  1  0.42990000  0.03590000  0.02850000  1.0 -0.1711016124
C  C61  1  0.70990000  0.29610000  0.63230000  1.0 0.1400222728
C  C62  1  0.29610000  0.70990000  0.86770000  1.0 0.1400222728
C  C63  1  0.29010000  0.70390000  0.36770000  1.0 0.1400222728
C  C64  1  0.70390000  0.29010000  0.13230000  1.0 0.1400222728
C  C65  1  0.85840000  0.21500000  0.20400000  1.0 -0.1606904629
C  C66  1  0.21500000  0.85840000  0.29600000  1.0 -0.1606904629
C  C67  1  0.14160000  0.78500000  0.79600000  1.0 -0.1606904629
C  C68  1  0.78500000  0.14160000  0.70400000  1.0 -0.1606904629
C  C69  1  0.92650000  0.21330000  0.29270000  1.0 -0.1507662747
C  C70  1  0.21330000  0.92650000  0.20730000  1.0 -0.1507662747
C  C71  1  0.07350000  0.78670000  0.70730000  1.0 -0.1507662747
C  C72  1  0.78670000  0.07350000  0.79270000  1.0 -0.1507662747
C  C73  1  0.87770000  0.55290000  0.53230000  1.0 -0.1711016124
C  C74  1  0.55290000  0.87770000  0.96770000  1.0 -0.1711016124
C  C75  1  0.12230000  0.44710000  0.46770000  1.0 -0.1711016124
C  C76  1  0.44710000  0.12230000  0.03230000  1.0 -0.1711016124
C  C77  1  0.94220000  0.59920000  0.48330000  1.0 -0.1711016124
C  C78  1  0.59920000  0.94220000  0.01670000  1.0 -0.1711016124
C  C79  1  0.05780000  0.40080000  0.51670000  1.0 -0.1711016124
C  C80  1  0.40080000  0.05780000  0.98330000  1.0 -0.1711016124
C  C81  1  0.71530000  0.33730000  0.65080000  1.0 -0.1606904629
C  C82  1  0.33730000  0.71530000  0.84920000  1.0 -0.1606904629
C  C83  1  0.28470000  0.66270000  0.34920000  1.0 -0.1606904629
C  C84  1  0.66270000  0.28470000  0.15080000  1.0 -0.1606904629
C  C85  1  0.66840000  0.26860000  0.62130000  1.0 -0.1801615254
C  C86  1  0.26860000  0.66840000  0.87870000  1.0 -0.1801615254
C  C87  1  0.33160000  0.73140000  0.37870000  1.0 -0.1801615254
C  C88  1  0.73140000  0.33160000  0.12130000  1.0 -0.1801615254
C  C89  1  0.88240000  0.20820000  0.28920000  1.0 0.1681472404
C  C90  1  0.20820000  0.88240000  0.21080000  1.0 0.1681472404
C  C91  1  0.11760000  0.79180000  0.71080000  1.0 0.1681472404
C  C92  1  0.79180000  0.11760000  0.78920000  1.0 0.1681472404
C  C93  1  0.89760000  0.58920000  0.48070000  1.0 0.1681472404
C  C94  1  0.58920000  0.89760000  0.01930000  1.0 0.1681472404
C  C95  1  0.10240000  0.41080000  0.51930000  1.0 0.1681472404
C  C96  1  0.41080000  0.10240000  0.98070000  1.0 0.1681472404
C  C97  1  0.67980000  0.34900000  0.65720000  1.0 -0.1711016124
C  C98  1  0.34900000  0.67980000  0.84280000  1.0 -0.1711016124
C  C99  1  0.32020000  0.65100000  0.34280000  1.0 -0.1711016124
C  C100  1  0.65100000  0.32020000  0.15720000  1.0 -0.1711016124
C  C101  1  0.63250000  0.28290000  0.62710000  1.0 -0.1606904629
C  C102  1  0.28290000  0.63250000  0.87290000  1.0 -0.1606904629
C  C103  1  0.36750000  0.71710000  0.37290000  1.0 -0.1606904629
C  C104  1  0.71710000  0.36750000  0.12710000  1.0 -0.1606904629
C  C105  1  0.63760000  0.32200000  0.64460000  1.0 0.1400222728
C  C106  1  0.32200000  0.63760000  0.85540000  1.0 0.1400222728
C  C107  1  0.36240000  0.67800000  0.35540000  1.0 0.1400222728
C  C108  1  0.67800000  0.36240000  0.14460000  1.0 0.1400222728
C  C109  1  0.82240000  0.21020000  0.36620000  1.0 0.1488945591
C  C110  1  0.21020000  0.82240000  0.13380000  1.0 0.1488945591
C  C111  1  0.17760000  0.78980000  0.63380000  1.0 0.1488945591
C  C112  1  0.78980000  0.17760000  0.86620000  1.0 0.1488945591
C  C113  1  0.86930000  0.16450000  0.42830000  1.0 0.1902867506
C  C114  1  0.16450000  0.86930000  0.07170000  1.0 0.1902867506
C  C115  1  0.13070000  0.83550000  0.57170000  1.0 0.1902867506
C  C116  1  0.83550000  0.13070000  0.92830000  1.0 0.1902867506
C  C117  1  0.85300000  0.60060000  0.34130000  1.0 0.1681472404
C  C118  1  0.60060000  0.85300000  0.15870000  1.0 0.1681472404
C  C119  1  0.14700000  0.39940000  0.65870000  1.0 0.1681472404
C  C120  1  0.39940000  0.14700000  0.84130000  1.0 0.1681472404
C  C121  1  0.86460000  0.65180000  0.45370000  1.0 0.1902867506
C  C122  1  0.65180000  0.86460000  0.04630000  1.0 0.1902867506
C  C123  1  0.13540000  0.34820000  0.54630000  1.0 0.1954920229
C  C124  1  0.34820000  0.13540000  0.95370000  1.0 0.1902867506
C  C125  1  0.82340000  0.25180000  0.35240000  1.0 -0.1507662747
C  C126  1  0.25180000  0.82340000  0.14760000  1.0 -0.1507662747
C  C127  1  0.17660000  0.74820000  0.64760000  1.0 -0.1507662747
C  C128  1  0.74820000  0.17660000  0.85240000  1.0 -0.1507662747
C  C129  1  0.78450000  0.17990000  0.38260000  1.0 -0.1711016124
C  C130  1  0.17990000  0.78450000  0.11740000  1.0 -0.1711016124
C  C131  1  0.21550000  0.82010000  0.61740000  1.0 -0.1711016124
C  C132  1  0.82010000  0.21550000  0.88260000  1.0 -0.1801615254
C  C133  1  0.87230000  0.16590000  0.51740000  1.0 -0.1711016124
C  C134  1  0.16590000  0.87230000  0.98260000  1.0 -0.1711016124
C  C135  1  0.12770000  0.83410000  0.48260000  1.0 -0.1711016124
C  C136  1  0.83410000  0.12770000  0.01740000  1.0 -0.1711016124
C  C137  1  0.87160000  0.12640000  0.40720000  1.0 -0.1988072673
C  C138  1  0.12640000  0.87160000  0.09280000  1.0 -0.1988072673
C  C139  1  0.12840000  0.87360000  0.59280000  1.0 -0.1988072673
C  C140  1  0.87360000  0.12840000  0.90720000  1.0 -0.1988072673
C  C141  1  0.81040000  0.60460000  0.31130000  1.0 -0.1606904629
C  C142  1  0.60460000  0.81040000  0.18870000  1.0 -0.1606904629
C  C143  1  0.18960000  0.39540000  0.68870000  1.0 -0.1606904629
C  C144  1  0.39540000  0.18960000  0.81130000  1.0 -0.1606904629
C  C145  1  0.87060000  0.58100000  0.29370000  1.0 -0.1606904629
C  C146  1  0.58100000  0.87060000  0.20630000  1.0 -0.1606904629
C  C147  1  0.12940000  0.41900000  0.70630000  1.0 -0.1606904629
C  C148  1  0.41900000  0.12940000  0.79370000  1.0 -0.1606904629
C  C149  1  0.86100000  0.68820000  0.38880000  1.0 -0.1801615254
C  C150  1  0.68820000  0.86100000  0.11120000  1.0 -0.1801615254
C  C151  1  0.13900000  0.31180000  0.61120000  1.0 -0.1801615254
C  C152  1  0.31180000  0.13900000  0.88880000  1.0 -0.1801615254
C  C153  1  0.85790000  0.64890000  0.54470000  1.0 -0.1888066034
C  C154  1  0.64890000  0.85790000  0.95530000  1.0 -0.1888066034
C  C155  1  0.14210000  0.35110000  0.45530000  1.0 -0.1888066034
C  C156  1  0.35110000  0.14210000  0.04470000  1.0 -0.1888066034
C  C157  1  0.57970000  0.32230000  0.72910000  1.0 0.1791978192
C  C158  1  0.32230000  0.57970000  0.77090000  1.0 0.1791978192
C  C159  1  0.42030000  0.67770000  0.27090000  1.0 0.1791978192
C  C160  1  0.67770000  0.42030000  0.22910000  1.0 0.1791978192
C  C161  1  0.59850000  0.37490000  0.60070000  1.0 0.1791978192
C  C162  1  0.37490000  0.59850000  0.89930000  1.0 0.1791978192
C  C163  1  0.40150000  0.62510000  0.39930000  1.0 0.1791978192
C  C164  1  0.62510000  0.40150000  0.10070000  1.0 0.1791978192
C  C165  1  0.78790000  0.26610000  0.34960000  1.0 -0.1801615254
C  C166  1  0.26610000  0.78790000  0.15040000  1.0 -0.1801615254
C  C167  1  0.21210000  0.73390000  0.65040000  1.0 -0.1801615254
C  C168  1  0.73390000  0.21210000  0.84960000  1.0 -0.1801615254
C  C169  1  0.74790000  0.19270000  0.38400000  1.0 -0.1801615254
C  C170  1  0.19270000  0.74790000  0.11600000  1.0 -0.1801615254
C  C171  1  0.25210000  0.80730000  0.61600000  1.0 -0.1801615254
C  C172  1  0.80730000  0.25210000  0.88400000  1.0 -0.1801615254
C  C173  1  0.87770000  0.13250000  0.57970000  1.0 -0.1801615254
C  C174  1  0.13250000  0.87770000  0.92030000  1.0 -0.1801615254
C  C175  1  0.12230000  0.86750000  0.42030000  1.0 -0.1801615254
C  C176  1  0.86750000  0.12230000  0.07970000  1.0 -0.1801615254
C  C177  1  0.87650000  0.09090000  0.47410000  1.0 -0.1888066034
C  C178  1  0.09090000  0.87650000  0.02590000  1.0 -0.1888066034
C  C179  1  0.12350000  0.90910000  0.52590000  1.0 -0.1888066034
C  C180  1  0.90910000  0.12350000  0.97410000  1.0 -0.1888066034
C  C181  1  0.78770000  0.58830000  0.23530000  1.0 -0.1606904629
C  C182  1  0.58830000  0.78770000  0.26470000  1.0 -0.1606904629
C  C183  1  0.21230000  0.41170000  0.76470000  1.0 -0.1606904629
C  C184  1  0.41170000  0.21230000  0.73530000  1.0 -0.1606904629
C  C185  1  0.84920000  0.56580000  0.21630000  1.0 -0.1711016124
C  C186  1  0.56580000  0.84920000  0.28370000  1.0 -0.1711016124
C  C187  1  0.15080000  0.43420000  0.78370000  1.0 -0.1711016124
C  C188  1  0.43420000  0.15080000  0.71630000  1.0 -0.1711016124
C  C189  1  0.85100000  0.72180000  0.41720000  1.0 -0.1801615254
C  C190  1  0.72180000  0.85100000  0.08280000  1.0 -0.1801615254
C  C191  1  0.14900000  0.27820000  0.58280000  1.0 -0.1801615254
C  C192  1  0.27820000  0.14900000  0.91720000  1.0 -0.1801615254
C  C193  1  0.84750000  0.68470000  0.56360000  1.0 -0.1801615254
C  C194  1  0.68470000  0.84750000  0.93640000  1.0 -0.1801615254
C  C195  1  0.15250000  0.31530000  0.43640000  1.0 -0.1801615254
C  C196  1  0.31530000  0.15250000  0.06360000  1.0 -0.1801615254
C  C197  1  0.59610000  0.29930000  0.80060000  1.0 -0.1888066034
C  C198  1  0.29930000  0.59610000  0.69940000  1.0 -0.1888066034
C  C199  1  0.40390000  0.70070000  0.19940000  1.0 -0.1888066034
C  C200  1  0.70070000  0.40390000  0.30060000  1.0 -0.1888066034
C  C201  1  0.54080000  0.33160000  0.73070000  1.0 -0.1801615254
C  C202  1  0.33160000  0.54080000  0.76930000  1.0 -0.1801615254
C  C203  1  0.45920000  0.66840000  0.26930000  1.0 -0.1801615254
C  C204  1  0.66840000  0.45920000  0.23070000  1.0 -0.1801615254
C  C205  1  0.59560000  0.37220000  0.51080000  1.0 -0.1888066034
C  C206  1  0.37220000  0.59560000  0.98920000  1.0 -0.1888066034
C  C207  1  0.40440000  0.62780000  0.48920000  1.0 -0.1888066034
C  C208  1  0.62780000  0.40440000  0.01080000  1.0 -0.1888066034
C  C209  1  0.60280000  0.41440000  0.62910000  1.0 -0.1711016124
C  C210  1  0.41440000  0.60280000  0.87090000  1.0 -0.1711016124
C  C211  1  0.39720000  0.58560000  0.37090000  1.0 -0.1711016124
C  C212  1  0.58560000  0.39720000  0.12910000  1.0 -0.1711016124
C  C213  1  0.74970000  0.23630000  0.36780000  1.0 0.1488945591
C  C214  1  0.23630000  0.74970000  0.13220000  1.0 0.1488945591
C  C215  1  0.25030000  0.76370000  0.63220000  1.0 0.1488945591
C  C216  1  0.76370000  0.25030000  0.86780000  1.0 0.1488945591
C  C217  1  0.87930000  0.09470000  0.55780000  1.0 0.1116542459
C  C218  1  0.09470000  0.87930000  0.94220000  1.0 0.1116542459
C  C219  1  0.12070000  0.90530000  0.44220000  1.0 0.1116542459
C  C220  1  0.90530000  0.12070000  0.05780000  1.0 0.1116542459
C  C221  1  0.80830000  0.56990000  0.18450000  1.0 0.1488945591
C  C222  1  0.56990000  0.80830000  0.31550000  1.0 0.1488945591
C  C223  1  0.19170000  0.43010000  0.81550000  1.0 0.1488945591
C  C224  1  0.43010000  0.19170000  0.68450000  1.0 0.1488945591
C  C225  1  0.84330000  0.72010000  0.50140000  1.0 0.120808357
C  C226  1  0.72010000  0.84330000  0.99860000  1.0 0.120808357
C  C227  1  0.15670000  0.27990000  0.49860000  1.0 0.120808357
C  C228  1  0.27990000  0.15670000  0.00140000  1.0 0.120808357
C  C229  1  0.57340000  0.28540000  0.87630000  1.0 -0.1801615254
C  C230  1  0.28540000  0.57340000  0.62370000  1.0 -0.1801615254
C  C231  1  0.42660000  0.71460000  0.12370000  1.0 -0.1801615254
C  C232  1  0.71460000  0.42660000  0.37630000  1.0 -0.1801615254
C  C233  1  0.51820000  0.31660000  0.80340000  1.0 -0.1507662747
C  C234  1  0.31660000  0.51820000  0.69660000  1.0 -0.1507662747
C  C235  1  0.48180000  0.68340000  0.19660000  1.0 -0.1507662747
C  C236  1  0.68340000  0.48180000  0.30340000  1.0 -0.1507662747
C  C237  1  0.59710000  0.40910000  0.44930000  1.0 -0.1888066034
C  C238  1  0.40910000  0.59710000  0.05070000  1.0 -0.1888066034
C  C239  1  0.40290000  0.59090000  0.55070000  1.0 -0.1888066034
C  C240  1  0.59090000  0.40290000  0.94930000  1.0 -0.1888066034
C  C241  1  0.60440000  0.45120000  0.56750000  1.0 -0.1888066034
C  C242  1  0.45120000  0.60440000  0.93250000  1.0 -0.1888066034
C  C243  1  0.39560000  0.54880000  0.43250000  1.0 -0.1888066034
C  C244  1  0.54880000  0.39560000  0.06750000  1.0 -0.1888066034
C  C245  1  0.53540000  0.29360000  0.87640000  1.0 0.1488945591
C  C246  1  0.29360000  0.53540000  0.62360000  1.0 0.1488945591
C  C247  1  0.46460000  0.70640000  0.12360000  1.0 0.1488945591
C  C248  1  0.70640000  0.46460000  0.37640000  1.0 0.1488945591
C  C249  1  0.60150000  0.44850000  0.47760000  1.0 0.1791978192
C  C250  1  0.44850000  0.60150000  0.02240000  1.0 0.1791978192
C  C251  1  0.39850000  0.55150000  0.52240000  1.0 0.1791978192
C  C252  1  0.55150000  0.39850000  0.97760000  1.0 0.1791978192
C  C253  1  0.66950000  0.22390000  0.36600000  1.0 0.0812899606
C  C254  1  0.22390000  0.66950000  0.13400000  1.0 0.0812899606
C  C255  1  0.33050000  0.77610000  0.63400000  1.0 0.0812899606
C  C256  1  0.77610000  0.33050000  0.86600000  1.0 0.0812899606
C  C257  1  0.71080000  0.29040000  0.38030000  1.0 -0.1107184273
C  C258  1  0.29040000  0.71080000  0.11970000  1.0 -0.1107184273
C  C259  1  0.28920000  0.70960000  0.61970000  1.0 -0.1107184273
C  C260  1  0.70960000  0.28920000  0.88030000  1.0 -0.1107184273
C  C261  1  0.88140000  0.02300000  0.61930000  1.0 0.1116542459
C  C262  1  0.02300000  0.88140000  0.88070000  1.0 0.120808357
C  C263  1  0.11860000  0.97700000  0.38070000  1.0 0.1116542459
C  C264  1  0.97700000  0.11860000  0.11930000  1.0 0.120808357
C  C265  1  0.89660000  0.06400000  0.71600000  1.0 -0.0838322423
C  C266  1  0.06400000  0.89660000  0.78400000  1.0 -0.0838322423
C  C267  1  0.10340000  0.93600000  0.28400000  1.0 -0.0838322423
C  C268  1  0.93600000  0.10340000  0.21600000  1.0 -0.0838322423
C  C269  1  0.80150000  0.54970000  0.03530000  1.0 0.0897313913
C  C270  1  0.54970000  0.80150000  0.46470000  1.0 0.0897313913
C  C271  1  0.19850000  0.45030000  0.96470000  1.0 0.0897313913
C  C272  1  0.45030000  0.19850000  0.53530000  1.0 0.0897313913
C  C273  1  0.74170000  0.53070000  0.09560000  1.0 -0.1507662747
C  C274  1  0.53070000  0.74170000  0.40440000  1.0 -0.1507662747
C  C275  1  0.25830000  0.46930000  0.90440000  1.0 -0.1507662747
C  C276  1  0.46930000  0.25830000  0.59560000  1.0 -0.1507662747
C  C277  1  0.79780000  0.77220000  0.48670000  1.0 -0.1204272274
C  C278  1  0.77220000  0.79780000  0.01330000  1.0 -0.1204272274
C  C279  1  0.20220000  0.22780000  0.51330000  1.0 -0.1204272274
C  C280  1  0.22780000  0.20220000  0.98670000  1.0 -0.1204272274
C  C281  1  0.85300000  0.77780000  0.58480000  1.0 0.0897313913
C  C282  1  0.77780000  0.85300000  0.91520000  1.0 0.0897313913
C  C283  1  0.14700000  0.22220000  0.41520000  1.0 0.0897313913
C  C284  1  0.22220000  0.14700000  0.08480000  1.0 0.0897313913
C  C285  1  0.66860000  0.28780000  0.38270000  1.0 -0.0466518186
C  C286  1  0.28780000  0.66860000  0.11730000  1.0 -0.0466518186
C  C287  1  0.33140000  0.71220000  0.61730000  1.0 -0.0466518186
C  C288  1  0.71220000  0.33140000  0.88270000  1.0 -0.0466518186
C  C289  1  0.88970000  0.02230000  0.76400000  1.0 -0.0731700815
C  C290  1  0.02230000  0.88970000  0.73600000  1.0 -0.0731700815
C  C291  1  0.11030000  0.97770000  0.23600000  1.0 -0.0731700815
C  C292  1  0.97770000  0.11030000  0.26400000  1.0 -0.0731700815
C  C293  1  0.73600000  0.51560000  0.01270000  1.0 0.001592504
C  C294  1  0.51560000  0.73600000  0.48730000  1.0 0.001592504
C  C295  1  0.26400000  0.48440000  0.98730000  1.0 0.001592504
C  C296  1  0.48440000  0.26400000  0.51270000  1.0 0.001592504
C  C297  1  0.79780000  0.80420000  0.53480000  1.0 0.0082854207
C  C298  1  0.80420000  0.79780000  0.96520000  1.0 0.0082854207
C  C299  1  0.20220000  0.19580000  0.46520000  1.0 0.0082854207
C  C300  1  0.19580000  0.20220000  0.03480000  1.0 0.0082854207
C  C301  1  0.52800000  0.26600000  0.03550000  1.0 0.1116542459
C  C302  1  0.26600000  0.52800000  0.46450000  1.0 0.1116542459
C  C303  1  0.47200000  0.73400000  0.96450000  1.0 0.1116542459
C  C304  1  0.73400000  0.47200000  0.53550000  1.0 0.1116542459
C  C305  1  0.46740000  0.26460000  0.95090000  1.0 -0.1107184273
C  C306  1  0.26460000  0.46740000  0.54910000  1.0 -0.1107184273
C  C307  1  0.53260000  0.73540000  0.04910000  1.0 -0.1107184273
C  C308  1  0.73540000  0.53260000  0.45090000  1.0 -0.1107184273
C  C309  1  0.62310000  0.52390000  0.42340000  1.0 -0.0286082871
C  C310  1  0.52390000  0.62310000  0.07660000  1.0 -0.0286082871
C  C311  1  0.37690000  0.47610000  0.57660000  1.0 -0.0286082871
C  C312  1  0.47610000  0.37690000  0.92340000  1.0 -0.0286082871
C  C313  1  0.57170000  0.48270000  0.32790000  1.0 -0.1314538333
C  C314  1  0.48270000  0.57170000  0.17210000  1.0 -0.1314538333
C  C315  1  0.42830000  0.51730000  0.67210000  1.0 -0.1314538333
C  C316  1  0.51730000  0.42830000  0.82790000  1.0 -0.1314538333
C  C317  1  0.46220000  0.24900000  0.03440000  1.0 -0.0286082871
C  C318  1  0.24900000  0.46220000  0.46560000  1.0 -0.0286082871
C  C319  1  0.53780000  0.75100000  0.96560000  1.0 -0.0286082871
C  C320  1  0.75100000  0.53780000  0.53440000  1.0 -0.0286082871
C  C321  1  0.58330000  0.52590000  0.28520000  1.0 -0.0900286928
C  C322  1  0.52590000  0.58330000  0.21480000  1.0 -0.0900286928
C  C323  1  0.41670000  0.47410000  0.71480000  1.0 -0.0900286928
C  C324  1  0.47410000  0.41670000  0.78520000  1.0 -0.0900286928
C  C325  1  0.54250000  0.06990000  0.40650000  1.0 0.0696878868
C  C326  1  0.06990000  0.54250000  0.09350000  1.0 0.0696878868
C  C327  1  0.45750000  0.93010000  0.59350000  1.0 0.0696878868
C  C328  1  0.93010000  0.45750000  0.90650000  1.0 0.0696878868
C  C329  1  0.48640000  0.05100000  0.31180000  1.0 -0.0286082871
C  C330  1  0.05100000  0.48640000  0.18820000  1.0 -0.0286082871
C  C331  1  0.51360000  0.94900000  0.68820000  1.0 -0.0286082871
C  C332  1  0.94900000  0.51360000  0.81180000  1.0 -0.0286082871
C  C333  1  0.49900000  0.01440000  0.34070000  1.0 -0.1204272274
C  C334  1  0.01440000  0.49900000  0.15930000  1.0 -0.1204272274
C  C335  1  0.50100000  0.98560000  0.65930000  1.0 -0.1204272274
C  C336  1  0.98560000  0.50100000  0.84070000  1.0 -0.1204272274
C  C337  1  0.55980000  0.99880000  0.44800000  1.0 0.1681472404
C  C338  1  0.99880000  0.55980000  0.05200000  1.0 0.1681472404
C  C339  1  0.44020000  0.00120000  0.55200000  1.0 0.1681472404
C  C340  1  0.00120000  0.44020000  0.94800000  1.0 0.1681472404
C  C341  1  0.54320000  0.95480000  0.46700000  1.0 -0.1801615254
C  C342  1  0.95480000  0.54320000  0.03300000  1.0 -0.1801615254
C  C343  1  0.45680000  0.04520000  0.53300000  1.0 -0.1801615254
C  C344  1  0.04520000  0.45680000  0.96700000  1.0 -0.1801615254
C  C345  1  0.60430000  0.01850000  0.48290000  1.0 -0.1711016124
C  C346  1  0.01850000  0.60430000  0.01710000  1.0 -0.1711016124
C  C347  1  0.39570000  0.98150000  0.51710000  1.0 -0.1711016124
C  C348  1  0.98150000  0.39570000  0.98290000  1.0 -0.1711016124
C  C349  1  0.56940000  0.92840000  0.51380000  1.0 -0.1711016124
C  C350  1  0.92840000  0.56940000  0.98620000  1.0 -0.1711016124
C  C351  1  0.43060000  0.07160000  0.48620000  1.0 -0.1711016124
C  C352  1  0.07160000  0.43060000  0.01380000  1.0 -0.1711016124
C  C353  1  0.62840000  0.99220000  0.52700000  1.0 -0.1507662747
C  C354  1  0.99220000  0.62840000  0.97300000  1.0 -0.1507662747
C  C355  1  0.37160000  0.00780000  0.47300000  1.0 -0.1507662747
C  C356  1  0.00780000  0.37160000  0.02700000  1.0 -0.1507662747
C  C357  1  0.61200000  0.94800000  0.54610000  1.0 0.1604836029
C  C358  1  0.94800000  0.61200000  0.95390000  1.0 0.1604836029
C  C359  1  0.38800000  0.05200000  0.45390000  1.0 0.1604836029
C  C360  1  0.05200000  0.38800000  0.04610000  1.0 0.1604836029
C  C361  1  0.65700000  0.93300000  0.67850000  1.0 0.1902867506
C  C362  1  0.93300000  0.65700000  0.82150000  1.0 0.1902867506
C  C363  1  0.34300000  0.06700000  0.32150000  1.0 0.1902867506
C  C364  1  0.06700000  0.34300000  0.17850000  1.0 0.1902867506
C  C365  1  0.65120000  0.89240000  0.55370000  1.0 0.1604836029
C  C366  1  0.89240000  0.65120000  0.94630000  1.0 0.1604836029
C  C367  1  0.34880000  0.10760000  0.44630000  1.0 0.1604836029
C  C368  1  0.10760000  0.34880000  0.05370000  1.0 0.1604836029
C  C369  1  0.63570000  0.94850000  0.73010000  1.0 -0.1801615254
C  C370  1  0.94850000  0.63570000  0.76990000  1.0 -0.1801615254
C  C371  1  0.36430000  0.05150000  0.26990000  1.0 -0.1801615254
C  C372  1  0.05150000  0.36430000  0.23010000  1.0 -0.1801615254
C  C373  1  0.70030000  0.93190000  0.71690000  1.0 -0.1801615254
C  C374  1  0.93190000  0.70030000  0.78310000  1.0 -0.1801615254
C  C375  1  0.29970000  0.06810000  0.28310000  1.0 -0.1801615254
C  C376  1  0.06810000  0.29970000  0.21690000  1.0 -0.1801615254
C  C377  1  0.66020000  0.85640000  0.59930000  1.0 -0.1606904629
C  C378  1  0.85640000  0.66020000  0.90070000  1.0 -0.1606904629
C  C379  1  0.33980000  0.14360000  0.40070000  1.0 -0.1606904629
C  C380  1  0.14360000  0.33980000  0.09930000  1.0 -0.1606904629
C  C381  1  0.65440000  0.90320000  0.46580000  1.0 -0.1801615254
C  C382  1  0.90320000  0.65440000  0.03420000  1.0 -0.1801615254
C  C383  1  0.34560000  0.09680000  0.53420000  1.0 -0.1801615254
C  C384  1  0.09680000  0.34560000  0.96580000  1.0 -0.1801615254
C  C385  1  0.65210000  0.96070000  0.81130000  1.0 -0.1711016124
C  C386  1  0.96070000  0.65210000  0.68870000  1.0 -0.1711016124
C  C387  1  0.34790000  0.03930000  0.18870000  1.0 -0.1711016124
C  C388  1  0.03930000  0.34790000  0.31130000  1.0 -0.1711016124
C  C389  1  0.71830000  0.94690000  0.79800000  1.0 -0.1888066034
C  C390  1  0.94690000  0.71830000  0.70200000  1.0 -0.1888066034
C  C391  1  0.28170000  0.05310000  0.20200000  1.0 -0.1888066034
C  C392  1  0.05310000  0.28170000  0.29800000  1.0 -0.1888066034
C  C393  1  0.67150000  0.82850000  0.55300000  1.0 -0.1888066034
C  C394  1  0.82850000  0.67150000  0.94700000  1.0 -0.1888066034
C  C395  1  0.32850000  0.17150000  0.44700000  1.0 -0.1888066034
C  C396  1  0.17150000  0.32850000  0.05300000  1.0 -0.1888066034
C  C397  1  0.66610000  0.87570000  0.42040000  1.0 -0.1711016124
C  C398  1  0.87570000  0.66610000  0.07960000  1.0 -0.1711016124
C  C399  1  0.33390000  0.12430000  0.57960000  1.0 -0.1711016124
C  C400  1  0.12430000  0.33390000  0.92040000  1.0 -0.1711016124
C  C401  1  0.69480000  0.96200000  0.84360000  1.0 0.1488945591
C  C402  1  0.96200000  0.69480000  0.65640000  1.0 0.1488945591
C  C403  1  0.30520000  0.03800000  0.15640000  1.0 0.1488945591
C  C404  1  0.03800000  0.30520000  0.34360000  1.0 0.1488945591
C  C405  1  0.67480000  0.83920000  0.46390000  1.0 0.1281891875
C  C406  1  0.83920000  0.67480000  0.03610000  1.0 0.1281891875
C  C407  1  0.32520000  0.16080000  0.53610000  1.0 0.1281891875
C  C408  1  0.16080000  0.32520000  0.96390000  1.0 0.1281891875
C  C409  1  0.69963000  0.00877000  0.95650000  1.0 0.0082854207
C  C410  1  0.00877000  0.69963000  0.54350000  1.0 0.0082854207
C  C411  1  0.30037000  0.99123000  0.04350000  1.0 0.0082854207
C  C412  1  0.99123000  0.30037000  0.45650000  1.0 0.0082854207
C  C413  1  0.74420000  0.96360000  0.98930000  1.0 -0.1204272274
C  C414  1  0.96360000  0.74420000  0.51070000  1.0 -0.1204272274
C  C415  1  0.25580000  0.03640000  0.01070000  1.0 -0.1204272274
C  C416  1  0.03640000  0.25580000  0.48930000  1.0 -0.1204272274
C  C417  1  0.67020000  0.77020000  0.41060000  1.0 0.120808357
C  C418  1  0.77020000  0.67020000  0.08940000  1.0 0.1116542459
C  C419  1  0.32980000  0.22980000  0.58940000  1.0 0.1116542459
C  C420  1  0.22980000  0.32980000  0.91060000  1.0 0.1116542459
C  C421  1  0.71850000  0.82590000  0.35520000  1.0 -0.1038751162
C  C422  1  0.82590000  0.71850000  0.14480000  1.0 -0.1038751162
C  C423  1  0.28150000  0.17410000  0.64480000  1.0 -0.1038751162
C  C424  1  0.17410000  0.28150000  0.85520000  1.0 -0.1038751162
C  C425  1  0.75090000  0.98730000  0.06190000  1.0 -0.0191456458
C  C426  1  0.98730000  0.75090000  0.43810000  1.0 -0.0191456458
C  C427  1  0.24910000  0.01270000  0.93810000  1.0 -0.0191456458
C  C428  1  0.01270000  0.24910000  0.56190000  1.0 -0.0191456458
C  C429  1  0.71650000  0.79270000  0.31730000  1.0 -0.0731700815
C  C430  1  0.79270000  0.71650000  0.18270000  1.0 -0.0731700815
C  C431  1  0.28350000  0.20730000  0.68270000  1.0 -0.0731700815
C  C432  1  0.20730000  0.28350000  0.81730000  1.0 -0.0731700815
I  I1  1  0.02219000  0.33695000  0.73977000  1.0 -0.348473067
I  I2  1  0.33695000  0.02219000  0.76023000  1.0 -0.348473067
I  I3  1  0.97781000  0.66305000  0.26023000  1.0 -0.3408576036
I  I4  1  0.66305000  0.97781000  0.23977000  1.0 -0.3408576036
I  I5  1  0.90461000  0.22827000  0.71559000  1.0 -0.348473067
I  I6  1  0.22827000  0.90461000  0.78441000  1.0 -0.348473067
I  I7  1  0.09539000  0.77173000  0.28441000  1.0 -0.348473067
I  I8  1  0.77173000  0.09539000  0.21559000  1.0 -0.348473067
I  I9  1  0.89640000  0.35172000  0.79314000  1.0 -0.348473067
I  I10  1  0.35172000  0.89640000  0.70686000  1.0 -0.348473067
I  I11  1  0.10360000  0.64828000  0.20686000  1.0 -0.348473067
I  I12  1  0.64828000  0.10360000  0.29314000  1.0 -0.348473067
I  I13  1  0.91399000  0.34881000  0.51637000  1.0 -0.348473067
I  I14  1  0.34881000  0.91399000  0.98363000  1.0 -0.348473067
I  I15  1  0.08601000  0.65119000  0.48363000  1.0 -0.348473067
I  I16  1  0.65119000  0.08601000  0.01637000  1.0 -0.3408576036
I  I17  1  0.55322000  0.17100000  0.49534000  1.0 -0.348473067
I  I18  1  0.17100000  0.55322000  0.00466000  1.0 -0.348473067
I  I19  1  0.44678000  0.82900000  0.50466000  1.0 -0.348473067
I  I20  1  0.82900000  0.44678000  0.99534000  1.0 -0.348473067
I  I21  1  0.54661000  0.29259000  0.30944000  1.0 -0.3408576036
I  I22  1  0.29259000  0.54661000  0.19056000  1.0 -0.3408576036
I  I23  1  0.45339000  0.70741000  0.69056000  1.0 -0.3408576036
I  I24  1  0.70741000  0.45339000  0.80944000  1.0 -0.3408576036
I  I25  1  0.57040000  0.18220000  0.20572000  1.0 -0.3599574852
I  I26  1  0.18220000  0.57040000  0.29428000  1.0 -0.3599574852
I  I27  1  0.42960000  0.81780000  0.79428000  1.0 -0.3599574852
I  I28  1  0.81780000  0.42960000  0.70572000  1.0 -0.3599574852
I  I29  1  0.80044000  0.89180000  0.67983000  1.0 -0.4123512569
I  I30  1  0.89180000  0.80044000  0.82017000  1.0 -0.4123512569
I  I31  1  0.19956000  0.10820000  0.32017000  1.0 -0.4123512569
I  I32  1  0.10820000  0.19956000  0.17983000  1.0 -0.4123512569
I  I33  1  0.92720000  0.91738000  0.60604000  1.0 -0.2979311187
I  I34  1  0.91738000  0.92720000  0.89396000  1.0 -0.2979311187
I  I35  1  0.07280000  0.08262000  0.39396000  1.0 -0.2979311187
I  I36  1  0.08262000  0.07280000  0.10604000  1.0 -0.2979311187
I  I37  1  0.83368000  0.55814000  0.76992000  1.0 -0.3105473135
I  I38  1  0.55814000  0.83368000  0.73008000  1.0 -0.3105473135
I  I39  1  0.16632000  0.44186000  0.23008000  1.0 -0.3105473135
I  I40  1  0.44186000  0.16632000  0.26992000  1.0 -0.3105473135
I  I41  1  0.72411000  0.65331000  0.37690000  1.0 0.0393717154
I  I42  1  0.65331000  0.72411000  0.12310000  1.0 0.0393717154
I  I43  1  0.27589000  0.34669000  0.62310000  1.0 0.0393717154
I  I44  1  0.34669000  0.27589000  0.87690000  1.0 0.0393717154
I  I45  1  0.59211000  0.65965000  0.36600000  1.0 0.0696878868
I  I46  1  0.65965000  0.59211000  0.13400000  1.0 0.0696878868
I  I47  1  0.40789000  0.34035000  0.63400000  1.0 0.0696878868
I  I48  1  0.34035000  0.40789000  0.86600000  1.0 0.0696878868
I  I49  1  0.58305000  0.64977000  0.30620000  1.0 0.0897313913
I  I50  1  0.64977000  0.58305000  0.19380000  1.0 0.0897313913
I  I51  1  0.41695000  0.35023000  0.69380000  1.0 0.0897313913
I  I52  1  0.35023000  0.41695000  0.80620000  1.0 0.0812899606
I  I53  1  0.66790000  0.73070000  0.12510000  1.0 0.0812899606
I  I54  1  0.73070000  0.66790000  0.37490000  1.0 0.0812899606
I  I55  1  0.33210000  0.26930000  0.87490000  1.0 0.0812899606
I  I56  1  0.26930000  0.33210000  0.62510000  1.0 0.0812899606
N  N1  1  0.95770000  0.27550000  0.92250000  1.0 -0.210675894
N  N2  1  0.27550000  0.95770000  0.57750000  1.0 -0.210675894
N  N3  1  0.04230000  0.72450000  0.07750000  1.0 -0.210675894
N  N4  1  0.72450000  0.04230000  0.42250000  1.0 -0.210675894
N  N5  1  0.97530000  0.43470000  0.66080000  1.0 -0.210675894
N  N6  1  0.43470000  0.97530000  0.83920000  1.0 -0.210675894
N  N7  1  0.02470000  0.56530000  0.33920000  1.0 -0.210675894
N  N8  1  0.56530000  0.02470000  0.16080000  1.0 -0.210675894
N  N9  1  0.98470000  0.27670000  0.54160000  1.0 -0.2367638711
N  N10  1  0.27670000  0.98470000  0.95840000  1.0 -0.2367638711
N  N11  1  0.01530000  0.72330000  0.45840000  1.0 -0.2367638711
N  N12  1  0.72330000  0.01530000  0.04160000  1.0 -0.2367638711
N  N13  1  0.81580000  0.28360000  0.63420000  1.0 -0.210675894
N  N14  1  0.28360000  0.81580000  0.86580000  1.0 -0.210675894
N  N15  1  0.18420000  0.71640000  0.36580000  1.0 -0.210675894
N  N16  1  0.71640000  0.18420000  0.13420000  1.0 -0.210675894
N  N17  1  0.94530000  0.24690000  0.06100000  1.0 -0.0029939972
N  N18  1  0.24690000  0.94530000  0.43900000  1.0 -0.0029939972
N  N19  1  0.05470000  0.75310000  0.93900000  1.0 -0.0029939972
N  N20  1  0.75310000  0.05470000  0.56100000  1.0 -0.0029939972
N  N21  1  0.96440000  0.50060000  0.60980000  1.0 -0.0029939972
N  N22  1  0.50060000  0.96440000  0.89020000  1.0 -0.0029939972
N  N23  1  0.03560000  0.49940000  0.39020000  1.0 -0.0029939972
N  N24  1  0.49940000  0.03560000  0.10980000  1.0 -0.0029939972
N  N25  1  0.74670000  0.28230000  0.62500000  1.0 0.001592504
N  N26  1  0.28230000  0.74670000  0.87500000  1.0 0.001592504
N  N27  1  0.25330000  0.71770000  0.37500000  1.0 0.001592504
N  N28  1  0.71770000  0.25330000  0.12500000  1.0 0.001592504
N  N29  1  0.86080000  0.19660000  0.36560000  1.0 -0.1606904629
N  N30  1  0.19660000  0.86080000  0.13440000  1.0 -0.1606904629
N  N31  1  0.13920000  0.80340000  0.63440000  1.0 -0.1606904629
N  N32  1  0.80340000  0.13920000  0.86560000  1.0 -0.1606904629
N  N33  1  0.87390000  0.61650000  0.42580000  1.0 -0.1888066034
N  N34  1  0.61650000  0.87390000  0.07420000  1.0 -0.1888066034
N  N35  1  0.12610000  0.38350000  0.57420000  1.0 -0.1888066034
N  N36  1  0.38350000  0.12610000  0.92580000  1.0 -0.1888066034
N  N37  1  0.60120000  0.33700000  0.65250000  1.0 -0.1606904629
N  N38  1  0.33700000  0.60120000  0.84750000  1.0 -0.1606904629
N  N39  1  0.39880000  0.66300000  0.34750000  1.0 -0.1606904629
N  N40  1  0.66300000  0.39880000  0.15250000  1.0 -0.1606904629
N  N41  1  0.71090000  0.24950000  0.37270000  1.0 -0.0029939972
N  N42  1  0.24950000  0.71090000  0.12730000  1.0 -0.0029939972
N  N43  1  0.28910000  0.75050000  0.62730000  1.0 -0.0029939972
N  N44  1  0.75050000  0.28910000  0.87270000  1.0 -0.0029939972
N  N45  1  0.88490000  0.05830000  0.63040000  1.0 0.0393717154
N  N46  1  0.05830000  0.88490000  0.86960000  1.0 0.0393717154
N  N47  1  0.11510000  0.94170000  0.36960000  1.0 0.0393717154
N  N48  1  0.94170000  0.11510000  0.13040000  1.0 0.0393717154
N  N49  1  0.78560000  0.55240000  0.10680000  1.0 0.001592504
N  N50  1  0.55240000  0.78560000  0.39320000  1.0 0.001592504
N  N51  1  0.21440000  0.44760000  0.89320000  1.0 0.001592504
N  N52  1  0.44760000  0.21440000  0.60680000  1.0 0.001592504
N  N53  1  0.83160000  0.75520000  0.52480000  1.0 0.0221044861
N  N54  1  0.75520000  0.83160000  0.97520000  1.0 0.0221044861
N  N55  1  0.16840000  0.24480000  0.47520000  1.0 0.0221044861
N  N56  1  0.24480000  0.16840000  0.02480000  1.0 0.0221044861
N  N57  1  0.51150000  0.27730000  0.95040000  1.0 -0.0093722013
N  N58  1  0.27730000  0.51150000  0.54960000  1.0 -0.0093722013
N  N59  1  0.48850000  0.72270000  0.04960000  1.0 -0.0093722013
N  N60  1  0.72270000  0.48850000  0.45040000  1.0 -0.0093722013
N  N61  1  0.59640000  0.48140000  0.41330000  1.0 -0.0029939972
N  N62  1  0.48140000  0.59640000  0.08670000  1.0 -0.0029939972
N  N63  1  0.40360000  0.51860000  0.58670000  1.0 -0.0029939972
N  N64  1  0.51860000  0.40360000  0.91330000  1.0 -0.0029939972
N  N65  1  0.64280000  0.24640000  0.37140000  1.0 -0.210675894
N  N66  1  0.24640000  0.64280000  0.12860000  1.0 -0.210675894
N  N67  1  0.35720000  0.75360000  0.62860000  1.0 -0.210675894
N  N68  1  0.75360000  0.35720000  0.87140000  1.0 -0.210675894
N  N69  1  0.88340000  0.99700000  0.69370000  1.0 -0.1988072673
N  N70  1  0.99700000  0.88340000  0.80630000  1.0 -0.1988072673
N  N71  1  0.11660000  0.00300000  0.30630000  1.0 -0.1988072673
N  N72  1  0.00300000  0.11660000  0.19370000  1.0 -0.1988072673
N  N73  1  0.77230000  0.52770000  0.97670000  1.0 -0.1988072673
N  N74  1  0.52770000  0.77230000  0.52330000  1.0 -0.1988072673
N  N75  1  0.22770000  0.47230000  0.02330000  1.0 -0.1988072673
N  N76  1  0.47230000  0.22770000  0.47670000  1.0 -0.1988072673
N  N77  1  0.83490000  0.81030000  0.58750000  1.0 -0.1888066034
N  N78  1  0.81030000  0.83490000  0.91250000  1.0 -0.1888066034
N  N79  1  0.16510000  0.18970000  0.41250000  1.0 -0.1888066034
N  N80  1  0.18970000  0.16510000  0.08750000  1.0 -0.1888066034
N  N81  1  0.49900000  0.25060000  0.08640000  1.0 -0.1888066034
N  N82  1  0.25060000  0.49900000  0.41360000  1.0 -0.1888066034
N  N83  1  0.50100000  0.74940000  0.91360000  1.0 -0.1888066034
N  N84  1  0.74940000  0.50100000  0.58640000  1.0 -0.1888066034
N  N85  1  0.61500000  0.55140000  0.34420000  1.0 -0.2524719376
N  N86  1  0.55140000  0.61500000  0.15580000  1.0 -0.2524719376
N  N87  1  0.38500000  0.44860000  0.65580000  1.0 -0.2524719376
N  N88  1  0.44860000  0.38500000  0.84420000  1.0 -0.2524719376
N  N89  1  0.51340000  0.08480000  0.35010000  1.0 -0.1988072673
N  N90  1  0.08480000  0.51340000  0.14990000  1.0 -0.1988072673
N  N91  1  0.48660000  0.91520000  0.64990000  1.0 -0.1988072673
N  N92  1  0.91520000  0.48660000  0.85010000  1.0 -0.1988072673
N  N93  1  0.53480000  0.02600000  0.40180000  1.0 0.0082854207
N  N94  1  0.02600000  0.53480000  0.09820000  1.0 0.0082854207
N  N95  1  0.46520000  0.97400000  0.59820000  1.0 0.0082854207
N  N96  1  0.97400000  0.46520000  0.90180000  1.0 0.0082854207
N  N97  1  0.63810000  0.92150000  0.59510000  1.0 -0.1711016124
N  N98  1  0.92150000  0.63810000  0.90490000  1.0 -0.1711016124
N  N99  1  0.36190000  0.07850000  0.40490000  1.0 -0.1711016124
N  N100  1  0.07850000  0.36190000  0.09510000  1.0 -0.1711016124
N  N101  1  0.71255000  0.97685000  0.92420000  1.0 -0.0029939972
N  N102  1  0.97685000  0.71255000  0.57580000  1.0 -0.0029939972
N  N103  1  0.28745000  0.02315000  0.07580000  1.0 -0.0029939972
N  N104  1  0.02315000  0.28745000  0.42420000  1.0 -0.0029939972
N  N105  1  0.68910000  0.81170000  0.41360000  1.0 0.001592504
N  N106  1  0.81170000  0.68910000  0.08640000  1.0 0.001592504
N  N107  1  0.31090000  0.18830000  0.58640000  1.0 0.001592504
N  N108  1  0.18830000  0.31090000  0.91360000  1.0 0.001592504
N  N109  1  0.68520000  0.75540000  0.35380000  1.0 -0.263074762
N  N110  1  0.75540000  0.68520000  0.14620000  1.0 -0.263074762
N  N111  1  0.31480000  0.24460000  0.64620000  1.0 -0.263074762
N  N112  1  0.24460000  0.31480000  0.85380000  1.0 -0.263074762
