# DDEC6 charges by PACMAN v1.1 (https://github.com/mtap-research/PACMAN-charge/)
data_PORRAS_FSR_pacman
_symmetry_space_group_name_H-M   'P 1'
_cell_length_a   14.40790000
_cell_length_b   14.51720000
_cell_length_c   15.49940000
_cell_angle_alpha   93.75800000
_cell_angle_beta   89.57800000
_cell_angle_gamma   116.15800000
_symmetry_Int_Tables_number   1
_chemical_formula_structural   CuB10H25C19NO5
_chemical_formula_sum   'Cu4 B40 H100 C76 N4 O20'
_cell_volume   2902.76661552
_cell_formula_units_Z   4
loop_
 _symmetry_equiv_pos_site_id
 _symmetry_equiv_pos_as_xyz
  1  'x, y, z'
loop_
 _atom_site_type_symbol
 _atom_site_label
 _atom_site_symmetry_multiplicity
 _atom_site_fract_x
 _atom_site_fract_y
 _atom_site_fract_z
 _atom_site_occupancy
 _atom_site_charge
Cu  Cu1  1  0.05765000  0.98782000  0.05828000  1.0 0.8504676308
Cu  Cu2  1  0.93523000  0.00793000  0.55735000  1.0 0.8504676308
Cu  Cu3  1  0.94235000  0.01218000  0.94172000  1.0 0.8504676308
Cu  Cu4  1  0.06477000  0.99207000  0.44265000  1.0 0.8504676308
B  B1  1  0.50950000  0.68120000  0.06110000  1.0 -0.1605698828
B  B2  1  0.46760000  0.69810000  0.96150000  1.0 -0.1903927427
B  B3  1  0.56290000  0.80480000  0.02130000  1.0 -0.2103127305
B  B4  1  0.41640000  0.67450000  0.14030000  1.0 -0.1605698828
B  B5  1  0.31710000  0.68920000  0.08610000  1.0 -0.1734882694
B  B6  1  0.34790000  0.70490000  0.97530000  1.0 -0.1783659708
B  B7  1  0.46140000  0.82000000  0.96780000  1.0 -0.2234569951
B  B8  1  0.50230000  0.87540000  0.07410000  1.0 -0.2029390151
B  B9  1  0.41100000  0.79490000  0.14600000  1.0 -0.2103127305
B  B10  1  0.36870000  0.81370000  0.04570000  1.0 -0.2234569951
B  B11  1  0.80280000  0.30250000  0.45990000  1.0 -0.1783659708
B  B12  1  0.74450000  0.28460000  0.56240000  1.0 -0.2029390151
B  B13  1  0.73640000  0.17640000  0.49440000  1.0 -0.2234569951
B  B14  1  0.72120000  0.32560000  0.38630000  1.0 -0.1514310305
B  B15  1  0.61120000  0.31640000  0.44230000  1.0 -0.1903927427
B  B16  1  0.62560000  0.29080000  0.55080000  1.0 -0.1734882694
B  B17  1  0.62680000  0.17000000  0.55000000  1.0 -0.2284534563
B  B18  1  0.61310000  0.11910000  0.44170000  1.0 -0.1903927427
B  B19  1  0.60300000  0.21080000  0.37470000  1.0 -0.1903927427
B  B20  1  0.54350000  0.19010000  0.47600000  1.0 -0.2029390151
B  B21  1  0.49050000  0.31880000  0.93890000  1.0 -0.1605698828
B  B22  1  0.53240000  0.30190000  0.03850000  1.0 -0.1903927427
B  B23  1  0.43710000  0.19520000  0.97870000  1.0 -0.2103127305
B  B24  1  0.58360000  0.32550000  0.85970000  1.0 -0.1605698828
B  B25  1  0.68290000  0.31080000  0.91390000  1.0 -0.1734882694
B  B26  1  0.65210000  0.29510000  0.02470000  1.0 -0.1783659708
B  B27  1  0.53860000  0.18000000  0.03220000  1.0 -0.2234569951
B  B28  1  0.49770000  0.12460000  0.92590000  1.0 -0.2029390151
B  B29  1  0.58900000  0.20510000  0.85400000  1.0 -0.2103127305
B  B30  1  0.63130000  0.18630000  0.95430000  1.0 -0.2234569951
B  B31  1  0.19720000  0.69750000  0.54010000  1.0 -0.1783659708
B  B32  1  0.25550000  0.71540000  0.43760000  1.0 -0.2029390151
B  B33  1  0.26360000  0.82360000  0.50560000  1.0 -0.2234569951
B  B34  1  0.27880000  0.67440000  0.61370000  1.0 -0.1514310305
B  B35  1  0.38880000  0.68360000  0.55770000  1.0 -0.1903927427
B  B36  1  0.37440000  0.70920000  0.44920000  1.0 -0.1734882694
B  B37  1  0.37320000  0.83000000  0.45000000  1.0 -0.2284534563
B  B38  1  0.38690000  0.88090000  0.55830000  1.0 -0.1903927427
B  B39  1  0.39700000  0.78920000  0.62530000  1.0 -0.1903927427
B  B40  1  0.45650000  0.80990000  0.52400000  1.0 -0.2029390151
H  H1  1  0.55621000  0.63723000  0.06643000  1.0 -0.0311590081
H  H2  1  0.48578000  0.66453000  0.90033000  1.0 -0.0200867496
H  H3  1  0.64508000  0.84359000  0.00048000  1.0 0.0158563067
H  H4  1  0.40166000  0.62686000  0.19735000  1.0 -0.0398924269
H  H5  1  0.23516000  0.64913000  0.10734000  1.0 -0.0398924269
H  H6  1  0.28655000  0.67587000  0.92293000  1.0 -0.0398924269
H  H7  1  0.47549000  0.86793000  0.91096000  1.0 0.0900801766
H  H8  1  0.54542000  0.96061000  0.08845000  1.0 0.0810910492
H  H9  1  0.39275000  0.82748000  0.20773000  1.0 0.0375877252
H  H10  1  0.32178000  0.85752000  0.04065000  1.0 0.0290264004
H  H11  1  0.88896000  0.33943000  0.45407000  1.0 -0.0311590081
H  H12  1  0.79144000  0.31110000  0.62420000  1.0 0.0034766199
H  H13  1  0.77725000  0.12948000  0.51094000  1.0 0.0607277706
H  H14  1  0.75338000  0.37807000  0.33257000  1.0 -0.0398924269
H  H15  1  0.57031000  0.36334000  0.42585000  1.0 -0.0583185618
H  H16  1  0.59393000  0.32073000  0.60621000  1.0 -0.0200867496
H  H17  1  0.59516000  0.11871000  0.60456000  1.0 0.0975057009
H  H18  1  0.57362000  0.03437000  0.42358000  1.0 0.0810910492
H  H19  1  0.55665000  0.18589000  0.31265000  1.0 -0.0200867496
H  H20  1  0.45727000  0.15252000  0.48116000  1.0 0.0375877252
H  H21  1  0.14235000  0.32878000  0.90205000  1.0 0.1401138539
H  H22  1  0.24196000  0.50720000  0.91396000  1.0 0.1998507317
H  H23  1  0.39395000  0.47716000  0.12044000  1.0 0.2368337423
H  H24  1  0.29656000  0.30136000  0.10594000  1.0 0.1707486614
H  H25  1  0.84603000  0.85026000  0.22480000  1.0 0.1401138539
H  H26  1  0.71040000  0.78772000  0.12293000  1.0 0.1619315183
H  H27  1  0.53649000  0.86715000  0.29127000  1.0 0.2812430646
H  H28  1  0.67140000  0.92329000  0.39453000  1.0 0.2368337423
H  H29  1  0.99437000  0.68007000  0.45807000  1.0 0.1707486614
H  H30  1  0.91595000  0.50187000  0.44406000  1.0 0.2128560539
H  H31  1  0.68260000  0.49957000  0.59058000  1.0 0.2368337423
H  H32  1  0.76387000  0.67743000  0.60632000  1.0 0.1493990134
H  H33  1  0.74479000  0.09409000  0.11228000  1.0 0.2541579987
H  H34  1  0.66614000  0.15317000  0.22032000  1.0 0.2680012743
H  H35  1  0.89350000  0.18502000  0.38906000  1.0 0.1619315183
H  H36  1  0.96924000  0.12483000  0.28101000  1.0 0.1493990134
H  H37  1  0.65648000  0.77600000  0.75634000  1.0 0.1493990134
H  H38  1  0.56677000  0.80793000  0.78382000  1.0 0.2128560539
H  H39  1  0.67086000  0.85002000  0.84148000  1.0 0.1790859375
H  H40  1  0.67234000  0.02662000  0.81249000  1.0 0.1917255233
H  H41  1  0.58460000  0.97896000  0.73784000  1.0 0.2680012743
H  H42  1  0.69878000  0.06122000  0.71588000  1.0 0.2128560539
H  H43  1  0.78134000  0.87495000  0.67306000  1.0 0.1116773273
H  H44  1  0.04573000  0.72130000  0.32721000  1.0 0.1707486614
H  H45  1  0.94765000  0.65729000  0.26409000  1.0 0.1493990134
H  H46  1  0.96165000  0.76332000  0.31303000  1.0 0.1493990134
H  H47  1  0.14951000  0.78169000  0.11633000  1.0 0.1707486614
H  H48  1  0.06729000  0.66915000  0.13917000  1.0 0.1493990134
H  H49  1  0.16605000  0.73352000  0.20150000  1.0 0.1790859375
H  H50  1  0.03031000  0.90314000  0.23603000  1.0 0.1278013002
H  H51  1  0.44379000  0.36277000  0.93357000  1.0 -0.0311590081
H  H52  1  0.51422000  0.33547000  0.09967000  1.0 -0.0200867496
H  H53  1  0.35492000  0.15641000  0.99952000  1.0 0.0158563067
H  H54  1  0.59834000  0.37314000  0.80265000  1.0 -0.0398924269
H  H55  1  0.76484000  0.35087000  0.89266000  1.0 -0.0398924269
H  H56  1  0.71345000  0.32413000  0.07707000  1.0 -0.0398924269
H  H57  1  0.52451000  0.13207000  0.08904000  1.0 0.0900801766
H  H58  1  0.45458000  0.03939000  0.91155000  1.0 0.0810910492
H  H59  1  0.60725000  0.17252000  0.79227000  1.0 0.0375877252
H  H60  1  0.67822000  0.14248000  0.95935000  1.0 0.0290264004
H  H61  1  0.11104000  0.66057000  0.54593000  1.0 -0.0311590081
H  H62  1  0.20856000  0.68890000  0.37580000  1.0 0.0034766199
H  H63  1  0.22275000  0.87052000  0.48906000  1.0 0.0607277706
H  H64  1  0.24662000  0.62193000  0.66743000  1.0 -0.0398924269
H  H65  1  0.42969000  0.63666000  0.57415000  1.0 -0.0493537555
H  H66  1  0.40607000  0.67927000  0.39379000  1.0 -0.0200867496
H  H67  1  0.40484000  0.88129000  0.39544000  1.0 0.0975057009
H  H68  1  0.42638000  0.96563000  0.57642000  1.0 0.0810910492
H  H69  1  0.44335000  0.81411000  0.68735000  1.0 -0.0200867496
H  H70  1  0.54273000  0.84748000  0.51884000  1.0 0.0375877252
H  H71  1  0.85765000  0.67122000  0.09795000  1.0 0.1401138539
H  H72  1  0.75804000  0.49280000  0.08604000  1.0 0.1998507317
H  H73  1  0.60605000  0.52284000  0.87956000  1.0 0.2368337423
H  H74  1  0.70344000  0.69864000  0.89406000  1.0 0.1707486614
H  H75  1  0.15397000  0.14974000  0.77520000  1.0 0.1401138539
H  H76  1  0.28960000  0.21228000  0.87707000  1.0 0.1619315183
H  H77  1  0.46351000  0.13285000  0.70873000  1.0 0.2812430646
H  H78  1  0.32860000  0.07671000  0.60547000  1.0 0.2368337423
H  H79  1  0.00563000  0.31993000  0.54193000  1.0 0.1707486614
H  H80  1  0.08405000  0.49813000  0.55594000  1.0 0.2128560539
H  H81  1  0.31740000  0.50043000  0.40942000  1.0 0.2368337423
H  H82  1  0.23613000  0.32257000  0.39368000  1.0 0.1493990134
H  H83  1  0.25521000  0.90591000  0.88772000  1.0 0.2553271289
H  H84  1  0.33386000  0.84683000  0.77968000  1.0 0.2680012743
H  H85  1  0.10650000  0.81498000  0.61094000  1.0 0.1619315183
H  H86  1  0.03076000  0.87517000  0.71899000  1.0 0.1493990134
H  H87  1  0.34352000  0.22400000  0.24366000  1.0 0.1493990134
H  H88  1  0.43323000  0.19207000  0.21618000  1.0 0.2128560539
H  H89  1  0.32914000  0.14998000  0.15852000  1.0 0.1790859375
H  H90  1  0.32766000  0.97338000  0.18751000  1.0 0.1917255233
H  H91  1  0.41540000  0.02104000  0.26216000  1.0 0.2680012743
H  H92  1  0.30122000  0.93878000  0.28412000  1.0 0.2150347765
H  H93  1  0.21866000  0.12505000  0.32694000  1.0 0.1116773273
H  H94  1  0.95427000  0.27870000  0.67279000  1.0 0.1707486614
H  H95  1  0.05235000  0.34271000  0.73591000  1.0 0.1493990134
H  H96  1  0.03835000  0.23668000  0.68697000  1.0 0.1493990134
H  H97  1  0.85049000  0.21831000  0.88367000  1.0 0.1707486614
H  H98  1  0.93271000  0.33085000  0.86083000  1.0 0.1493990134
H  H99  1  0.83395000  0.26648000  0.79850000  1.0 0.1790859375
H  H100  1  0.96969000  0.09686000  0.76397000  1.0 0.1278013002
C  C1  1  0.13840000  0.18330000  0.00200000  1.0 0.5727923001
C  C2  1  0.20770000  0.29770000  0.00420000  1.0 0.0111483149
C  C3  1  0.19320000  0.35930000  0.94710000  1.0 -0.0398924269
C  C4  1  0.25210000  0.46580000  0.95440000  1.0 -0.091485421
C  C5  1  0.32520000  0.51090000  0.02060000  1.0 0.1493990134
C  C6  1  0.34190000  0.44750000  0.07620000  1.0 -0.0975837175
C  C7  1  0.28400000  0.34330000  0.06760000  1.0 -0.0311590081
C  C8  1  0.38150000  0.62640000  0.03400000  1.0 -0.0200867496
C  C9  1  0.85800000  0.93590000  0.38450000  1.0 0.5727923001
C  C10  1  0.77260000  0.89370000  0.31960000  1.0 -0.0200867496
C  C11  1  0.78300000  0.85320000  0.23870000  1.0 -0.0311590081
C  C12  1  0.70270000  0.81680000  0.17760000  1.0 -0.0823062759
C  C13  1  0.61040000  0.82290000  0.19650000  1.0 0.1619315183
C  C14  1  0.59900000  0.86300000  0.27760000  1.0 -0.0823062759
C  C15  1  0.67990000  0.89720000  0.33880000  1.0 -0.0017050308
C  C16  1  0.52590000  0.78650000  0.12770000  1.0 -0.0311590081
C  C17  1  0.93540000  0.81190000  0.52890000  1.0 0.5727923001
C  C18  1  0.88600000  0.69740000  0.53060000  1.0 0.0111483149
C  C19  1  0.92980000  0.64330000  0.48440000  1.0 -0.0493537555
C  C20  1  0.88290000  0.53730000  0.47510000  1.0 -0.0975837175
C  C21  1  0.78670000  0.48230000  0.51160000  1.0 0.1278013002
C  C22  1  0.74550000  0.53610000  0.56190000  1.0 -0.0975837175
C  C23  1  0.79400000  0.64200000  0.57140000  1.0 -0.0493537555
C  C24  1  0.73020000  0.36580000  0.49300000  1.0 -0.0200867496
C  C25  1  0.91320000  0.06200000  0.11670000  1.0 0.5727923001
C  C26  1  0.86380000  0.10310000  0.18590000  1.0 0.0111483149
C  C27  1  0.77470000  0.11200000  0.16900000  1.0 -0.0311590081
C  C28  1  0.72730000  0.14670000  0.23320000  1.0 -0.0583185618
C  C29  1  0.77090000  0.17190000  0.31700000  1.0 0.1401138539
C  C30  1  0.86190000  0.16530000  0.33300000  1.0 -0.091485421
C  C31  1  0.90750000  0.13030000  0.26860000  1.0 -0.0493537555
C  C32  1  0.72090000  0.20660000  0.38920000  1.0 -0.0200867496
C  C33  1  0.64180000  0.83140000  0.78240000  1.0 -0.313901699
C  C34  1  0.65850000  0.00360000  0.75110000  1.0 -0.3297888701
C  C35  1  0.76490000  0.93150000  0.68110000  1.0 0.310732783
C  C36  1  0.99800000  0.72650000  0.28520000  1.0 -0.3168465857
C  C37  1  0.11450000  0.73810000  0.16340000  1.0 -0.2820930694
C  C38  1  0.06890000  0.87680000  0.20120000  1.0 0.310732783
C  C39  1  0.86160000  0.81670000  0.99800000  1.0 0.5727923001
C  C40  1  0.79230000  0.70230000  0.99580000  1.0 0.0111483149
C  C41  1  0.80680000  0.64070000  0.05290000  1.0 -0.0398924269
C  C42  1  0.74790000  0.53420000  0.04560000  1.0 -0.091485421
C  C43  1  0.67480000  0.48910000  0.97940000  1.0 0.1493990134
C  C44  1  0.65810000  0.55250000  0.92380000  1.0 -0.0975837175
C  C45  1  0.71600000  0.65670000  0.93240000  1.0 -0.0311590081
C  C46  1  0.61850000  0.37360000  0.96600000  1.0 -0.0200867496
C  C47  1  0.14200000  0.06410000  0.61550000  1.0 0.5727923001
C  C48  1  0.22740000  0.10630000  0.68040000  1.0 -0.0200867496
C  C49  1  0.21700000  0.14680000  0.76130000  1.0 -0.0311590081
C  C50  1  0.29730000  0.18320000  0.82240000  1.0 -0.0823062759
C  C51  1  0.38960000  0.17710000  0.80350000  1.0 0.1619315183
C  C52  1  0.40100000  0.13700000  0.72240000  1.0 -0.0823062759
C  C53  1  0.32010000  0.10280000  0.66120000  1.0 -0.0017050308
C  C54  1  0.47410000  0.21350000  0.87230000  1.0 -0.0311590081
C  C55  1  0.06460000  0.18810000  0.47110000  1.0 0.5727923001
C  C56  1  0.11400000  0.30260000  0.46940000  1.0 0.0111483149
C  C57  1  0.07020000  0.35670000  0.51560000  1.0 -0.0493537555
C  C58  1  0.11710000  0.46270000  0.52490000  1.0 -0.0975837175
C  C59  1  0.21330000  0.51770000  0.48840000  1.0 0.1278013002
C  C60  1  0.25450000  0.46390000  0.43810000  1.0 -0.0975837175
C  C61  1  0.20600000  0.35800000  0.42860000  1.0 -0.0493537555
C  C62  1  0.26980000  0.63420000  0.50700000  1.0 -0.0200867496
C  C63  1  0.08680000  0.93800000  0.88330000  1.0 0.5727923001
C  C64  1  0.13620000  0.89690000  0.81410000  1.0 0.0111483149
C  C65  1  0.22530000  0.88800000  0.83100000  1.0 -0.0311590081
C  C66  1  0.27270000  0.85330000  0.76680000  1.0 -0.0583185618
C  C67  1  0.22910000  0.82810000  0.68300000  1.0 0.1401138539
C  C68  1  0.13810000  0.83470000  0.66700000  1.0 -0.091485421
C  C69  1  0.09250000  0.86970000  0.73140000  1.0 -0.0493537555
C  C70  1  0.27910000  0.79340000  0.61080000  1.0 -0.0200867496
C  C71  1  0.35820000  0.16860000  0.21760000  1.0 -0.313901699
C  C72  1  0.34150000  0.99640000  0.24890000  1.0 -0.3297888701
C  C73  1  0.23510000  0.06850000  0.31890000  1.0 0.310732783
C  C74  1  0.00200000  0.27350000  0.71480000  1.0 -0.3168465857
C  C75  1  0.88550000  0.26190000  0.83660000  1.0 -0.2820930694
C  C76  1  0.93110000  0.12320000  0.79880000  1.0 0.310732783
N  N1  1  0.68790000  0.92020000  0.73160000  1.0 -0.0200867496
N  N2  1  0.05630000  0.78250000  0.21250000  1.0 0.0158563067
N  N3  1  0.31210000  0.07980000  0.26840000  1.0 -0.0200867496
N  N4  1  0.94370000  0.21750000  0.78750000  1.0 0.0158563067
O  O1  1  0.15760000  0.13060000  0.05250000  1.0 -0.46246381
O  O2  1  0.06170000  0.15140000  0.94830000  1.0 -0.5427298312
O  O3  1  0.83830000  0.95900000  0.45900000  1.0 -0.46246381
O  O4  1  0.94600000  0.94310000  0.36070000  1.0 -0.5226579074
O  O5  1  0.89720000  0.86180000  0.57500000  1.0 -0.5315380458
O  O6  1  0.00830000  0.85060000  0.47750000  1.0 -0.488836116
O  O7  1  0.88100000  0.05550000  0.04050000  1.0 -0.4700137888
O  O8  1  0.98260000  0.03860000  0.14050000  1.0 -0.5014696483
O  O9  1  0.81880000  0.01020000  0.64260000  1.0 -0.4344953065
O  O10  1  0.12830000  0.93330000  0.14760000  1.0 -0.3962192152
O  O11  1  0.84240000  0.86940000  0.94750000  1.0 -0.46246381
O  O12  1  0.93830000  0.84860000  0.05170000  1.0 -0.5427298312
O  O13  1  0.16170000  0.04100000  0.54100000  1.0 -0.46246381
O  O14  1  0.05400000  0.05690000  0.63930000  1.0 -0.5226579074
O  O15  1  0.10280000  0.13820000  0.42500000  1.0 -0.5315380458
O  O16  1  0.99170000  0.14940000  0.52250000  1.0 -0.488836116
O  O17  1  0.11900000  0.94450000  0.95950000  1.0 -0.4700137888
O  O18  1  0.01740000  0.96140000  0.85950000  1.0 -0.5014696483
O  O19  1  0.18120000  0.98980000  0.35740000  1.0 -0.4344953065
O  O20  1  0.87170000  0.06670000  0.85240000  1.0 -0.3962192152
