# DDEC6 charges by PACMAN v1.1 (https://github.com/mtap-research/PACMAN-charge/)
data_POSFIO_ASR_pacman
_symmetry_space_group_name_H-M   'P 1'
_cell_length_a   13.44250000
_cell_length_b   14.42040000
_cell_length_c   20.44690000
_cell_angle_alpha   90.00000000
_cell_angle_beta   108.16800000
_cell_angle_gamma   90.00000000
_symmetry_Int_Tables_number   1
_chemical_formula_structural   CuH14C20(NO)4
_chemical_formula_sum   'Cu6 H84 C120 N24 O24'
_cell_volume   3765.95674063
_cell_formula_units_Z   6
loop_
 _symmetry_equiv_pos_site_id
 _symmetry_equiv_pos_as_xyz
  1  'x, y, z'
loop_
 _atom_site_type_symbol
 _atom_site_label
 _atom_site_symmetry_multiplicity
 _atom_site_fract_x
 _atom_site_fract_y
 _atom_site_fract_z
 _atom_site_occupancy
 _atom_site_charge
Cu  Cu1  1  0.28011000  0.48285000  0.51230000  1.0 0.7195148208
Cu  Cu2  1  0.71989000  0.98285000  0.98770000  1.0 0.7195148208
Cu  Cu3  1  0.71989000  0.51715000  0.48770000  1.0 0.7195148208
Cu  Cu4  1  0.28011000  0.01715000  0.01230000  1.0 0.7195148208
Cu  Cu5  1  0.50000000  0.50000000  0.00000000  1.0 0.7560916581
Cu  Cu6  1  0.50000000  0.00000000  0.50000000  1.0 0.7560916581
H  H1  1  0.28270000  0.61790000  0.70800000  1.0 0.1111898837
H  H2  1  0.71730000  0.11790000  0.79200000  1.0 0.1111898837
H  H3  1  0.71730000  0.38210000  0.29200000  1.0 0.1185076862
H  H4  1  0.28270000  0.88210000  0.20800000  1.0 0.1185076862
H  H5  1  0.34810000  0.70290000  0.80810000  1.0 0.1185076862
H  H6  1  0.65190000  0.20290000  0.69190000  1.0 0.1185076862
H  H7  1  0.65190000  0.29710000  0.19190000  1.0 0.1185076862
H  H8  1  0.34810000  0.79710000  0.30810000  1.0 0.1185076862
H  H9  1  0.51760000  0.85580000  0.71790000  1.0 0.1111898837
H  H10  1  0.48240000  0.35580000  0.78210000  1.0 0.1111898837
H  H11  1  0.48240000  0.14420000  0.28210000  1.0 0.1111898837
H  H12  1  0.51760000  0.64420000  0.21790000  1.0 0.1111898837
H  H13  1  0.45090000  0.77160000  0.61810000  1.0 0.1280723376
H  H14  1  0.54910000  0.27160000  0.88190000  1.0 0.1280723376
H  H15  1  0.54910000  0.22840000  0.38190000  1.0 0.1280723376
H  H16  1  0.45090000  0.72840000  0.11810000  1.0 0.1280723376
H  H17  1  0.62210000  0.90280000  0.83430000  1.0 0.1280723376
H  H18  1  0.37790000  0.40280000  0.66570000  1.0 0.1280723376
H  H19  1  0.37790000  0.09720000  0.16570000  1.0 0.1280723376
H  H20  1  0.62210000  0.59720000  0.33430000  1.0 0.1280723376
H  H21  1  0.51010000  0.88860000  0.98900000  1.0 0.1280723376
H  H22  1  0.48990000  0.38860000  0.51100000  1.0 0.1280723376
H  H23  1  0.48990000  0.11140000  0.01100000  1.0 0.1280723376
H  H24  1  0.51010000  0.61140000  0.48900000  1.0 0.1280723376
H  H25  1  0.19800000  0.27580000  0.28120000  1.0 0.1185076862
H  H26  1  0.80200000  0.77580000  0.21880000  1.0 0.1185076862
H  H27  1  0.80200000  0.72420000  0.71880000  1.0 0.1185076862
H  H28  1  0.19800000  0.22420000  0.78120000  1.0 0.1185076862
H  H29  1  0.22480000  0.28430000  0.17550000  1.0 0.1017593059
H  H30  1  0.77520000  0.78430000  0.32450000  1.0 0.1017593059
H  H31  1  0.77520000  0.71570000  0.82450000  1.0 0.1017593059
H  H32  1  0.22480000  0.21570000  0.67550000  1.0 0.1017593059
H  H33  1  0.45990000  0.46410000  0.25370000  1.0 0.1111898837
H  H34  1  0.54010000  0.96410000  0.24630000  1.0 0.1111898837
H  H35  1  0.54010000  0.53590000  0.74630000  1.0 0.1111898837
H  H36  1  0.45990000  0.03590000  0.75370000  1.0 0.1111898837
H  H37  1  0.42560000  0.46250000  0.35710000  1.0 0.1111898837
H  H38  1  0.57440000  0.96250000  0.14290000  1.0 0.1111898837
H  H39  1  0.57440000  0.53750000  0.64290000  1.0 0.1111898837
H  H40  1  0.42560000  0.03750000  0.85710000  1.0 0.1111898837
H  H41  1  0.33730000  0.33660000  0.98470000  1.0 0.1280723376
H  H42  1  0.66270000  0.83660000  0.51530000  1.0 0.1280723376
H  H43  1  0.66270000  0.66340000  0.01530000  1.0 0.1280723376
H  H44  1  0.33730000  0.16340000  0.48470000  1.0 0.1280723376
H  H45  1  0.47460000  0.48580000  0.14760000  1.0 0.1280723376
H  H46  1  0.52540000  0.98580000  0.35240000  1.0 0.1280723376
H  H47  1  0.52540000  0.51420000  0.85240000  1.0 0.1280723376
H  H48  1  0.47460000  0.01420000  0.64760000  1.0 0.1280723376
H  H49  1  0.31110000  0.39140000  0.79450000  1.0 0.1185076862
H  H50  1  0.68890000  0.89140000  0.70550000  1.0 0.1185076862
H  H51  1  0.68890000  0.60860000  0.20550000  1.0 0.1185076862
H  H52  1  0.31110000  0.10860000  0.29450000  1.0 0.1185076862
H  H53  1  0.18740000  0.37800000  0.68670000  1.0 0.1111898837
H  H54  1  0.81260000  0.87800000  0.81330000  1.0 0.1111898837
H  H55  1  0.81260000  0.62200000  0.31330000  1.0 0.1111898837
H  H56  1  0.18740000  0.12200000  0.18670000  1.0 0.1111898837
H  H57  1  0.02770000  0.58900000  0.73190000  1.0 0.1185076862
H  H58  1  0.97230000  0.08900000  0.76810000  1.0 0.1185076862
H  H59  1  0.97230000  0.41100000  0.26810000  1.0 0.1185076862
H  H60  1  0.02770000  0.91100000  0.23190000  1.0 0.1185076862
H  H61  1  0.15390000  0.60570000  0.83660000  1.0 0.1185076862
H  H62  1  0.84610000  0.10570000  0.66340000  1.0 0.1185076862
H  H63  1  0.84610000  0.39430000  0.16340000  1.0 0.1185076862
H  H64  1  0.15390000  0.89430000  0.33660000  1.0 0.1185076862
H  H65  1  0.88950000  0.54950000  0.63360000  1.0 0.1280723376
H  H66  1  0.11050000  0.04950000  0.86640000  1.0 0.1280723376
H  H67  1  0.11050000  0.45050000  0.36640000  1.0 0.1280723376
H  H68  1  0.88950000  0.95050000  0.13360000  1.0 0.1280723376
H  H69  1  0.90840000  0.38860000  0.48650000  1.0 0.1185076862
H  H70  1  0.09160000  0.88860000  0.01350000  1.0 0.1185076862
H  H71  1  0.09160000  0.61140000  0.51350000  1.0 0.1185076862
H  H72  1  0.90840000  0.11140000  0.98650000  1.0 0.1185076862
H  H73  1  0.39610000  0.80820000  0.89450000  1.0 0.3185336628
H  H74  1  0.60390000  0.30820000  0.60550000  1.0 0.3185336628
H  H75  1  0.60390000  0.19180000  0.10550000  1.0 0.3185336628
H  H76  1  0.39610000  0.69180000  0.39450000  1.0 0.3185336628
H  H77  1  0.27570000  0.28720000  0.07580000  1.0 0.2971043476
H  H78  1  0.72430000  0.78720000  0.42420000  1.0 0.2971043476
H  H79  1  0.72430000  0.71280000  0.92420000  1.0 0.2971043476
H  H80  1  0.27570000  0.21280000  0.57580000  1.0 0.2971043476
H  H81  1  0.07750000  0.39100000  0.57490000  1.0 0.2928217985
H  H82  1  0.92250000  0.89100000  0.92510000  1.0 0.2928217985
H  H83  1  0.92250000  0.60900000  0.42510000  1.0 0.2928217985
H  H84  1  0.07750000  0.10900000  0.07490000  1.0 0.2928217985
C  C1  1  0.33010000  0.66560000  0.71000000  1.0 -0.1007261643
C  C2  1  0.66990000  0.16560000  0.79000000  1.0 -0.1007261643
C  C3  1  0.66990000  0.33440000  0.29000000  1.0 -0.1007261643
C  C4  1  0.33010000  0.83440000  0.21000000  1.0 -0.1007261643
C  C5  1  0.36950000  0.71640000  0.77010000  1.0 -0.1604249857
C  C6  1  0.63050000  0.21640000  0.72990000  1.0 -0.1604249857
C  C7  1  0.63050000  0.28360000  0.22990000  1.0 -0.1604249857
C  C8  1  0.36950000  0.78360000  0.27010000  1.0 -0.1604249857
C  C9  1  0.44090000  0.78760000  0.77370000  1.0 0.0486177579
C  C10  1  0.55910000  0.28760000  0.72630000  1.0 0.0486177579
C  C11  1  0.55910000  0.21240000  0.22630000  1.0 0.0486177579
C  C12  1  0.44090000  0.71240000  0.27370000  1.0 0.0486177579
C  C13  1  0.47060000  0.80790000  0.71620000  1.0 -0.1467260568
C  C14  1  0.52940000  0.30790000  0.78380000  1.0 -0.1467260568
C  C15  1  0.52940000  0.19210000  0.28380000  1.0 -0.1467260568
C  C16  1  0.47060000  0.69210000  0.21620000  1.0 -0.1467260568
C  C17  1  0.43070000  0.75730000  0.65640000  1.0 -0.0900644014
C  C18  1  0.56930000  0.25730000  0.84360000  1.0 -0.0900644014
C  C19  1  0.56930000  0.24270000  0.34360000  1.0 -0.0900644014
C  C20  1  0.43070000  0.74270000  0.15640000  1.0 -0.0900644014
C  C21  1  0.36090000  0.68530000  0.65310000  1.0 -0.0168515122
C  C22  1  0.63910000  0.18530000  0.84690000  1.0 -0.0168515122
C  C23  1  0.63910000  0.31470000  0.34690000  1.0 -0.0168515122
C  C24  1  0.36090000  0.81470000  0.15310000  1.0 -0.0168515122
C  C25  1  0.32810000  0.62440000  0.59110000  1.0 0.533787448
C  C26  1  0.67190000  0.12440000  0.90890000  1.0 0.533787448
C  C27  1  0.67190000  0.37560000  0.40890000  1.0 0.533787448
C  C28  1  0.32810000  0.87560000  0.09110000  1.0 0.533787448
C  C29  1  0.49030000  0.83720000  0.83930000  1.0 0.1017593059
C  C30  1  0.50970000  0.33720000  0.66070000  1.0 0.1017593059
C  C31  1  0.50970000  0.16280000  0.16070000  1.0 0.1017593059
C  C32  1  0.49030000  0.66280000  0.33930000  1.0 0.1017593059
C  C33  1  0.57950000  0.88810000  0.86090000  1.0 -0.1207878887
C  C34  1  0.42050000  0.38810000  0.63910000  1.0 -0.1207878887
C  C35  1  0.42050000  0.11190000  0.13910000  1.0 -0.1207878887
C  C36  1  0.57950000  0.61190000  0.36090000  1.0 -0.1207878887
C  C37  1  0.51860000  0.88120000  0.94590000  1.0 0.1789631732
C  C38  1  0.48140000  0.38120000  0.55410000  1.0 0.1789631732
C  C39  1  0.48140000  0.11880000  0.05410000  1.0 0.1789631732
C  C40  1  0.51860000  0.61880000  0.44590000  1.0 0.1789631732
C  C41  1  0.24910000  0.31540000  0.27530000  1.0 -0.1007261643
C  C42  1  0.75090000  0.81540000  0.22470000  1.0 -0.1007261643
C  C43  1  0.75090000  0.68460000  0.72470000  1.0 -0.1007261643
C  C44  1  0.24910000  0.18460000  0.77530000  1.0 -0.1007261643
C  C45  1  0.26610000  0.31930000  0.21210000  1.0 -0.1650709472
C  C46  1  0.73390000  0.81930000  0.28790000  1.0 -0.1604249857
C  C47  1  0.73390000  0.68070000  0.78790000  1.0 -0.1604249857
C  C48  1  0.26610000  0.18070000  0.71210000  1.0 -0.1650709472
C  C49  1  0.34490000  0.37530000  0.20330000  1.0 0.0592528135
C  C50  1  0.65510000  0.87530000  0.29670000  1.0 0.0592528135
C  C51  1  0.65510000  0.62470000  0.79670000  1.0 0.0592528135
C  C52  1  0.34490000  0.12470000  0.70330000  1.0 0.0592528135
C  C53  1  0.40560000  0.42770000  0.25880000  1.0 -0.137560442
C  C54  1  0.59440000  0.92770000  0.24120000  1.0 -0.137560442
C  C55  1  0.59440000  0.57230000  0.74120000  1.0 -0.137560442
C  C56  1  0.40560000  0.07230000  0.75880000  1.0 -0.137560442
C  C57  1  0.38600000  0.42590000  0.32090000  1.0 -0.0900644014
C  C58  1  0.61400000  0.92590000  0.17910000  1.0 -0.0900644014
C  C59  1  0.61400000  0.57410000  0.67910000  1.0 -0.0900644014
C  C60  1  0.38600000  0.07410000  0.82090000  1.0 -0.0900644014
C  C61  1  0.30650000  0.36920000  0.32970000  1.0 -0.0168515122
C  C62  1  0.69350000  0.86920000  0.17030000  1.0 -0.0148313045
C  C63  1  0.69350000  0.63080000  0.67030000  1.0 -0.0168515122
C  C64  1  0.30650000  0.13080000  0.82970000  1.0 -0.0168515122
C  C65  1  0.28350000  0.37200000  0.39720000  1.0 0.5384572186
C  C66  1  0.71650000  0.87200000  0.10280000  1.0 0.5384572186
C  C67  1  0.71650000  0.62800000  0.60280000  1.0 0.5384572186
C  C68  1  0.28350000  0.12800000  0.89720000  1.0 0.5384572186
C  C69  1  0.36590000  0.38360000  0.13730000  1.0 0.1017593059
C  C70  1  0.63410000  0.88360000  0.36270000  1.0 0.1017593059
C  C71  1  0.63410000  0.61640000  0.86270000  1.0 0.1017593059
C  C72  1  0.36590000  0.11640000  0.63730000  1.0 0.1017593059
C  C73  1  0.35720000  0.36050000  0.02920000  1.0 0.1789631732
C  C74  1  0.64280000  0.86050000  0.47080000  1.0 0.1789631732
C  C75  1  0.64280000  0.63950000  0.97080000  1.0 0.1789631732
C  C76  1  0.35720000  0.13950000  0.52920000  1.0 0.1789631732
C  C77  1  0.43170000  0.44210000  0.11880000  1.0 -0.0900644014
C  C78  1  0.56830000  0.94210000  0.38120000  1.0 -0.0900644014
C  C79  1  0.56830000  0.55790000  0.88120000  1.0 -0.0900644014
C  C80  1  0.43170000  0.05790000  0.61880000  1.0 -0.0900644014
C  C81  1  0.25450000  0.43190000  0.78170000  1.0 -0.1007261643
C  C82  1  0.74550000  0.93190000  0.71830000  1.0 -0.1007261643
C  C83  1  0.74550000  0.56810000  0.21830000  1.0 -0.1007261643
C  C84  1  0.25450000  0.06810000  0.28170000  1.0 -0.1007261643
C  C85  1  0.17950000  0.42320000  0.71720000  1.0 -0.1604249857
C  C86  1  0.82050000  0.92320000  0.78280000  1.0 -0.1604249857
C  C87  1  0.82050000  0.57680000  0.28280000  1.0 -0.1604249857
C  C88  1  0.17950000  0.07680000  0.21720000  1.0 -0.1604249857
C  C89  1  0.09360000  0.48120000  0.69820000  1.0 0.0592528135
C  C90  1  0.90640000  0.98120000  0.80180000  1.0 0.0592528135
C  C91  1  0.90640000  0.51880000  0.30180000  1.0 0.0592528135
C  C92  1  0.09360000  0.01880000  0.19820000  1.0 0.0592528135
C  C93  1  0.08500000  0.54930000  0.74400000  1.0 -0.137560442
C  C94  1  0.91500000  0.04930000  0.75600000  1.0 -0.137560442
C  C95  1  0.91500000  0.45070000  0.25600000  1.0 -0.137560442
C  C96  1  0.08500000  0.95070000  0.24400000  1.0 -0.137560442
C  C97  1  0.16040000  0.55880000  0.80690000  1.0 -0.1007261643
C  C98  1  0.83960000  0.05880000  0.69310000  1.0 -0.1007261643
C  C99  1  0.83960000  0.44120000  0.19310000  1.0 -0.1007261643
C  C100  1  0.16040000  0.94120000  0.30690000  1.0 -0.1007261643
C  C101  1  0.24560000  0.49990000  0.82670000  1.0 -0.0168515122
C  C102  1  0.75440000  0.99990000  0.67330000  1.0 -0.0168515122
C  C103  1  0.75440000  0.50010000  0.17330000  1.0 -0.0168515122
C  C104  1  0.24560000  0.00010000  0.32670000  1.0 -0.0168515122
C  C105  1  0.32870000  0.51240000  0.89550000  1.0 0.533787448
C  C106  1  0.67130000  0.01240000  0.60450000  1.0 0.533787448
C  C107  1  0.67130000  0.48760000  0.10450000  1.0 0.533787448
C  C108  1  0.32870000  0.98760000  0.39550000  1.0 0.533787448
C  C109  1  0.01130000  0.47300000  0.63170000  1.0 0.0873477944
C  C110  1  0.98870000  0.97300000  0.86830000  1.0 0.0873477944
C  C111  1  0.98870000  0.52700000  0.36830000  1.0 0.0873477944
C  C112  1  0.01130000  0.02700000  0.13170000  1.0 0.0873477944
C  C113  1  0.91670000  0.50870000  0.60830000  1.0 -0.0769138633
C  C114  1  0.08330000  0.00870000  0.89170000  1.0 -0.0769138633
C  C115  1  0.08330000  0.49130000  0.39170000  1.0 -0.0769138633
C  C116  1  0.91670000  0.99130000  0.10830000  1.0 -0.0769138633
C  C117  1  0.92620000  0.42290000  0.52710000  1.0 0.1509173699
C  C118  1  0.07380000  0.92290000  0.97290000  1.0 0.1509173699
C  C119  1  0.07380000  0.57710000  0.47290000  1.0 0.1509173699
C  C120  1  0.92620000  0.07710000  0.02710000  1.0 0.1509173699
N  N1  1  0.86290000  0.48030000  0.54390000  1.0 -0.2887532599
N  N2  1  0.13710000  0.98030000  0.95610000  1.0 -0.2887532599
N  N3  1  0.13710000  0.51970000  0.45610000  1.0 -0.2887532599
N  N4  1  0.86290000  0.01970000  0.04390000  1.0 -0.2887532599
N  N5  1  0.42550000  0.42750000  0.05145000  1.0 -0.2887532599
N  N6  1  0.57450000  0.92750000  0.44855000  1.0 -0.2887532599
N  N7  1  0.57450000  0.57250000  0.94855000  1.0 -0.2887532599
N  N8  1  0.42550000  0.07250000  0.55145000  1.0 -0.2887532599
N  N9  1  0.59710000  0.91470000  0.92790000  1.0 -0.2992887906
N  N10  1  0.40290000  0.41470000  0.57210000  1.0 -0.2992887906
N  N11  1  0.40290000  0.08530000  0.07210000  1.0 -0.2992887906
N  N12  1  0.59710000  0.58530000  0.42790000  1.0 -0.2992887906
N  N13  1  0.45290000  0.83500000  0.89380000  1.0 -0.2112323008
N  N14  1  0.54710000  0.33500000  0.60620000  1.0 -0.2112323008
N  N15  1  0.54710000  0.16500000  0.10620000  1.0 -0.2112323008
N  N16  1  0.45290000  0.66500000  0.39380000  1.0 -0.2112323008
N  N17  1  0.32020000  0.33120000  0.07930000  1.0 -0.2302239946
N  N18  1  0.67980000  0.83120000  0.42070000  1.0 -0.2302239946
N  N19  1  0.67980000  0.66880000  0.92070000  1.0 -0.2302239946
N  N20  1  0.32020000  0.16880000  0.57930000  1.0 -0.2302239946
N  N21  1  0.02240000  0.41960000  0.57680000  1.0 -0.252577152
N  N22  1  0.97760000  0.91960000  0.92320000  1.0 -0.252577152
N  N23  1  0.97760000  0.58040000  0.42320000  1.0 -0.252577152
N  N24  1  0.02240000  0.08040000  0.07680000  1.0 -0.252577152
O  O1  1  0.27060000  0.55440000  0.59258000  1.0 -0.5504629201
O  O2  1  0.72940000  0.05440000  0.90742000  1.0 -0.5504629201
O  O3  1  0.72940000  0.44560000  0.40742000  1.0 -0.5504629201
O  O4  1  0.27060000  0.94560000  0.09258000  1.0 -0.5504629201
O  O5  1  0.35730000  0.64140000  0.53999000  1.0 -0.5664231441
O  O6  1  0.64270000  0.14140000  0.96001000  1.0 -0.5664231441
O  O7  1  0.64270000  0.35860000  0.46001000  1.0 -0.5664231441
O  O8  1  0.35730000  0.85860000  0.03999000  1.0 -0.5664231441
O  O9  1  0.31500000  0.44490000  0.43177000  1.0 -0.5363901816
O  O10  1  0.68500000  0.94490000  0.06823000  1.0 -0.5363901816
O  O11  1  0.68500000  0.55510000  0.56823000  1.0 -0.5363901816
O  O12  1  0.31500000  0.05510000  0.93177000  1.0 -0.5363901816
O  O13  1  0.23440000  0.30730000  0.41330000  1.0 -0.5824817679
O  O14  1  0.76560000  0.80730000  0.08670000  1.0 -0.5824817679
O  O15  1  0.76560000  0.69270000  0.58670000  1.0 -0.5824817679
O  O16  1  0.23440000  0.19270000  0.91330000  1.0 -0.5824817679
O  O17  1  0.40220000  0.45320000  0.91184000  1.0 -0.5363901816
O  O18  1  0.59780000  0.95320000  0.58816000  1.0 -0.5363901816
O  O19  1  0.59780000  0.54680000  0.08816000  1.0 -0.5363901816
O  O20  1  0.40220000  0.04680000  0.41184000  1.0 -0.5363901816
O  O21  1  0.32420000  0.57860000  0.93250000  1.0 -0.5504629201
O  O22  1  0.67580000  0.07860000  0.56750000  1.0 -0.5504629201
O  O23  1  0.67580000  0.42140000  0.06750000  1.0 -0.5504629201
O  O24  1  0.32420000  0.92140000  0.43250000  1.0 -0.5504629201
