# DDEC6 charges by PACMAN v1.1 (https://github.com/mtap-research/PACMAN-charge/)
data_POSWUS_ASR_pacman
_symmetry_space_group_name_H-M   'P 1'
_cell_length_a   22.41110000
_cell_length_b   22.41110000
_cell_length_c   22.41110000
_cell_angle_alpha   118.53800000
_cell_angle_beta   118.53800000
_cell_angle_gamma   118.53800000
_symmetry_Int_Tables_number   1
_chemical_formula_structural   NiC6N3ClO
_chemical_formula_sum   'Ni6 C36 N18 Cl6 O6'
_cell_volume   3509.54529039
_cell_formula_units_Z   6
loop_
 _symmetry_equiv_pos_site_id
 _symmetry_equiv_pos_as_xyz
  1  'x, y, z'
loop_
 _atom_site_type_symbol
 _atom_site_label
 _atom_site_symmetry_multiplicity
 _atom_site_fract_x
 _atom_site_fract_y
 _atom_site_fract_z
 _atom_site_occupancy
 _atom_site_charge
Ni  Ni1  1  0.30192000  0.69808000  0.00000000  1.0 0.560478565
Ni  Ni2  1  0.69808000  0.00000000  0.30192000  1.0 0.560478565
Ni  Ni3  1  0.00000000  0.30192000  0.69808000  1.0 0.560478565
Ni  Ni4  1  0.69808000  0.30192000  0.00000000  1.0 0.560478565
Ni  Ni5  1  0.30192000  0.00000000  0.69808000  1.0 0.560478565
Ni  Ni6  1  0.00000000  0.69808000  0.30192000  1.0 0.560478565
C  C1  1  0.49970000  0.68230000  0.07830000  1.0 0.1871593589
C  C2  1  0.61310000  0.73160000  0.14960000  1.0 -0.1768964631
C  C3  1  0.55700000  0.61700000  0.07490000  1.0 0.1615377485
C  C4  1  0.68230000  0.07830000  0.49970000  1.0 0.1871593589
C  C5  1  0.73160000  0.14960000  0.61310000  1.0 -0.1768964631
C  C6  1  0.61700000  0.07490000  0.55700000  1.0 0.1615377485
C  C7  1  0.07830000  0.49970000  0.68230000  1.0 0.1871593589
C  C8  1  0.14960000  0.61310000  0.73160000  1.0 -0.1768964631
C  C9  1  0.07490000  0.55700000  0.61700000  1.0 0.1615377485
C  C10  1  0.50030000  0.92170000  0.31770000  1.0 0.1871593589
C  C11  1  0.38690000  0.85040000  0.26840000  1.0 -0.1768964631
C  C12  1  0.44300000  0.92510000  0.38300000  1.0 0.1615377485
C  C13  1  0.31770000  0.50030000  0.92170000  1.0 0.1871593589
C  C14  1  0.26840000  0.38690000  0.85040000  1.0 -0.1768964631
C  C15  1  0.38300000  0.44300000  0.92510000  1.0 0.1615377485
C  C16  1  0.92170000  0.31770000  0.50030000  1.0 0.1871593589
C  C17  1  0.85040000  0.26840000  0.38690000  1.0 -0.1768964631
C  C18  1  0.92510000  0.38300000  0.44300000  1.0 0.1615377485
C  C19  1  0.50030000  0.31770000  0.92170000  1.0 0.1871593589
C  C20  1  0.38690000  0.26840000  0.85040000  1.0 -0.1768964631
C  C21  1  0.44300000  0.38300000  0.92510000  1.0 0.1615377485
C  C22  1  0.31770000  0.92170000  0.50030000  1.0 0.1871593589
C  C23  1  0.26840000  0.85040000  0.38690000  1.0 -0.1768964631
C  C24  1  0.38300000  0.92510000  0.44300000  1.0 0.1615377485
C  C25  1  0.92170000  0.50030000  0.31770000  1.0 0.1871593589
C  C26  1  0.85040000  0.38690000  0.26840000  1.0 -0.1768964631
C  C27  1  0.92510000  0.44300000  0.38300000  1.0 0.1615377485
C  C28  1  0.49970000  0.07830000  0.68230000  1.0 0.1871593589
C  C29  1  0.61310000  0.14960000  0.73160000  1.0 -0.1768964631
C  C30  1  0.55700000  0.07490000  0.61700000  1.0 0.1615377485
C  C31  1  0.68230000  0.49970000  0.07830000  1.0 0.1871593589
C  C32  1  0.73160000  0.61310000  0.14960000  1.0 -0.1768964631
C  C33  1  0.61700000  0.55700000  0.07490000  1.0 0.1615377485
C  C34  1  0.07830000  0.68230000  0.49970000  1.0 0.1871593589
C  C35  1  0.14960000  0.73160000  0.61310000  1.0 -0.1768964631
C  C36  1  0.07490000  0.61700000  0.55700000  1.0 0.1615377485
N  N1  1  0.51120000  0.76150000  0.11720000  1.0 -0.1768964631
N  N2  1  0.76150000  0.11720000  0.51120000  1.0 -0.1768964631
N  N3  1  0.11720000  0.51120000  0.76150000  1.0 -0.1768964631
N  N4  1  0.48880000  0.88280000  0.23850000  1.0 -0.1737010808
N  N5  1  0.23850000  0.48880000  0.88280000  1.0 -0.1768964631
N  N6  1  0.88280000  0.23850000  0.48880000  1.0 -0.1768964631
N  N7  1  0.48880000  0.23850000  0.88280000  1.0 -0.1768964631
N  N8  1  0.23850000  0.88280000  0.48880000  1.0 -0.1768964631
N  N9  1  0.88280000  0.48880000  0.23850000  1.0 -0.1768964631
N  N10  1  0.51120000  0.11720000  0.76150000  1.0 -0.1768964631
N  N11  1  0.76150000  0.51120000  0.11720000  1.0 -0.1768964631
N  N12  1  0.11720000  0.76150000  0.51120000  1.0 -0.1768964631
N  N13  1  0.35487000  0.64513000  0.00000000  1.0 0.0300168463
N  N14  1  0.64513000  0.00000000  0.35487000  1.0 0.0300168463
N  N15  1  0.00000000  0.35487000  0.64513000  1.0 0.0300168463
N  N16  1  0.64513000  0.35487000  0.00000000  1.0 0.0300168463
N  N17  1  0.35487000  0.00000000  0.64513000  1.0 0.0300168463
N  N18  1  0.00000000  0.64513000  0.35487000  1.0 0.0300168463
Cl  Cl1  1  0.10814000  0.50000000  0.89186000  1.0 -0.4268527311
Cl  Cl2  1  0.50000000  0.89186000  0.10814000  1.0 -0.4268527311
Cl  Cl3  1  0.89186000  0.10814000  0.50000000  1.0 -0.4268527311
Cl  Cl4  1  0.89186000  0.50000000  0.10814000  1.0 -0.4268527311
Cl  Cl5  1  0.50000000  0.10814000  0.89186000  1.0 -0.4268527311
Cl  Cl6  1  0.10814000  0.89186000  0.50000000  1.0 -0.4268527311
O  O1  1  0.66185000  0.66185000  0.13610000  1.0 -0.1535582961
O  O2  1  0.66185000  0.13610000  0.66185000  1.0 -0.1535582961
O  O3  1  0.13610000  0.66185000  0.66185000  1.0 -0.1535582961
O  O4  1  0.33815000  0.86390000  0.33815000  1.0 -0.1561101557
O  O5  1  0.33815000  0.33815000  0.86390000  1.0 -0.1535582961
O  O6  1  0.86390000  0.33815000  0.33815000  1.0 -0.1535582961
