# DDEC6 charges by PACMAN v1.1 (https://github.com/mtap-research/PACMAN-charge/)
data_POVXII_FSR_pacman
_symmetry_space_group_name_H-M   'P 1'
_cell_length_a   10.78800000
_cell_length_b   12.70200000
_cell_length_c   15.78400000
_cell_angle_alpha   90.00000000
_cell_angle_beta   90.00000000
_cell_angle_gamma   90.00000000
_symmetry_Int_Tables_number   1
_chemical_formula_structural   MnH8(CO)4
_chemical_formula_sum   'Mn12 H96 C48 O48'
_cell_volume   2162.86851398
_cell_formula_units_Z   12
loop_
 _symmetry_equiv_pos_site_id
 _symmetry_equiv_pos_as_xyz
  1  'x, y, z'
loop_
 _atom_site_type_symbol
 _atom_site_label
 _atom_site_symmetry_multiplicity
 _atom_site_fract_x
 _atom_site_fract_y
 _atom_site_fract_z
 _atom_site_occupancy
 _atom_site_charge
Mn  Mn1  1  0.95553000  0.75000000  0.36248000  1.0 1.0189883352
Mn  Mn2  1  0.54447000  0.25000000  0.86248000  1.0 1.0189883352
Mn  Mn3  1  0.04447000  0.25000000  0.63752000  1.0 1.0189883352
Mn  Mn4  1  0.45553000  0.75000000  0.13752000  1.0 1.0189883352
Mn  Mn5  1  0.68586000  0.75000000  0.28278000  1.0 1.0724143625
Mn  Mn6  1  0.81414000  0.25000000  0.78278000  1.0 1.0724143625
Mn  Mn7  1  0.31414000  0.25000000  0.71722000  1.0 1.0724143625
Mn  Mn8  1  0.18586000  0.75000000  0.21722000  1.0 1.0724143625
Mn  Mn9  1  0.00000000  0.00000000  0.50000000  1.0 1.0724143625
Mn  Mn10  1  0.50000000  0.00000000  0.00000000  1.0 1.0724143625
Mn  Mn11  1  0.00000000  0.50000000  0.50000000  1.0 1.0724143625
Mn  Mn12  1  0.50000000  0.50000000  0.00000000  1.0 1.0724143625
H  H1  1  0.62360000  0.44320000  0.39520000  1.0 0.1711602739
H  H2  1  0.87640000  0.55680000  0.89520000  1.0 0.1711602739
H  H3  1  0.37640000  0.94320000  0.60480000  1.0 0.1711602739
H  H4  1  0.12360000  0.05680000  0.10480000  1.0 0.1711602739
H  H5  1  0.37640000  0.55680000  0.60480000  1.0 0.1711602739
H  H6  1  0.12360000  0.44320000  0.10480000  1.0 0.1711602739
H  H7  1  0.62360000  0.05680000  0.39520000  1.0 0.1711602739
H  H8  1  0.87640000  0.94320000  0.89520000  1.0 0.1711602739
H  H9  1  0.58800000  0.54750000  0.34380000  1.0 0.1554329486
H  H10  1  0.91200000  0.45250000  0.84380000  1.0 0.1554329486
H  H11  1  0.41200000  0.04750000  0.65620000  1.0 0.1554329486
H  H12  1  0.08800000  0.95250000  0.15620000  1.0 0.1554329486
H  H13  1  0.41200000  0.45250000  0.65620000  1.0 0.1554329486
H  H14  1  0.08800000  0.54750000  0.15620000  1.0 0.1554329486
H  H15  1  0.58800000  0.95250000  0.34380000  1.0 0.1554329486
H  H16  1  0.91200000  0.04750000  0.84380000  1.0 0.1554329486
H  H17  1  0.56590000  0.54220000  0.44400000  1.0 0.1711602739
H  H18  1  0.93410000  0.45780000  0.94400000  1.0 0.1711602739
H  H19  1  0.43410000  0.04220000  0.55600000  1.0 0.1711602739
H  H20  1  0.06590000  0.95780000  0.05600000  1.0 0.1711602739
H  H21  1  0.43410000  0.45780000  0.55600000  1.0 0.1711602739
H  H22  1  0.06590000  0.54220000  0.05600000  1.0 0.1711602739
H  H23  1  0.56590000  0.95780000  0.44400000  1.0 0.1711602739
H  H24  1  0.93410000  0.04220000  0.94400000  1.0 0.1711602739
H  H25  1  0.29510000  0.49140000  0.36050000  1.0 0.176776597
H  H26  1  0.20490000  0.50860000  0.86050000  1.0 0.176776597
H  H27  1  0.70490000  0.99140000  0.63950000  1.0 0.176776597
H  H28  1  0.79510000  0.00860000  0.13950000  1.0 0.176776597
H  H29  1  0.70490000  0.50860000  0.63950000  1.0 0.176776597
H  H30  1  0.79510000  0.49140000  0.13950000  1.0 0.176776597
H  H31  1  0.29510000  0.00860000  0.36050000  1.0 0.176776597
H  H32  1  0.20490000  0.99140000  0.86050000  1.0 0.176776597
H  H33  1  0.29370000  0.55000000  0.27080000  1.0 0.1554329486
H  H34  1  0.20630000  0.45000000  0.77080000  1.0 0.1554329486
H  H35  1  0.70630000  0.05000000  0.72920000  1.0 0.1554329486
H  H36  1  0.79370000  0.95000000  0.22920000  1.0 0.1554329486
H  H37  1  0.70630000  0.45000000  0.72920000  1.0 0.1554329486
H  H38  1  0.79370000  0.55000000  0.22920000  1.0 0.1554329486
H  H39  1  0.29370000  0.95000000  0.27080000  1.0 0.1554329486
H  H40  1  0.20630000  0.05000000  0.77080000  1.0 0.1554329486
H  H41  1  0.23810000  0.43370000  0.27920000  1.0 0.176776597
H  H42  1  0.26190000  0.56630000  0.77920000  1.0 0.176776597
H  H43  1  0.76190000  0.93370000  0.72080000  1.0 0.176776597
H  H44  1  0.73810000  0.06630000  0.22080000  1.0 0.176776597
H  H45  1  0.76190000  0.56630000  0.72080000  1.0 0.176776597
H  H46  1  0.73810000  0.43370000  0.22080000  1.0 0.176776597
H  H47  1  0.23810000  0.06630000  0.27920000  1.0 0.176776597
H  H48  1  0.26190000  0.93370000  0.77920000  1.0 0.176776597
H  H49  1  0.09600000  0.82210000  0.63400000  1.0 0.0731412263
H  H50  1  0.40400000  0.17790000  0.13400000  1.0 0.0731412263
H  H51  1  0.90400000  0.32210000  0.36600000  1.0 0.0731412263
H  H52  1  0.59600000  0.67790000  0.86600000  1.0 0.0731412263
H  H53  1  0.90400000  0.17790000  0.36600000  1.0 0.0731412263
H  H54  1  0.59600000  0.82210000  0.86600000  1.0 0.0731412263
H  H55  1  0.09600000  0.67790000  0.63400000  1.0 0.0731412263
H  H56  1  0.40400000  0.32210000  0.13400000  1.0 0.0731412263
H  H57  1  0.18000000  0.72230000  0.61090000  1.0 0.0806214907
H  H58  1  0.32000000  0.27770000  0.11090000  1.0 0.0806214907
H  H59  1  0.82000000  0.22230000  0.38910000  1.0 0.0806214907
H  H60  1  0.68000000  0.77770000  0.88910000  1.0 0.0806214907
H  H61  1  0.82000000  0.27770000  0.38910000  1.0 0.0806214907
H  H62  1  0.68000000  0.72230000  0.88910000  1.0 0.0806214907
H  H63  1  0.18000000  0.77770000  0.61090000  1.0 0.0806214907
H  H64  1  0.32000000  0.22230000  0.11090000  1.0 0.0806214907
H  H65  1  0.04370000  0.70560000  0.64850000  1.0 0.0806214907
H  H66  1  0.45630000  0.29440000  0.14850000  1.0 0.0806214907
H  H67  1  0.95630000  0.20560000  0.35150000  1.0 0.0806214907
H  H68  1  0.54370000  0.79440000  0.85150000  1.0 0.0806214907
H  H69  1  0.95630000  0.29440000  0.35150000  1.0 0.0806214907
H  H70  1  0.54370000  0.70560000  0.85150000  1.0 0.0806214907
H  H71  1  0.04370000  0.79440000  0.64850000  1.0 0.0806214907
H  H72  1  0.45630000  0.20560000  0.14850000  1.0 0.0806214907
H  H73  1  0.75240000  0.71400000  0.09350000  1.0 0.0806214907
H  H74  1  0.74760000  0.28600000  0.59350000  1.0 0.0806214907
H  H75  1  0.24760000  0.21400000  0.90650000  1.0 0.0806214907
H  H76  1  0.25240000  0.78600000  0.40650000  1.0 0.0806214907
H  H77  1  0.24760000  0.28600000  0.90650000  1.0 0.0806214907
H  H78  1  0.25240000  0.71400000  0.40650000  1.0 0.0806214907
H  H79  1  0.75240000  0.78600000  0.09350000  1.0 0.0806214907
H  H80  1  0.74760000  0.21400000  0.59350000  1.0 0.0806214907
H  H81  1  0.86900000  0.71330000  0.03090000  1.0 0.0806214907
H  H82  1  0.63100000  0.28670000  0.53090000  1.0 0.0806214907
H  H83  1  0.13100000  0.21330000  0.96910000  1.0 0.0806214907
H  H84  1  0.36900000  0.78670000  0.46910000  1.0 0.0806214907
H  H85  1  0.13100000  0.28670000  0.96910000  1.0 0.0806214907
H  H86  1  0.36900000  0.71330000  0.46910000  1.0 0.0806214907
H  H87  1  0.86900000  0.78670000  0.03090000  1.0 0.0806214907
H  H88  1  0.63100000  0.21330000  0.53090000  1.0 0.0806214907
H  H89  1  0.81130000  0.82270000  0.06190000  1.0 0.1024718747
H  H90  1  0.68870000  0.17730000  0.56190000  1.0 0.1024718747
H  H91  1  0.18870000  0.32270000  0.93810000  1.0 0.1024718747
H  H92  1  0.31130000  0.67730000  0.43810000  1.0 0.1024718747
H  H93  1  0.18870000  0.17730000  0.93810000  1.0 0.1024718747
H  H94  1  0.31130000  0.82270000  0.43810000  1.0 0.1024718747
H  H95  1  0.81130000  0.67730000  0.06190000  1.0 0.1024718747
H  H96  1  0.68870000  0.32270000  0.56190000  1.0 0.1024718747
C  C1  1  0.04340000  0.75000000  0.52400000  1.0 0.6105257065
C  C2  1  0.45660000  0.25000000  0.02400000  1.0 0.6105257065
C  C3  1  0.95660000  0.25000000  0.47600000  1.0 0.6105257065
C  C4  1  0.54340000  0.75000000  0.97600000  1.0 0.6105257065
C  C5  1  0.09520000  0.75000000  0.61193000  1.0 -0.4020052313
C  C6  1  0.40480000  0.25000000  0.11193000  1.0 -0.4020052313
C  C7  1  0.90480000  0.25000000  0.38807000  1.0 -0.4020052313
C  C8  1  0.59520000  0.75000000  0.88807000  1.0 -0.4020052313
C  C9  1  0.91640000  0.75000000  0.15380000  1.0 0.6797936202
C  C10  1  0.58360000  0.25000000  0.65380000  1.0 0.6797936202
C  C11  1  0.08360000  0.25000000  0.84620000  1.0 0.6797936202
C  C12  1  0.41640000  0.75000000  0.34620000  1.0 0.6797936202
C  C13  1  0.82960000  0.75000000  0.07838000  1.0 -0.4428075015
C  C14  1  0.67040000  0.25000000  0.57838000  1.0 -0.4428075015
C  C15  1  0.17040000  0.25000000  0.92162000  1.0 -0.4428075015
C  C16  1  0.32960000  0.75000000  0.42162000  1.0 -0.4428075015
C  C17  1  0.74842000  0.56295000  0.41216000  1.0 0.687396282
C  C18  1  0.75158000  0.43705000  0.91216000  1.0 0.687396282
C  C19  1  0.25158000  0.06295000  0.58784000  1.0 0.687396282
C  C20  1  0.24842000  0.93705000  0.08784000  1.0 0.687396282
C  C21  1  0.25158000  0.43705000  0.58784000  1.0 0.687396282
C  C22  1  0.24842000  0.56295000  0.08784000  1.0 0.687396282
C  C23  1  0.74842000  0.93705000  0.41216000  1.0 0.687396282
C  C24  1  0.75158000  0.06295000  0.91216000  1.0 0.687396282
C  C25  1  0.62030000  0.52020000  0.39750000  1.0 -0.6085419006
C  C26  1  0.87970000  0.47980000  0.89750000  1.0 -0.6085419006
C  C27  1  0.37970000  0.02020000  0.60250000  1.0 -0.6085419006
C  C28  1  0.12030000  0.97980000  0.10250000  1.0 -0.6085419006
C  C29  1  0.37970000  0.47980000  0.60250000  1.0 -0.6085419006
C  C30  1  0.12030000  0.52020000  0.10250000  1.0 -0.6085419006
C  C31  1  0.62030000  0.97980000  0.39750000  1.0 -0.6085419006
C  C32  1  0.87970000  0.02020000  0.89750000  1.0 -0.6085419006
C  C33  1  0.12310000  0.54699000  0.32804000  1.0 0.6658433617
C  C34  1  0.37690000  0.45301000  0.82804000  1.0 0.6658433617
C  C35  1  0.87690000  0.04699000  0.67196000  1.0 0.6658433617
C  C36  1  0.62310000  0.95301000  0.17196000  1.0 0.6658433617
C  C37  1  0.87690000  0.45301000  0.67196000  1.0 0.6658433617
C  C38  1  0.62310000  0.54699000  0.17196000  1.0 0.6658433617
C  C39  1  0.12310000  0.95301000  0.32804000  1.0 0.6658433617
C  C40  1  0.37690000  0.04699000  0.82804000  1.0 0.6658433617
C  C41  1  0.24840000  0.50160000  0.30790000  1.0 -0.6085419006
C  C42  1  0.25160000  0.49840000  0.80790000  1.0 -0.6085419006
C  C43  1  0.75160000  0.00160000  0.69210000  1.0 -0.6085419006
C  C44  1  0.74840000  0.99840000  0.19210000  1.0 -0.6085419006
C  C45  1  0.75160000  0.49840000  0.69210000  1.0 -0.6085419006
C  C46  1  0.74840000  0.50160000  0.19210000  1.0 -0.6085419006
C  C47  1  0.24840000  0.99840000  0.30790000  1.0 -0.6085419006
C  C48  1  0.25160000  0.00160000  0.80790000  1.0 -0.6085419006
O  O1  1  0.87113000  0.75000000  0.22865000  1.0 -0.6035733878
O  O2  1  0.62887000  0.25000000  0.72865000  1.0 -0.6035733878
O  O3  1  0.12887000  0.25000000  0.77135000  1.0 -0.6035733878
O  O4  1  0.37113000  0.75000000  0.27135000  1.0 -0.6035733878
O  O5  1  0.78590000  0.64233000  0.36928000  1.0 -0.6085419006
O  O6  1  0.71410000  0.35767000  0.86928000  1.0 -0.6085419006
O  O7  1  0.21410000  0.14233000  0.63072000  1.0 -0.6085419006
O  O8  1  0.28590000  0.85767000  0.13072000  1.0 -0.6085419006
O  O9  1  0.21410000  0.35767000  0.63072000  1.0 -0.6085419006
O  O10  1  0.28590000  0.64233000  0.13072000  1.0 -0.6085419006
O  O11  1  0.78590000  0.85767000  0.36928000  1.0 -0.6085419006
O  O12  1  0.71410000  0.14233000  0.86928000  1.0 -0.6085419006
O  O13  1  0.04932000  0.49173000  0.36813000  1.0 -0.5531452357
O  O14  1  0.45068000  0.50827000  0.86813000  1.0 -0.5531452357
O  O15  1  0.95068000  0.99173000  0.63187000  1.0 -0.5531452357
O  O16  1  0.54932000  0.00827000  0.13187000  1.0 -0.5531452357
O  O17  1  0.95068000  0.50827000  0.63187000  1.0 -0.5531452357
O  O18  1  0.54932000  0.49173000  0.13187000  1.0 -0.5531452357
O  O19  1  0.04932000  0.00827000  0.36813000  1.0 -0.5531452357
O  O20  1  0.45068000  0.99173000  0.86813000  1.0 -0.5531452357
O  O21  1  0.80974000  0.51826000  0.46782000  1.0 -0.5768256321
O  O22  1  0.69026000  0.48174000  0.96782000  1.0 -0.5768256321
O  O23  1  0.19026000  0.01826000  0.53218000  1.0 -0.5768256321
O  O24  1  0.30974000  0.98174000  0.03218000  1.0 -0.5768256321
O  O25  1  0.19026000  0.48174000  0.53218000  1.0 -0.5768256321
O  O26  1  0.30974000  0.51826000  0.03218000  1.0 -0.5768256321
O  O27  1  0.80974000  0.98174000  0.46782000  1.0 -0.5768256321
O  O28  1  0.69026000  0.01826000  0.96782000  1.0 -0.5768256321
O  O29  1  0.09918000  0.64224000  0.30605000  1.0 -0.6085419006
O  O30  1  0.40082000  0.35776000  0.80605000  1.0 -0.6085419006
O  O31  1  0.90082000  0.14224000  0.69395000  1.0 -0.6085419006
O  O32  1  0.59918000  0.85776000  0.19395000  1.0 -0.6085419006
O  O33  1  0.90082000  0.35776000  0.69395000  1.0 -0.6085419006
O  O34  1  0.59918000  0.64224000  0.19395000  1.0 -0.6085419006
O  O35  1  0.09918000  0.85776000  0.30605000  1.0 -0.6085419006
O  O36  1  0.40082000  0.14224000  0.80605000  1.0 -0.6085419006
O  O37  1  0.02920000  0.75000000  0.13844000  1.0 -0.5602429568
O  O38  1  0.47080000  0.25000000  0.63844000  1.0 -0.5602429568
O  O39  1  0.97080000  0.25000000  0.86156000  1.0 -0.5602429568
O  O40  1  0.52920000  0.75000000  0.36156000  1.0 -0.5602429568
O  O41  1  0.02185000  0.83379000  0.48508000  1.0 -0.5166935309
O  O42  1  0.47815000  0.16621000  0.98508000  1.0 -0.5166935309
O  O43  1  0.97815000  0.33379000  0.51492000  1.0 -0.5166935309
O  O44  1  0.52185000  0.66621000  0.01492000  1.0 -0.5166935309
O  O45  1  0.97815000  0.16621000  0.51492000  1.0 -0.5166935309
O  O46  1  0.52185000  0.83379000  0.01492000  1.0 -0.5166935309
O  O47  1  0.02185000  0.66621000  0.48508000  1.0 -0.5166935309
O  O48  1  0.47815000  0.33379000  0.98508000  1.0 -0.5166935309
