# DDEC6 charges by PACMAN v1.1 (https://github.com/mtap-research/PACMAN-charge/)
data_POWBIO_ASR_pacman
_symmetry_space_group_name_H-M   'P 1'
_cell_length_a   11.32200000
_cell_length_b   12.13900000
_cell_length_c   23.31100000
_cell_angle_alpha   83.58600000
_cell_angle_beta   81.75300000
_cell_angle_gamma   71.16900000
_symmetry_Int_Tables_number   1
_chemical_formula_structural   Ce2Cu5Si2H36W22C44(N10O33)2
_chemical_formula_sum   'Ce2 Cu5 Si2 H36 W22 C44 N20 O66'
_cell_volume   2993.64278703
_cell_formula_units_Z   1
loop_
 _symmetry_equiv_pos_site_id
 _symmetry_equiv_pos_as_xyz
  1  'x, y, z'
loop_
 _atom_site_type_symbol
 _atom_site_label
 _atom_site_symmetry_multiplicity
 _atom_site_fract_x
 _atom_site_fract_y
 _atom_site_fract_z
 _atom_site_occupancy
 _atom_site_charge
Ce  Ce1  1  0.74382000  0.76358000  0.24117000  1.0 2.2199087934
Ce  Ce2  1  0.25618000  0.23642000  0.75883000  1.0 2.2199087934
Cu  Cu1  1  0.89232000  0.25578000  0.24516000  1.0 0.7116362946
Cu  Cu2  1  0.10768000  0.74422000  0.75484000  1.0 0.7116362946
Cu  Cu3  1  0.30810000  0.36970000  0.52783000  1.0 0.5038703279
Cu  Cu4  1  0.69190000  0.63030000  0.47217000  1.0 0.5038703279
Cu  Cu5  1  0.50000000  0.00000000  0.00000000  1.0 0.2693772213
Si  Si1  1  0.13070000  0.71330000  0.26240000  1.0 1.62455066
Si  Si2  1  0.86930000  0.28670000  0.73760000  1.0 1.62455066
H  H1  1  0.72030000  0.24680000  0.16480000  1.0 0.1201213584
H  H2  1  0.27970000  0.75320000  0.83520000  1.0 0.1201213584
H  H3  1  0.91470000  0.17050000  0.00880000  1.0 0.1201213584
H  H4  1  0.08530000  0.82950000  0.99120000  1.0 0.1201213584
H  H5  1  0.07430000  0.22940000  0.13950000  1.0 0.1290149834
H  H6  1  0.92570000  0.77060000  0.86050000  1.0 0.1290149834
H  H7  1  0.75040000  0.03390000  0.03640000  1.0 0.093767316
H  H8  1  0.24960000  0.96610000  0.96360000  1.0 0.093767316
H  H9  1  0.41100000  0.26150000  0.04880000  1.0 0.1113430382
H  H10  1  0.58900000  0.73850000  0.95120000  1.0 0.1113430382
H  H11  1  0.54970000  0.35070000  0.08200000  1.0 0.1113430382
H  H12  1  0.45030000  0.64930000  0.91800000  1.0 0.1113430382
H  H13  1  0.09550000  0.29180000  0.95780000  1.0 0.1290149834
H  H14  1  0.90450000  0.70820000  0.04220000  1.0 0.1290149834
H  H15  1  0.32160000  0.21350000  0.93170000  1.0 0.1113430382
H  H16  1  0.67840000  0.78650000  0.06830000  1.0 0.1113430382
H  H17  1  0.24700000  0.06080000  0.08330000  1.0 0.096351196
H  H18  1  0.75300000  0.93920000  0.91670000  1.0 0.096351196
H  H19  1  0.71670000  0.26060000  0.35200000  1.0 0.1352137224
H  H20  1  0.28330000  0.73940000  0.64800000  1.0 0.1352137224
H  H21  1  0.89170000  0.25810000  0.48810000  1.0 0.1201213584
H  H22  1  0.10830000  0.74190000  0.51190000  1.0 0.1201213584
H  H23  1  0.07350000  0.23920000  0.32740000  1.0 0.1201213584
H  H24  1  0.92650000  0.76080000  0.67260000  1.0 0.1201213584
H  H25  1  0.06120000  0.36850000  0.48520000  1.0 0.1201213584
H  H26  1  0.93880000  0.63150000  0.51480000  1.0 0.1201213584
H  H27  1  0.25310000  0.11070000  0.38820000  1.0 0.1113430382
H  H28  1  0.74690000  0.88930000  0.61180000  1.0 0.1113430382
H  H29  1  0.39680000  0.15600000  0.44340000  1.0 0.1113430382
H  H30  1  0.60320000  0.84400000  0.55660000  1.0 0.1113430382
H  H31  1  0.53880000  0.38650000  0.43560000  1.0 0.1201213584
H  H32  1  0.46120000  0.61350000  0.56440000  1.0 0.1201213584
H  H33  1  0.75140000  0.10450000  0.51710000  1.0 0.1113430382
H  H34  1  0.24860000  0.89550000  0.48290000  1.0 0.1113430382
H  H35  1  0.53190000  0.16130000  0.57010000  1.0 0.1201213584
H  H36  1  0.46810000  0.83870000  0.42990000  1.0 0.1201213584
W  W1  1  0.91485000  0.98821000  0.26460000  1.0 2.3862980203
W  W2  1  0.08515000  0.01179000  0.73540000  1.0 2.3862980203
W  W3  1  0.01340000  0.84185000  0.13138000  1.0 2.0932234124
W  W4  1  0.98660000  0.15815000  0.86862000  1.0 2.0998016194
W  W5  1  0.01865000  0.48595000  0.24556000  1.0 2.4113255338
W  W6  1  0.98135000  0.51405000  0.75444000  1.0 2.4113255338
W  W7  1  0.23697000  0.57908000  0.13061000  1.0 2.3773097988
W  W8  1  0.76303000  0.42092000  0.86939000  1.0 2.3773097988
W  W9  1  0.31911000  0.81499000  0.14462000  1.0 2.2842508153
W  W10  1  0.68089000  0.18501000  0.85538000  1.0 2.2865029172
W  W11  1  0.21480000  0.96647000  0.28099000  1.0 2.3116269903
W  W12  1  0.78520000  0.03353000  0.71901000  1.0 2.3116269903
W  W13  1  0.03331000  0.87031000  0.38876000  1.0 2.1500825481
W  W14  1  0.96669000  0.12969000  0.61124000  1.0 2.1500825481
W  W15  1  0.26055000  0.57560000  0.39177000  1.0 2.3495550946
W  W16  1  0.73945000  0.42440000  0.60823000  1.0 2.3495550946
W  W17  1  0.35263000  0.43296000  0.26886000  1.0 2.3773097988
W  W18  1  0.64737000  0.56704000  0.73114000  1.0 2.3773097988
W  W19  1  0.93043000  0.61678000  0.36715000  1.0 2.3773097988
W  W20  1  0.06957000  0.38322000  0.63285000  1.0 2.3773097988
W  W21  1  0.44112000  0.66786000  0.28220000  1.0 2.4341797427
W  W22  1  0.55888000  0.33214000  0.71780000  1.0 2.4341797427
C  C1  1  0.79540000  0.23380000  0.14050000  1.0 -0.0343754409
C  C2  1  0.20460000  0.76620000  0.85950000  1.0 -0.0343754409
C  C3  1  0.79960000  0.20860000  0.08350000  1.0 0.1201213584
C  C4  1  0.20040000  0.79140000  0.91650000  1.0 0.1201213584
C  C5  1  0.90950000  0.18990000  0.04680000  1.0 -0.2282663985
C  C6  1  0.09050000  0.81010000  0.95320000  1.0 -0.2282663985
C  C7  1  0.01130000  0.20110000  0.06850000  1.0 0.1113430382
C  C8  1  0.98870000  0.79890000  0.93150000  1.0 0.1113430382
C  C9  1  0.00350000  0.22430000  0.12540000  1.0 -0.0436376017
C  C10  1  0.99650000  0.77570000  0.87460000  1.0 -0.0436376017
C  C11  1  0.68250000  0.10000000  0.04370000  1.0 0.0805794717
C  C12  1  0.31750000  0.90000000  0.95630000  1.0 0.0805794717
C  C13  1  0.49700000  0.22600000  0.05060000  1.0 -0.0636590078
C  C14  1  0.50300000  0.77400000  0.94940000  1.0 -0.0636590078
C  C15  1  0.57300000  0.27600000  0.06900000  1.0 -0.1097348994
C  C16  1  0.42700000  0.72400000  0.93100000  1.0 -0.1097348994
C  C17  1  0.15290000  0.23700000  0.97980000  1.0 -0.1097348994
C  C18  1  0.84710000  0.76300000  0.02020000  1.0 -0.1097348994
C  C19  1  0.27750000  0.19200000  0.96550000  1.0 -0.0636590078
C  C20  1  0.72250000  0.80800000  0.03450000  1.0 -0.0636590078
C  C21  1  0.23820000  0.10790000  0.04890000  1.0 0.0805794717
C  C22  1  0.76180000  0.89210000  0.95110000  1.0 0.0805794717
C  C23  1  0.78990000  0.25650000  0.36700000  1.0 -0.0230010267
C  C24  1  0.21010000  0.74350000  0.63300000  1.0 -0.0230010267
C  C25  1  0.78850000  0.25630000  0.42500000  1.0 0.1113430382
C  C26  1  0.21150000  0.74370000  0.57500000  1.0 0.1113430382
C  C27  1  0.89280000  0.25390000  0.44840000  1.0 -0.1991164813
C  C28  1  0.10720000  0.74610000  0.55160000  1.0 -0.1991164813
C  C29  1  0.00000000  0.24510000  0.41040000  1.0 0.1201213584
C  C30  1  0.00000000  0.75490000  0.58960000  1.0 0.1201213584
C  C31  1  0.00020000  0.24430000  0.35220000  1.0 -0.0032824636
C  C32  1  0.99980000  0.75570000  0.64780000  1.0 -0.0032824636
C  C33  1  0.12760000  0.30960000  0.46810000  1.0 0.1290149834
C  C34  1  0.87240000  0.69040000  0.53190000  1.0 0.1290149834
C  C35  1  0.23190000  0.16800000  0.41480000  1.0 -0.1014634623
C  C36  1  0.76810000  0.83200000  0.58520000  1.0 -0.1014634623
C  C37  1  0.31100000  0.19400000  0.44510000  1.0 -0.0436376017
C  C38  1  0.68900000  0.80600000  0.55490000  1.0 -0.0436376017
C  C39  1  0.56290000  0.32260000  0.46210000  1.0 0.1201213584
C  C40  1  0.43710000  0.67740000  0.53790000  1.0 0.1201213584
C  C41  1  0.68300000  0.16800000  0.50760000  1.0 -0.0857307046
C  C42  1  0.31700000  0.83200000  0.49240000  1.0 -0.0857307046
C  C43  1  0.55870000  0.19800000  0.53590000  1.0 -0.0230010267
C  C44  1  0.44130000  0.80200000  0.46410000  1.0 -0.0230010267
N  N1  1  0.89710000  0.23990000  0.16120000  1.0 -0.1991164813
N  N2  1  0.10290000  0.76010000  0.83880000  1.0 -0.1991164813
N  N3  1  0.68940000  0.19730000  0.06490000  1.0 -0.0032824636
N  N4  1  0.31060000  0.80270000  0.93510000  1.0 -0.0032824636
N  N5  1  0.56380000  0.11380000  0.03450000  1.0 -0.2993703886
N  N6  1  0.43620000  0.88620000  0.96550000  1.0 -0.2993703886
N  N7  1  0.12840000  0.18450000  0.03430000  1.0 -0.0032824636
N  N8  1  0.87160000  0.81550000  0.96570000  1.0 -0.0032824636
N  N9  1  0.33130000  0.10880000  0.00760000  1.0 -0.286714892
N  N10  1  0.66870000  0.89120000  0.99240000  1.0 -0.286714892
N  N11  1  0.89360000  0.25110000  0.33070000  1.0 -0.1991164813
N  N12  1  0.10640000  0.74890000  0.66930000  1.0 -0.1991164813
N  N13  1  0.11570000  0.24040000  0.43050000  1.0 0.009239762
N  N14  1  0.88430000  0.75960000  0.56950000  1.0 0.009239762
N  N15  1  0.24630000  0.28390000  0.47840000  1.0 -0.286714892
N  N16  1  0.75370000  0.71610000  0.52160000  1.0 -0.286714892
N  N17  1  0.67970000  0.25110000  0.46340000  1.0 0.0011446559
N  N18  1  0.32030000  0.74890000  0.53660000  1.0 0.0011446559
N  N19  1  0.48430000  0.28980000  0.50450000  1.0 -0.311551164
N  N20  1  0.51570000  0.71020000  0.49550000  1.0 -0.311551164
O  O1  1  0.80700000  0.13000000  0.25740000  1.0 -0.8068365856
O  O2  1  0.19300000  0.87000000  0.74260000  1.0 -0.8068365856
O  O3  1  0.01320000  0.34870000  0.23290000  1.0 -0.8020991488
O  O4  1  0.98680000  0.65130000  0.76710000  1.0 -0.8020991488
O  O5  1  0.29620000  0.52360000  0.46160000  1.0 -0.7725175424
O  O6  1  0.70380000  0.47640000  0.53840000  1.0 -0.7725175424
O  O7  1  0.86470000  0.56800000  0.43360000  1.0 -0.7725175424
O  O8  1  0.13530000  0.43200000  0.56640000  1.0 -0.7725175424
O  O9  1  0.59550000  0.67150000  0.28030000  1.0 -0.9494419857
O  O10  1  0.40450000  0.32850000  0.71970000  1.0 -0.9494419857
O  O11  1  0.25540000  0.63190000  0.29140000  1.0 -1.1120729252
O  O12  1  0.74460000  0.36810000  0.70860000  1.0 -1.1120729252
O  O13  1  0.34660000  0.67030000  0.10810000  1.0 -0.9652776225
O  O14  1  0.65340000  0.32970000  0.89190000  1.0 -0.9652776225
O  O15  1  0.10750000  0.70140000  0.09400000  1.0 -0.980431567
O  O16  1  0.89250000  0.29860000  0.90600000  1.0 -0.980431567
O  O17  1  0.18010000  0.88210000  0.10860000  1.0 -0.90806071
O  O18  1  0.81990000  0.11790000  0.89140000  1.0 -0.90806071
O  O19  1  0.33680000  0.49750000  0.18970000  1.0 -0.9909077092
O  O20  1  0.66320000  0.50250000  0.81030000  1.0 -0.9909077092
O  O21  1  0.26100000  0.92360000  0.20280000  1.0 -0.9427497138
O  O22  1  0.73900000  0.07640000  0.79720000  1.0 -0.9427497138
O  O23  1  0.98290000  0.95650000  0.18680000  1.0 -0.9214564218
O  O24  1  0.01710000  0.04350000  0.81320000  1.0 -0.9214564218
O  O25  1  0.89630000  0.78540000  0.16980000  1.0 -0.9962234898
O  O26  1  0.10370000  0.21460000  0.83020000  1.0 -0.9962234898
O  O27  1  0.19410000  0.42470000  0.27050000  1.0 -0.9214564218
O  O28  1  0.80590000  0.57530000  0.72950000  1.0 -0.9214564218
O  O29  1  0.86520000  0.57410000  0.23170000  1.0 -0.9494419857
O  O30  1  0.13480000  0.42590000  0.76830000  1.0 -0.9494419857
O  O31  1  0.81970000  0.89810000  0.26880000  1.0 -0.980431567
O  O32  1  0.18030000  0.10190000  0.73120000  1.0 -0.980431567
O  O33  1  0.79180000  0.68720000  0.33300000  1.0 -0.9258707269
O  O34  1  0.20820000  0.31280000  0.66700000  1.0 -0.9258707269
O  O35  1  0.96980000  0.47860000  0.32840000  1.0 -0.8810246988
O  O36  1  0.03020000  0.52140000  0.67160000  1.0 -0.8810246988
O  O37  1  0.10950000  0.55510000  0.38850000  1.0 -0.8939298197
O  O38  1  0.89050000  0.44490000  0.61150000  1.0 -0.8939298197
O  O39  1  0.34490000  0.43460000  0.35130000  1.0 -0.9427497138
O  O40  1  0.65510000  0.56540000  0.64870000  1.0 -0.9427497138
O  O41  1  0.17640000  0.73580000  0.40220000  1.0 -0.9427497138
O  O42  1  0.82360000  0.26420000  0.59780000  1.0 -0.9427497138
O  O43  1  0.91270000  0.98580000  0.34740000  1.0 -0.9041300519
O  O44  1  0.08730000  0.01420000  0.65260000  1.0 -0.9041300519
O  O45  1  0.06050000  0.05990000  0.26360000  1.0 -0.9427497138
O  O46  1  0.93950000  0.94010000  0.73640000  1.0 -0.9494419857
O  O47  1  0.48330000  0.50880000  0.26420000  1.0 -0.9214564218
O  O48  1  0.51670000  0.49120000  0.73580000  1.0 -0.9214564218
O  O49  1  0.14980000  0.95450000  0.36140000  1.0 -0.9427497138
O  O50  1  0.85020000  0.04550000  0.63860000  1.0 -0.9427497138
O  O51  1  0.34620000  0.82060000  0.29880000  1.0 -0.9427497138
O  O52  1  0.65380000  0.17940000  0.70120000  1.0 -0.9427497138
O  O53  1  0.94720000  0.75980000  0.38580000  1.0 -0.9214564218
O  O54  1  0.05280000  0.24020000  0.61420000  1.0 -0.9214564218
O  O55  1  0.41740000  0.71420000  0.20430000  1.0 -0.9562892123
O  O56  1  0.58260000  0.28580000  0.79570000  1.0 -0.9562892123
O  O57  1  0.10470000  0.52770000  0.17650000  1.0 -0.9258707269
O  O58  1  0.89530000  0.47230000  0.82350000  1.0 -0.9258707269
O  O59  1  0.41480000  0.61750000  0.36210000  1.0 -0.8810246988
O  O60  1  0.58520000  0.38250000  0.63790000  1.0 -0.8810246988
O  O61  1  0.16310000  0.73060000  0.19310000  1.0 -1.1412135168
O  O62  1  0.83690000  0.26940000  0.80690000  1.0 -1.1412135168
O  O63  1  0.08500000  0.84080000  0.28870000  1.0 -1.0973073645
O  O64  1  0.91500000  0.15920000  0.71130000  1.0 -1.0973073645
O  O65  1  0.02130000  0.65030000  0.27960000  1.0 -1.0673792763
O  O66  1  0.97870000  0.34970000  0.72040000  1.0 -1.0673792763
