# DDEC6 charges by PACMAN v1.1 (https://github.com/mtap-research/PACMAN-charge/)
data_POXZUA_ASR_pacman
_chemical_formula_sum              "C296 H176 O56 Zr12 N4"
_cell_length_a       21.908
_cell_length_b       24.098
_cell_length_c       18.762
_cell_angle_alpha    90
_cell_angle_beta     90
_cell_angle_gamma    90

_symmetry_space_group_name_H-M    "P 1"
_symmetry_Int_Tables_number       1

loop_
  _symmetry_equiv_pos_as_xyz
  'x, y, z'

loop_
  _atom_site_type_symbol
  _atom_site_label
  _atom_site_symmetry_multiplicity
  _atom_site_fract_x
  _atom_site_fract_y
  _atom_site_fract_z
  _atom_site_occupancy
 _atom_site_charge
C   C1        1.0  0.14390  0.08860  0.12120  1.0000 0.6351852782
C   C2        1.0  0.19480  0.11450  0.16160  1.0000 -0.0494864805
C   C3        1.0  0.25450  0.11010  0.13700  1.0000 -0.0886295566
H   H1        1.0  0.26254  0.09170  0.09446  1.0000 0.1331685118
C   C4        1.0  0.30200  0.13320  0.17600  1.0000 -0.1498126018
H   H2        1.0  0.34196  0.13024  0.15957  1.0000 0.1182095719
C   C5        1.0  0.29000  0.16070  0.23960  1.0000 0.0785837147
C   C6        1.0  0.23030  0.16510  0.26410  1.0000 -0.1606061478
H   H3        1.0  0.22223  0.18354  0.30667  1.0000 0.1182095719
C   C7        1.0  0.18270  0.14200  0.22510  1.0000 -0.0886295566
H   H4        1.0  0.14280  0.14500  0.24156  1.0000 0.1114653454
C   C8        1.0  0.34480  0.18960  0.27100  1.0000 0.0702433123
C   C9        1.0  0.35780  0.17770  0.34180  1.0000 -0.1438655775
H   H5        1.0  0.33358  0.15275  0.36689  1.0000 0.1182095719
C   C10       1.0  0.40710  0.20310  0.37530  1.0000 -0.1498126018
H   H6        1.0  0.41578  0.19512  0.42272  1.0000 0.1182095719
C   C11       1.0  0.44330  0.24040  0.33790  1.0000 0.0702433123
C   C12       1.0  0.43030  0.25230  0.26700  1.0000 -0.1498126018
H   H7        1.0  0.45461  0.27726  0.24193  1.0000 0.1114653454
C   C13       1.0  0.38110  0.22690  0.23350  1.0000 -0.1438655775
H   H8        1.0  0.37241  0.23489  0.18610  1.0000 0.1182095719
C   C14       1.0  0.55410  0.31980  0.46200  1.0000 0.0101793792
C   C15       1.0  0.60740  0.33860  0.42550  1.0000 -0.1748119823
H   H9        1.0  0.60853  0.33626  0.37606  1.0000 0.1114653454
C   C16       1.0  0.65880  0.36090  0.46200  1.0000 -0.1212110825
H   H10       1.0  0.69181  0.37514  0.43674  1.0000 0.1114653454
O   O1        1.0  0.08960  0.10130  0.13730  1.0000 -0.6006596729
O   O2        1.0  0.16140  0.05530  0.07030  1.0000 -0.5895828597
C   C17       1.0  0.85610  0.91140  0.12120  1.0000 0.6351852782
C   C18       1.0  0.80520  0.88550  0.16160  1.0000 -0.0494864805
C   C19       1.0  0.74550  0.88990  0.13700  1.0000 -0.0886295566
H   H11       1.0  0.73746  0.90830  0.09446  1.0000 0.1331685118
C   C20       1.0  0.69800  0.86680  0.17600  1.0000 -0.1498126018
H   H12       1.0  0.65804  0.86976  0.15957  1.0000 0.1182095719
C   C21       1.0  0.71000  0.83930  0.23960  1.0000 0.0785837147
C   C22       1.0  0.76970  0.83490  0.26410  1.0000 -0.1606061478
H   H13       1.0  0.77777  0.81646  0.30667  1.0000 0.1182095719
C   C23       1.0  0.81730  0.85800  0.22510  1.0000 -0.0886295566
H   H14       1.0  0.85720  0.85500  0.24156  1.0000 0.1114653454
C   C24       1.0  0.65520  0.81040  0.27100  1.0000 0.0702433123
C   C25       1.0  0.64220  0.82230  0.34180  1.0000 -0.1498126018
H   H15       1.0  0.66642  0.84725  0.36689  1.0000 0.1182095719
C   C26       1.0  0.59290  0.79690  0.37530  1.0000 -0.1438655775
H   H16       1.0  0.58422  0.80488  0.42272  1.0000 0.1182095719
C   C27       1.0  0.55670  0.75960  0.33790  1.0000 0.0702433123
C   C28       1.0  0.56970  0.74770  0.26700  1.0000 -0.1438655775
H   H17       1.0  0.54539  0.72274  0.24193  1.0000 0.1114653454
C   C29       1.0  0.61890  0.77310  0.23350  1.0000 -0.1438655775
H   H18       1.0  0.62759  0.76511  0.18610  1.0000 0.1182095719
C   C30       1.0  0.44590  0.68020  0.46200  1.0000 0.0219483778
C   C31       1.0  0.39260  0.66140  0.42550  1.0000 -0.1606061478
H   H19       1.0  0.39147  0.66374  0.37606  1.0000 0.1114653454
C   C32       1.0  0.34120  0.63910  0.46200  1.0000 -0.1212110825
H   H20       1.0  0.30819  0.62486  0.43674  1.0000 0.1114653454
O   O3        1.0  0.91040  0.89870  0.13730  1.0000 -0.6006596729
O   O4        1.0  0.83860  0.94470  0.07030  1.0000 -0.5895828597
C   C33       1.0  0.85610  0.08860  0.87880  1.0000 0.6351852782
C   C34       1.0  0.80520  0.11450  0.83840  1.0000 -0.0494864805
C   C35       1.0  0.74550  0.11010  0.86300  1.0000 -0.0886295566
H   H21       1.0  0.73746  0.09170  0.90554  1.0000 0.1331685118
C   C36       1.0  0.69800  0.13320  0.82400  1.0000 -0.1498126018
H   H22       1.0  0.65804  0.13024  0.84043  1.0000 0.1182095719
C   C37       1.0  0.71000  0.16070  0.76040  1.0000 0.0785837147
C   C38       1.0  0.76970  0.16510  0.73590  1.0000 -0.1606061478
H   H23       1.0  0.77777  0.18354  0.69333  1.0000 0.1182095719
C   C39       1.0  0.81730  0.14200  0.77490  1.0000 -0.0886295566
H   H24       1.0  0.85720  0.14500  0.75844  1.0000 0.1114653454
C   C40       1.0  0.65520  0.18960  0.72900  1.0000 0.0702433123
C   C41       1.0  0.64220  0.17770  0.65820  1.0000 -0.1438655775
H   H25       1.0  0.66642  0.15275  0.63311  1.0000 0.1182095719
C   C42       1.0  0.59290  0.20310  0.62470  1.0000 -0.1498126018
H   H26       1.0  0.58422  0.19512  0.57728  1.0000 0.1182095719
C   C43       1.0  0.55670  0.24040  0.66210  1.0000 0.0702433123
C   C44       1.0  0.56970  0.25230  0.73300  1.0000 -0.1498126018
H   H27       1.0  0.54539  0.27726  0.75807  1.0000 0.1114653454
C   C45       1.0  0.61890  0.22690  0.76650  1.0000 -0.1438655775
H   H28       1.0  0.62759  0.23489  0.81390  1.0000 0.1182095719
C   C46       1.0  0.44590  0.31980  0.53800  1.0000 0.0101793792
C   C47       1.0  0.39260  0.33860  0.57450  1.0000 -0.1748119823
H   H29       1.0  0.39147  0.33626  0.62394  1.0000 0.1114653454
C   C48       1.0  0.34120  0.36090  0.53800  1.0000 -0.1212110825
H   H30       1.0  0.30819  0.37514  0.56326  1.0000 0.1114653454
O   O5        1.0  0.91040  0.10130  0.86270  1.0000 -0.6006596729
O   O6        1.0  0.83860  0.05530  0.92970  1.0000 -0.5895828597
C   C49       1.0  0.14390  0.91140  0.87880  1.0000 0.6351852782
C   C50       1.0  0.19480  0.88550  0.83840  1.0000 -0.0494864805
C   C51       1.0  0.25450  0.88990  0.86300  1.0000 -0.0886295566
H   H31       1.0  0.26254  0.90830  0.90554  1.0000 0.1331685118
C   C52       1.0  0.30200  0.86680  0.82400  1.0000 -0.1498126018
H   H32       1.0  0.34196  0.86976  0.84043  1.0000 0.1182095719
C   C53       1.0  0.29000  0.83930  0.76040  1.0000 0.0785837147
C   C54       1.0  0.23030  0.83490  0.73590  1.0000 -0.1606061478
H   H33       1.0  0.22223  0.81646  0.69333  1.0000 0.1182095719
C   C55       1.0  0.18270  0.85800  0.77490  1.0000 -0.0886295566
H   H34       1.0  0.14280  0.85500  0.75844  1.0000 0.1114653454
C   C56       1.0  0.34480  0.81040  0.72900  1.0000 0.0702433123
C   C57       1.0  0.35780  0.82230  0.65820  1.0000 -0.1498126018
H   H35       1.0  0.33358  0.84725  0.63311  1.0000 0.1182095719
C   C58       1.0  0.40710  0.79690  0.62470  1.0000 -0.1438655775
H   H36       1.0  0.41578  0.80488  0.57728  1.0000 0.1182095719
C   C59       1.0  0.44330  0.75960  0.66210  1.0000 0.0702433123
C   C60       1.0  0.43030  0.74770  0.73300  1.0000 -0.1438655775
H   H37       1.0  0.45461  0.72274  0.75807  1.0000 0.1114653454
C   C61       1.0  0.38110  0.77310  0.76650  1.0000 -0.1438655775
H   H38       1.0  0.37241  0.76511  0.81390  1.0000 0.1182095719
C   C62       1.0  0.55410  0.68020  0.53800  1.0000 0.0219483778
C   C63       1.0  0.60740  0.66140  0.57450  1.0000 -0.1606061478
H   H39       1.0  0.60853  0.66374  0.62394  1.0000 0.1114653454
C   C64       1.0  0.65880  0.63910  0.53800  1.0000 -0.1212110825
H   H40       1.0  0.69181  0.62486  0.56326  1.0000 0.1114653454
O   O7        1.0  0.08960  0.89870  0.86270  1.0000 -0.6006596729
O   O8        1.0  0.16140  0.94470  0.92970  1.0000 -0.5895828597
C   C65       1.0  0.85610  0.91140  0.87880  1.0000 0.6351852782
C   C66       1.0  0.80520  0.88550  0.83840  1.0000 -0.0494864805
C   C67       1.0  0.74550  0.88990  0.86300  1.0000 -0.0886295566
H   H41       1.0  0.73746  0.90830  0.90554  1.0000 0.1331685118
C   C68       1.0  0.69800  0.86680  0.82400  1.0000 -0.1498126018
H   H42       1.0  0.65804  0.86976  0.84043  1.0000 0.1182095719
C   C69       1.0  0.71000  0.83930  0.76040  1.0000 0.0785837147
C   C70       1.0  0.76970  0.83490  0.73590  1.0000 -0.1606061478
H   H43       1.0  0.77777  0.81646  0.69333  1.0000 0.1182095719
C   C71       1.0  0.81730  0.85800  0.77490  1.0000 -0.0886295566
H   H44       1.0  0.85720  0.85500  0.75844  1.0000 0.1114653454
C   C72       1.0  0.65520  0.81040  0.72900  1.0000 0.0702433123
C   C73       1.0  0.64220  0.82230  0.65820  1.0000 -0.1498126018
H   H45       1.0  0.66642  0.84725  0.63311  1.0000 0.1182095719
C   C74       1.0  0.59290  0.79690  0.62470  1.0000 -0.1438655775
H   H46       1.0  0.58422  0.80488  0.57728  1.0000 0.1182095719
C   C75       1.0  0.55670  0.75960  0.66210  1.0000 0.0702433123
C   C76       1.0  0.56970  0.74770  0.73300  1.0000 -0.1438655775
H   H47       1.0  0.54539  0.72274  0.75807  1.0000 0.1114653454
C   C77       1.0  0.61890  0.77310  0.76650  1.0000 -0.1438655775
H   H48       1.0  0.62759  0.76511  0.81390  1.0000 0.1182095719
C   C78       1.0  0.44590  0.68020  0.53800  1.0000 0.0219483778
C   C79       1.0  0.39260  0.66140  0.57450  1.0000 -0.1606061478
H   H49       1.0  0.39147  0.66374  0.62394  1.0000 0.1114653454
C   C80       1.0  0.34120  0.63910  0.53800  1.0000 -0.1212110825
H   H50       1.0  0.30819  0.62486  0.56326  1.0000 0.1114653454
O   O9        1.0  0.91040  0.89870  0.86270  1.0000 -0.6006596729
O   O10       1.0  0.83860  0.94470  0.92970  1.0000 -0.5895828597
C   C81       1.0  0.14390  0.08860  0.87880  1.0000 0.6351852782
C   C82       1.0  0.19480  0.11450  0.83840  1.0000 -0.0494864805
C   C83       1.0  0.25450  0.11010  0.86300  1.0000 -0.0886295566
H   H51       1.0  0.26254  0.09170  0.90554  1.0000 0.1331685118
C   C84       1.0  0.30200  0.13320  0.82400  1.0000 -0.1498126018
H   H52       1.0  0.34196  0.13024  0.84043  1.0000 0.1182095719
C   C85       1.0  0.29000  0.16070  0.76040  1.0000 0.0785837147
C   C86       1.0  0.23030  0.16510  0.73590  1.0000 -0.1606061478
H   H53       1.0  0.22223  0.18354  0.69333  1.0000 0.1182095719
C   C87       1.0  0.18270  0.14200  0.77490  1.0000 -0.0886295566
H   H54       1.0  0.14280  0.14500  0.75844  1.0000 0.1114653454
C   C88       1.0  0.34480  0.18960  0.72900  1.0000 0.0702433123
C   C89       1.0  0.35780  0.17770  0.65820  1.0000 -0.1438655775
H   H55       1.0  0.33358  0.15275  0.63311  1.0000 0.1182095719
C   C90       1.0  0.40710  0.20310  0.62470  1.0000 -0.1498126018
H   H56       1.0  0.41578  0.19512  0.57728  1.0000 0.1182095719
C   C91       1.0  0.44330  0.24040  0.66210  1.0000 0.0702433123
C   C92       1.0  0.43030  0.25230  0.73300  1.0000 -0.1498126018
H   H57       1.0  0.45461  0.27726  0.75807  1.0000 0.1114653454
C   C93       1.0  0.38110  0.22690  0.76650  1.0000 -0.1438655775
H   H58       1.0  0.37241  0.23489  0.81390  1.0000 0.1182095719
C   C94       1.0  0.55410  0.31980  0.53800  1.0000 0.0101793792
C   C95       1.0  0.60740  0.33860  0.57450  1.0000 -0.1748119823
H   H59       1.0  0.60853  0.33626  0.62394  1.0000 0.1114653454
C   C96       1.0  0.65880  0.36090  0.53800  1.0000 -0.1212110825
H   H60       1.0  0.69181  0.37514  0.56326  1.0000 0.1114653454
O   O11       1.0  0.08960  0.10130  0.86270  1.0000 -0.6006596729
O   O12       1.0  0.16140  0.05530  0.92970  1.0000 -0.5895828597
C   C97       1.0  0.14390  0.91140  0.12120  1.0000 0.6269758113
C   C98       1.0  0.19480  0.88550  0.16160  1.0000 -0.0494864805
C   C99       1.0  0.25450  0.88990  0.13700  1.0000 -0.0886295566
H   H61       1.0  0.26254  0.90830  0.09446  1.0000 0.1331685118
C   C100      1.0  0.30200  0.86680  0.17600  1.0000 -0.1498126018
H   H62       1.0  0.34196  0.86976  0.15957  1.0000 0.1182095719
C   C101      1.0  0.29000  0.83930  0.23960  1.0000 0.0785837147
C   C102      1.0  0.23030  0.83490  0.26410  1.0000 -0.1606061478
H   H63       1.0  0.22223  0.81646  0.30667  1.0000 0.1182095719
C   C103      1.0  0.18270  0.85800  0.22510  1.0000 -0.0886295566
H   H64       1.0  0.14280  0.85500  0.24156  1.0000 0.1114653454
C   C104      1.0  0.34480  0.81040  0.27100  1.0000 0.0702433123
C   C105      1.0  0.35780  0.82230  0.34180  1.0000 -0.1498126018
H   H65       1.0  0.33358  0.84725  0.36689  1.0000 0.1182095719
C   C106      1.0  0.40710  0.79690  0.37530  1.0000 -0.1438655775
H   H66       1.0  0.41578  0.80488  0.42272  1.0000 0.1182095719
C   C107      1.0  0.44330  0.75960  0.33790  1.0000 0.0702433123
C   C108      1.0  0.43030  0.74770  0.26700  1.0000 -0.1438655775
H   H67       1.0  0.45461  0.72274  0.24193  1.0000 0.1114653454
C   C109      1.0  0.38110  0.77310  0.23350  1.0000 -0.1438655775
H   H68       1.0  0.37241  0.76511  0.18610  1.0000 0.1182095719
C   C110      1.0  0.55410  0.68020  0.46200  1.0000 0.0219483778
C   C111      1.0  0.60740  0.66140  0.42550  1.0000 -0.1606061478
H   H69       1.0  0.60853  0.66374  0.37606  1.0000 0.1114653454
C   C112      1.0  0.65880  0.63910  0.46200  1.0000 -0.1212110825
H   H70       1.0  0.69181  0.62486  0.43674  1.0000 0.1114653454
O   O13       1.0  0.08960  0.89870  0.13730  1.0000 -0.6006596729
O   O14       1.0  0.16140  0.94470  0.07030  1.0000 -0.5895828597
C   C113      1.0  0.85610  0.08860  0.12120  1.0000 0.6351852782
C   C114      1.0  0.80520  0.11450  0.16160  1.0000 -0.0494864805
C   C115      1.0  0.74550  0.11010  0.13700  1.0000 -0.0886295566
H   H71       1.0  0.73746  0.09170  0.09446  1.0000 0.1331685118
C   C116      1.0  0.69800  0.13320  0.17600  1.0000 -0.1498126018
H   H72       1.0  0.65804  0.13024  0.15957  1.0000 0.1182095719
C   C117      1.0  0.71000  0.16070  0.23960  1.0000 0.0785837147
C   C118      1.0  0.76970  0.16510  0.26410  1.0000 -0.1606061478
H   H73       1.0  0.77777  0.18354  0.30667  1.0000 0.1182095719
C   C119      1.0  0.81730  0.14200  0.22510  1.0000 -0.0886295566
H   H74       1.0  0.85720  0.14500  0.24156  1.0000 0.1114653454
C   C120      1.0  0.65520  0.18960  0.27100  1.0000 0.0702433123
C   C121      1.0  0.64220  0.17770  0.34180  1.0000 -0.1438655775
H   H75       1.0  0.66642  0.15275  0.36689  1.0000 0.1182095719
C   C122      1.0  0.59290  0.20310  0.37530  1.0000 -0.1498126018
H   H76       1.0  0.58422  0.19512  0.42272  1.0000 0.1182095719
C   C123      1.0  0.55670  0.24040  0.33790  1.0000 0.0702433123
C   C124      1.0  0.56970  0.25230  0.26700  1.0000 -0.1498126018
H   H77       1.0  0.54539  0.27726  0.24193  1.0000 0.1114653454
C   C125      1.0  0.61890  0.22690  0.23350  1.0000 -0.1438655775
H   H78       1.0  0.62759  0.23489  0.18610  1.0000 0.1182095719
C   C126      1.0  0.44590  0.31980  0.46200  1.0000 0.0101793792
C   C127      1.0  0.39260  0.33860  0.42550  1.0000 -0.1748119823
H   H79       1.0  0.39147  0.33626  0.37606  1.0000 0.1114653454
C   C128      1.0  0.34120  0.36090  0.46200  1.0000 -0.1212110825
H   H80       1.0  0.30819  0.37514  0.43674  1.0000 0.1114653454
O   O15       1.0  0.91040  0.10130  0.13730  1.0000 -0.6006596729
O   O16       1.0  0.83860  0.05530  0.07030  1.0000 -0.5895828597
O   O17       1.0  0.94100  0.00000  0.09600  1.0000 -1.1733196906
O   O18       1.0  0.05900  0.00000  0.09600  1.0000 -1.1733196906
O   O19       1.0  0.05900  0.00000  0.90400  1.0000 -1.1733196906
O   O20       1.0  0.94100  0.00000  0.90400  1.0000 -1.1733196906
O   O21       1.0  0.94640  0.07580  0.00000  1.0000 -1.18066115
O   O22       1.0  0.05360  0.92420  0.00000  1.0000 -1.18066115
O   O23       1.0  0.05360  0.07580  0.00000  1.0000 -1.18066115
O   O24       1.0  0.94640  0.92420  0.00000  1.0000 -1.18066115
Zr  Zr1       1.0  0.00000  0.07238  0.09493  1.0000 2.4415781863
C   C129      1.0  0.00000  0.05000  0.35040  1.0000 -0.0443779759
H   H81       1.0  0.00000  0.08329  0.32546  1.0000 0.1401888796
N   N1        1.0  0.00000  0.04990  0.42260  1.0000 -0.1779373916
O   O25       1.0  0.00000  0.04790  0.20820  1.0000 -0.5835592977
C   C130      1.0  0.00000  0.95010  0.42260  1.0000 -0.2340571962
H   H82       1.0  0.00000  0.08332  0.44732  1.0000 0.1182095719
Zr  Zr2       1.0  0.00000  0.92762  0.09493  1.0000 2.4415781863
C   C131      1.0  0.00000  0.95000  0.35040  1.0000 0.0515033335
H   H83       1.0  0.00000  0.91671  0.32546  1.0000 0.1331685118
O   O26       1.0  0.00000  0.95210  0.20820  1.0000 -0.5895828597
H   H84       1.0  0.00000  0.91668  0.44732  1.0000 0.2610395618
Zr  Zr3       1.0  0.00000  0.07238  0.90507  1.0000 2.4415781863
C   C132      1.0  0.00000  0.05000  0.64960  1.0000 -0.0443779759
H   H85       1.0  0.00000  0.08329  0.67454  1.0000 0.1401888796
N   N2        1.0  0.00000  0.04990  0.57740  1.0000 -0.1779373916
O   O27       1.0  0.00000  0.04790  0.79180  1.0000 -0.5835592977
C   C133      1.0  0.00000  0.95010  0.57740  1.0000 -0.2340571962
H   H86       1.0  0.00000  0.08332  0.55268  1.0000 0.1182095719
Zr  Zr4       1.0  0.00000  0.92762  0.90507  1.0000 2.4415781863
C   C134      1.0  0.00000  0.95000  0.64960  1.0000 0.0515033335
H   H87       1.0  0.00000  0.91671  0.67454  1.0000 0.1331685118
O   O28       1.0  0.00000  0.95210  0.79180  1.0000 -0.5895828597
H   H88       1.0  0.00000  0.91668  0.55268  1.0000 0.2610395618
Zr  Zr5       1.0  0.88872  0.00000  0.00000  1.0000 2.3937550553
Zr  Zr6       1.0  0.11128  0.00000  0.00000  1.0000 2.3937550553
C   C135      1.0  0.50000  0.26630  0.37160  1.0000 -0.0056149739
C   C136      1.0  0.50000  0.30070  0.42910  1.0000 -0.0330197036
C   C137      1.0  0.50000  0.73370  0.37160  1.0000 -0.0035607391
C   C138      1.0  0.50000  0.69930  0.42910  1.0000 -0.0249511048
C   C139      1.0  0.50000  0.26630  0.62840  1.0000 -0.0056149739
C   C140      1.0  0.50000  0.30070  0.57090  1.0000 -0.0330197036
C   C141      1.0  0.50000  0.73370  0.62840  1.0000 -0.0035607391
C   C142      1.0  0.50000  0.69930  0.57090  1.0000 -0.0249511048
C   C143      1.0  0.00000  0.00000  0.23740  1.0000 0.6269758113
C   C144      1.0  0.00000  0.00000  0.31420  1.0000 -0.103157765
C   C145      1.0  0.00000  0.00000  0.46000  1.0000 0.1401888796
C   C146      1.0  0.00000  0.00000  0.76260  1.0000 0.6269758113
C   C147      1.0  0.00000  0.00000  0.68580  1.0000 -0.103157765
C   C148      1.0  0.00000  0.00000  0.54000  1.0000 0.1401888796
C   C149      1.0  0.64390  0.58860  0.12120  1.0000 0.6351852782
C   C150      1.0  0.69480  0.61450  0.16160  1.0000 -0.0494864805
C   C151      1.0  0.75450  0.61010  0.13700  1.0000 -0.0886295566
H   H89       1.0  0.76254  0.59170  0.09446  1.0000 0.1331685118
C   C152      1.0  0.80200  0.63320  0.17600  1.0000 -0.1498126018
H   H90       1.0  0.84196  0.63024  0.15957  1.0000 0.1182095719
C   C153      1.0  0.79000  0.66070  0.23960  1.0000 0.0785837147
C   C154      1.0  0.73030  0.66510  0.26410  1.0000 -0.1606061478
H   H91       1.0  0.72223  0.68354  0.30667  1.0000 0.1182095719
C   C155      1.0  0.68270  0.64200  0.22510  1.0000 -0.0886295566
H   H92       1.0  0.64280  0.64500  0.24156  1.0000 0.1114653454
C   C156      1.0  0.84480  0.68960  0.27100  1.0000 0.0702433123
C   C157      1.0  0.85780  0.67770  0.34180  1.0000 -0.1438655775
H   H93       1.0  0.83358  0.65275  0.36689  1.0000 0.1182095719
C   C158      1.0  0.90710  0.70310  0.37530  1.0000 -0.1498126018
H   H94       1.0  0.91578  0.69512  0.42272  1.0000 0.1182095719
C   C159      1.0  0.94330  0.74040  0.33790  1.0000 0.0702433123
C   C160      1.0  0.93030  0.75230  0.26700  1.0000 -0.1498126018
H   H95       1.0  0.95461  0.77726  0.24193  1.0000 0.1114653454
C   C161      1.0  0.88110  0.72690  0.23350  1.0000 -0.1438655775
H   H96       1.0  0.87241  0.73489  0.18610  1.0000 0.1182095719
C   C162      1.0  0.05410  0.81980  0.46200  1.0000 0.0101793792
C   C163      1.0  0.10740  0.83860  0.42550  1.0000 -0.1779373916
H   H97       1.0  0.10853  0.83626  0.37606  1.0000 0.1114653454
C   C164      1.0  0.15880  0.86090  0.46200  1.0000 -0.1212110825
H   H98       1.0  0.19181  0.87514  0.43674  1.0000 0.1114653454
O   O29       1.0  0.58960  0.60130  0.13730  1.0000 -0.6006596729
O   O30       1.0  0.66140  0.55530  0.07030  1.0000 -0.5895828597
C   C165      1.0  0.35610  0.41140  0.12120  1.0000 0.6351852782
C   C166      1.0  0.30520  0.38550  0.16160  1.0000 -0.0494864805
C   C167      1.0  0.24550  0.38990  0.13700  1.0000 -0.0886295566
H   H99       1.0  0.23746  0.40830  0.09446  1.0000 0.1331685118
C   C168      1.0  0.19800  0.36680  0.17600  1.0000 -0.1498126018
H   H100      1.0  0.15804  0.36976  0.15957  1.0000 0.1182095719
C   C169      1.0  0.21000  0.33930  0.23960  1.0000 0.0785837147
C   C170      1.0  0.26970  0.33490  0.26410  1.0000 -0.1606061478
H   H101      1.0  0.27777  0.31646  0.30667  1.0000 0.1182095719
C   C171      1.0  0.31730  0.35800  0.22510  1.0000 -0.0886295566
H   H102      1.0  0.35720  0.35500  0.24156  1.0000 0.1114653454
C   C172      1.0  0.15520  0.31040  0.27100  1.0000 0.0702433123
C   C173      1.0  0.14220  0.32230  0.34180  1.0000 -0.1438655775
H   H103      1.0  0.16642  0.34725  0.36689  1.0000 0.1182095719
C   C174      1.0  0.09290  0.29690  0.37530  1.0000 -0.1438655775
H   H104      1.0  0.08422  0.30488  0.42272  1.0000 0.1182095719
C   C175      1.0  0.05670  0.25960  0.33790  1.0000 0.0702433123
C   C176      1.0  0.06970  0.24770  0.26700  1.0000 -0.1438655775
H   H105      1.0  0.04539  0.22274  0.24193  1.0000 0.1114653454
C   C177      1.0  0.11890  0.27310  0.23350  1.0000 -0.1438655775
H   H106      1.0  0.12759  0.26511  0.18610  1.0000 0.1182095719
C   C178      1.0  0.94590  0.18020  0.46200  1.0000 0.0219483778
C   C179      1.0  0.89260  0.16140  0.42550  1.0000 -0.1606061478
H   H107      1.0  0.89147  0.16374  0.37606  1.0000 0.1114653454
C   C180      1.0  0.84120  0.13910  0.46200  1.0000 -0.1212110825
H   H108      1.0  0.80819  0.12486  0.43674  1.0000 0.1114653454
O   O31       1.0  0.41040  0.39870  0.13730  1.0000 -0.6006596729
O   O32       1.0  0.33860  0.44470  0.07030  1.0000 -0.5895828597
C   C181      1.0  0.35610  0.58860  0.87880  1.0000 0.6351852782
C   C182      1.0  0.30520  0.61450  0.83840  1.0000 -0.0494864805
C   C183      1.0  0.24550  0.61010  0.86300  1.0000 -0.0886295566
H   H109      1.0  0.23746  0.59170  0.90554  1.0000 0.1331685118
C   C184      1.0  0.19800  0.63320  0.82400  1.0000 -0.1498126018
H   H110      1.0  0.15804  0.63024  0.84043  1.0000 0.1182095719
C   C185      1.0  0.21000  0.66070  0.76040  1.0000 0.0785837147
C   C186      1.0  0.26970  0.66510  0.73590  1.0000 -0.1606061478
H   H111      1.0  0.27777  0.68354  0.69333  1.0000 0.1182095719
C   C187      1.0  0.31730  0.64200  0.77490  1.0000 -0.0886295566
H   H112      1.0  0.35720  0.64500  0.75844  1.0000 0.1114653454
C   C188      1.0  0.15520  0.68960  0.72900  1.0000 0.0702433123
C   C189      1.0  0.14220  0.67770  0.65820  1.0000 -0.1438655775
H   H113      1.0  0.16642  0.65275  0.63311  1.0000 0.1182095719
C   C190      1.0  0.09290  0.70310  0.62470  1.0000 -0.1498126018
H   H114      1.0  0.08422  0.69512  0.57728  1.0000 0.1182095719
C   C191      1.0  0.05670  0.74040  0.66210  1.0000 0.0702433123
C   C192      1.0  0.06970  0.75230  0.73300  1.0000 -0.1498126018
H   H115      1.0  0.04539  0.77726  0.75807  1.0000 0.1114653454
C   C193      1.0  0.11890  0.72690  0.76650  1.0000 -0.1438655775
H   H116      1.0  0.12759  0.73489  0.81390  1.0000 0.1182095719
C   C194      1.0  0.94590  0.81980  0.53800  1.0000 0.0101793792
C   C195      1.0  0.89260  0.83860  0.57450  1.0000 -0.1748119823
H   H117      1.0  0.89147  0.83626  0.62394  1.0000 0.1114653454
C   C196      1.0  0.84120  0.86090  0.53800  1.0000 -0.1212110825
H   H118      1.0  0.80819  0.87514  0.56326  1.0000 0.1114653454
O   O33       1.0  0.41040  0.60130  0.86270  1.0000 -0.6006596729
O   O34       1.0  0.33860  0.55530  0.92970  1.0000 -0.5895828597
C   C197      1.0  0.64390  0.41140  0.87880  1.0000 0.6351852782
C   C198      1.0  0.69480  0.38550  0.83840  1.0000 -0.0494864805
C   C199      1.0  0.75450  0.38990  0.86300  1.0000 -0.0886295566
H   H119      1.0  0.76254  0.40830  0.90554  1.0000 0.1331685118
C   C200      1.0  0.80200  0.36680  0.82400  1.0000 -0.1498126018
H   H120      1.0  0.84196  0.36976  0.84043  1.0000 0.1182095719
C   C201      1.0  0.79000  0.33930  0.76040  1.0000 0.0785837147
C   C202      1.0  0.73030  0.33490  0.73590  1.0000 -0.1606061478
H   H121      1.0  0.72223  0.31646  0.69333  1.0000 0.1182095719
C   C203      1.0  0.68270  0.35800  0.77490  1.0000 -0.0886295566
H   H122      1.0  0.64280  0.35500  0.75844  1.0000 0.1114653454
C   C204      1.0  0.84480  0.31040  0.72900  1.0000 0.0702433123
C   C205      1.0  0.85780  0.32230  0.65820  1.0000 -0.1438655775
H   H123      1.0  0.83358  0.34725  0.63311  1.0000 0.1182095719
C   C206      1.0  0.90710  0.29690  0.62470  1.0000 -0.1438655775
H   H124      1.0  0.91578  0.30488  0.57728  1.0000 0.1182095719
C   C207      1.0  0.94330  0.25960  0.66210  1.0000 0.0702433123
C   C208      1.0  0.93030  0.24770  0.73300  1.0000 -0.1438655775
H   H125      1.0  0.95461  0.22274  0.75807  1.0000 0.1114653454
C   C209      1.0  0.88110  0.27310  0.76650  1.0000 -0.1438655775
H   H126      1.0  0.87241  0.26511  0.81390  1.0000 0.1182095719
C   C210      1.0  0.05410  0.18020  0.53800  1.0000 0.0219483778
C   C211      1.0  0.10740  0.16140  0.57450  1.0000 -0.1606061478
H   H127      1.0  0.10853  0.16374  0.62394  1.0000 0.1114653454
C   C212      1.0  0.15880  0.13910  0.53800  1.0000 -0.1212110825
H   H128      1.0  0.19181  0.12486  0.56326  1.0000 0.1114653454
O   O35       1.0  0.58960  0.39870  0.86270  1.0000 -0.6006596729
O   O36       1.0  0.66140  0.44470  0.92970  1.0000 -0.5895828597
C   C213      1.0  0.35610  0.41140  0.87880  1.0000 0.6351852782
C   C214      1.0  0.30520  0.38550  0.83840  1.0000 -0.0494864805
C   C215      1.0  0.24550  0.38990  0.86300  1.0000 -0.0886295566
H   H129      1.0  0.23746  0.40830  0.90554  1.0000 0.1331685118
C   C216      1.0  0.19800  0.36680  0.82400  1.0000 -0.1498126018
H   H130      1.0  0.15804  0.36976  0.84043  1.0000 0.1182095719
C   C217      1.0  0.21000  0.33930  0.76040  1.0000 0.0785837147
C   C218      1.0  0.26970  0.33490  0.73590  1.0000 -0.1606061478
H   H131      1.0  0.27777  0.31646  0.69333  1.0000 0.1182095719
C   C219      1.0  0.31730  0.35800  0.77490  1.0000 -0.0886295566
H   H132      1.0  0.35720  0.35500  0.75844  1.0000 0.1114653454
C   C220      1.0  0.15520  0.31040  0.72900  1.0000 0.0702433123
C   C221      1.0  0.14220  0.32230  0.65820  1.0000 -0.1498126018
H   H133      1.0  0.16642  0.34725  0.63311  1.0000 0.1182095719
C   C222      1.0  0.09290  0.29690  0.62470  1.0000 -0.1438655775
H   H134      1.0  0.08422  0.30488  0.57728  1.0000 0.1182095719
C   C223      1.0  0.05670  0.25960  0.66210  1.0000 0.0702433123
C   C224      1.0  0.06970  0.24770  0.73300  1.0000 -0.1438655775
H   H135      1.0  0.04539  0.22274  0.75807  1.0000 0.1114653454
C   C225      1.0  0.11890  0.27310  0.76650  1.0000 -0.1438655775
H   H136      1.0  0.12759  0.26511  0.81390  1.0000 0.1182095719
C   C226      1.0  0.94590  0.18020  0.53800  1.0000 0.0219483778
C   C227      1.0  0.89260  0.16140  0.57450  1.0000 -0.1606061478
H   H137      1.0  0.89147  0.16374  0.62394  1.0000 0.1114653454
C   C228      1.0  0.84120  0.13910  0.53800  1.0000 -0.1212110825
H   H138      1.0  0.80819  0.12486  0.56326  1.0000 0.1114653454
O   O37       1.0  0.41040  0.39870  0.86270  1.0000 -0.6006596729
O   O38       1.0  0.33860  0.44470  0.92970  1.0000 -0.5895828597
C   C229      1.0  0.64390  0.58860  0.87880  1.0000 0.6351852782
C   C230      1.0  0.69480  0.61450  0.83840  1.0000 -0.0494864805
C   C231      1.0  0.75450  0.61010  0.86300  1.0000 -0.0886295566
H   H139      1.0  0.76254  0.59170  0.90554  1.0000 0.1331685118
C   C232      1.0  0.80200  0.63320  0.82400  1.0000 -0.1498126018
H   H140      1.0  0.84196  0.63024  0.84043  1.0000 0.1182095719
C   C233      1.0  0.79000  0.66070  0.76040  1.0000 0.0785837147
C   C234      1.0  0.73030  0.66510  0.73590  1.0000 -0.1606061478
H   H141      1.0  0.72223  0.68354  0.69333  1.0000 0.1182095719
C   C235      1.0  0.68270  0.64200  0.77490  1.0000 -0.0886295566
H   H142      1.0  0.64280  0.64500  0.75844  1.0000 0.1114653454
C   C236      1.0  0.84480  0.68960  0.72900  1.0000 0.0702433123
C   C237      1.0  0.85780  0.67770  0.65820  1.0000 -0.1438655775
H   H143      1.0  0.83358  0.65275  0.63311  1.0000 0.1182095719
C   C238      1.0  0.90710  0.70310  0.62470  1.0000 -0.1498126018
H   H144      1.0  0.91578  0.69512  0.57728  1.0000 0.1182095719
C   C239      1.0  0.94330  0.74040  0.66210  1.0000 0.0702433123
C   C240      1.0  0.93030  0.75230  0.73300  1.0000 -0.1498126018
H   H145      1.0  0.95461  0.77726  0.75807  1.0000 0.1114653454
C   C241      1.0  0.88110  0.72690  0.76650  1.0000 -0.1438655775
H   H146      1.0  0.87241  0.73489  0.81390  1.0000 0.1182095719
C   C242      1.0  0.05410  0.81980  0.53800  1.0000 0.0101793792
C   C243      1.0  0.10740  0.83860  0.57450  1.0000 -0.1779373916
H   H147      1.0  0.10853  0.83626  0.62394  1.0000 0.1114653454
C   C244      1.0  0.15880  0.86090  0.53800  1.0000 -0.1212110825
H   H148      1.0  0.19181  0.87514  0.56326  1.0000 0.1114653454
O   O39       1.0  0.58960  0.60130  0.86270  1.0000 -0.6006596729
O   O40       1.0  0.66140  0.55530  0.92970  1.0000 -0.5895828597
C   C245      1.0  0.64390  0.41140  0.12120  1.0000 0.6351852782
C   C246      1.0  0.69480  0.38550  0.16160  1.0000 -0.0494864805
C   C247      1.0  0.75450  0.38990  0.13700  1.0000 -0.0886295566
H   H149      1.0  0.76254  0.40830  0.09446  1.0000 0.1331685118
C   C248      1.0  0.80200  0.36680  0.17600  1.0000 -0.1498126018
H   H150      1.0  0.84196  0.36976  0.15957  1.0000 0.1182095719
C   C249      1.0  0.79000  0.33930  0.23960  1.0000 0.0785837147
C   C250      1.0  0.73030  0.33490  0.26410  1.0000 -0.1606061478
H   H151      1.0  0.72223  0.31646  0.30667  1.0000 0.1182095719
C   C251      1.0  0.68270  0.35800  0.22510  1.0000 -0.0886295566
H   H152      1.0  0.64280  0.35500  0.24156  1.0000 0.1114653454
C   C252      1.0  0.84480  0.31040  0.27100  1.0000 0.0702433123
C   C253      1.0  0.85780  0.32230  0.34180  1.0000 -0.1438655775
H   H153      1.0  0.83358  0.34725  0.36689  1.0000 0.1182095719
C   C254      1.0  0.90710  0.29690  0.37530  1.0000 -0.1438655775
H   H154      1.0  0.91578  0.30488  0.42272  1.0000 0.1182095719
C   C255      1.0  0.94330  0.25960  0.33790  1.0000 0.0702433123
C   C256      1.0  0.93030  0.24770  0.26700  1.0000 -0.1438655775
H   H155      1.0  0.95461  0.22274  0.24193  1.0000 0.1114653454
C   C257      1.0  0.88110  0.27310  0.23350  1.0000 -0.1438655775
H   H156      1.0  0.87241  0.26511  0.18610  1.0000 0.1182095719
C   C258      1.0  0.05410  0.18020  0.46200  1.0000 0.0219483778
C   C259      1.0  0.10740  0.16140  0.42550  1.0000 -0.1606061478
H   H157      1.0  0.10853  0.16374  0.37606  1.0000 0.1114653454
C   C260      1.0  0.15880  0.13910  0.46200  1.0000 -0.1212110825
H   H158      1.0  0.19181  0.12486  0.43674  1.0000 0.1114653454
O   O41       1.0  0.58960  0.39870  0.13730  1.0000 -0.6006596729
O   O42       1.0  0.66140  0.44470  0.07030  1.0000 -0.5895828597
C   C261      1.0  0.35610  0.58860  0.12120  1.0000 0.6351852782
C   C262      1.0  0.30520  0.61450  0.16160  1.0000 -0.0494864805
C   C263      1.0  0.24550  0.61010  0.13700  1.0000 -0.0886295566
H   H159      1.0  0.23746  0.59170  0.09446  1.0000 0.1331685118
C   C264      1.0  0.19800  0.63320  0.17600  1.0000 -0.1498126018
H   H160      1.0  0.15804  0.63024  0.15957  1.0000 0.1182095719
C   C265      1.0  0.21000  0.66070  0.23960  1.0000 0.0785837147
C   C266      1.0  0.26970  0.66510  0.26410  1.0000 -0.1606061478
H   H161      1.0  0.27777  0.68354  0.30667  1.0000 0.1182095719
C   C267      1.0  0.31730  0.64200  0.22510  1.0000 -0.0886295566
H   H162      1.0  0.35720  0.64500  0.24156  1.0000 0.1114653454
C   C268      1.0  0.15520  0.68960  0.27100  1.0000 0.0702433123
C   C269      1.0  0.14220  0.67770  0.34180  1.0000 -0.1438655775
H   H163      1.0  0.16642  0.65275  0.36689  1.0000 0.1182095719
C   C270      1.0  0.09290  0.70310  0.37530  1.0000 -0.1498126018
H   H164      1.0  0.08422  0.69512  0.42272  1.0000 0.1182095719
C   C271      1.0  0.05670  0.74040  0.33790  1.0000 0.0702433123
C   C272      1.0  0.06970  0.75230  0.26700  1.0000 -0.1498126018
H   H165      1.0  0.04539  0.77726  0.24193  1.0000 0.1114653454
C   C273      1.0  0.11890  0.72690  0.23350  1.0000 -0.1438655775
H   H166      1.0  0.12759  0.73489  0.18610  1.0000 0.1182095719
C   C274      1.0  0.94590  0.81980  0.46200  1.0000 0.0101793792
C   C275      1.0  0.89260  0.83860  0.42550  1.0000 -0.1748119823
H   H167      1.0  0.89147  0.83626  0.37606  1.0000 0.1114653454
C   C276      1.0  0.84120  0.86090  0.46200  1.0000 -0.1212110825
H   H168      1.0  0.80819  0.87514  0.43674  1.0000 0.1114653454
O   O43       1.0  0.41040  0.60130  0.13730  1.0000 -0.6006596729
O   O44       1.0  0.33860  0.55530  0.07030  1.0000 -0.5895828597
O   O45       1.0  0.44100  0.50000  0.09600  1.0000 -1.1733196906
O   O46       1.0  0.55900  0.50000  0.09600  1.0000 -1.1733196906
O   O47       1.0  0.55900  0.50000  0.90400  1.0000 -1.1733196906
O   O48       1.0  0.44100  0.50000  0.90400  1.0000 -1.1733196906
O   O49       1.0  0.44640  0.57580  0.00000  1.0000 -1.18066115
O   O50       1.0  0.55360  0.42420  0.00000  1.0000 -1.18066115
O   O51       1.0  0.55360  0.57580  0.00000  1.0000 -1.18066115
O   O52       1.0  0.44640  0.42420  0.00000  1.0000 -1.18066115
Zr  Zr7       1.0  0.50000  0.57238  0.09493  1.0000 2.4415781863
C   C277      1.0  0.50000  0.55000  0.35040  1.0000 -0.0443779759
H   H169      1.0  0.50000  0.58329  0.32546  1.0000 0.1401888796
N   N3        1.0  0.50000  0.54990  0.42260  1.0000 -0.1779373916
O   O53       1.0  0.50000  0.54790  0.20820  1.0000 -0.5835592977
C   C278      1.0  0.50000  0.45010  0.42260  1.0000 -0.2340571962
H   H170      1.0  0.50000  0.58332  0.44732  1.0000 0.1182095719
Zr  Zr8       1.0  0.50000  0.42762  0.09493  1.0000 2.4415781863
C   C279      1.0  0.50000  0.45000  0.35040  1.0000 0.0515033335
H   H171      1.0  0.50000  0.41671  0.32546  1.0000 0.1331685118
O   O54       1.0  0.50000  0.45210  0.20820  1.0000 -0.5895828597
H   H172      1.0  0.50000  0.41668  0.44732  1.0000 0.2610395618
Zr  Zr9       1.0  0.50000  0.57238  0.90507  1.0000 2.4415781863
C   C280      1.0  0.50000  0.55000  0.64960  1.0000 -0.0443779759
H   H173      1.0  0.50000  0.58329  0.67454  1.0000 0.1401888796
N   N4        1.0  0.50000  0.54990  0.57740  1.0000 -0.1779373916
O   O55       1.0  0.50000  0.54790  0.79180  1.0000 -0.5835592977
C   C281      1.0  0.50000  0.45010  0.57740  1.0000 -0.2340571962
H   H174      1.0  0.50000  0.58332  0.55268  1.0000 0.1182095719
Zr  Zr10      1.0  0.50000  0.42762  0.90507  1.0000 2.4415781863
C   C282      1.0  0.50000  0.45000  0.64960  1.0000 0.0515033335
H   H175      1.0  0.50000  0.41671  0.67454  1.0000 0.1331685118
O   O56       1.0  0.50000  0.45210  0.79180  1.0000 -0.5895828597
H   H176      1.0  0.50000  0.41668  0.55268  1.0000 0.2610395618
Zr  Zr11      1.0  0.38872  0.50000  0.00000  1.0000 2.3937550553
Zr  Zr12      1.0  0.61128  0.50000  0.00000  1.0000 2.3937550553
C   C283      1.0  0.00000  0.76630  0.37160  1.0000 -0.0056149739
C   C284      1.0  0.00000  0.80070  0.42910  1.0000 -0.0330197036
C   C285      1.0  0.00000  0.23370  0.37160  1.0000 -0.0035607391
C   C286      1.0  0.00000  0.19930  0.42910  1.0000 -0.0249511048
C   C287      1.0  0.00000  0.76630  0.62840  1.0000 -0.0056149739
C   C288      1.0  0.00000  0.80070  0.57090  1.0000 -0.0330197036
C   C289      1.0  0.00000  0.23370  0.62840  1.0000 -0.0035607391
C   C290      1.0  0.00000  0.19930  0.57090  1.0000 -0.0249511048
C   C291      1.0  0.50000  0.50000  0.23740  1.0000 0.6269758113
C   C292      1.0  0.50000  0.50000  0.31420  1.0000 -0.103157765
C   C293      1.0  0.50000  0.50000  0.46000  1.0000 0.1401888796
C   C294      1.0  0.50000  0.50000  0.76260  1.0000 0.6269758113
C   C295      1.0  0.50000  0.50000  0.68580  1.0000 -0.103157765
C   C296      1.0  0.50000  0.50000  0.54000  1.0000 0.1401888796
  C   C297      1.0  0.00000  0.04990  0.42260  1.0000
  N   N5        1.0  0.00000  0.95010  0.42260  1.0000
  C   C298      1.0  0.00000  0.04990  0.57740  1.0000
  N   N6        1.0  0.00000  0.95010  0.57740  1.0000
  C   C299      1.0  0.50000  0.54990  0.42260  1.0000
  N   N7        1.0  0.50000  0.45010  0.42260  1.0000
  C   C300      1.0  0.50000  0.54990  0.57740  1.0000
  N   N8        1.0  0.50000  0.45010  0.57740  1.0000
