# DDEC6 charges by PACMAN v1.1 (https://github.com/mtap-research/PACMAN-charge/)
data_PRIMIN_ion_pacman
_symmetry_space_group_name_H-M   'P 1'
_cell_length_a   8.71980000
_cell_length_b   18.42180000
_cell_length_c   9.27250000
_cell_angle_alpha   90.00000000
_cell_angle_beta   108.24800000
_cell_angle_gamma   90.00000000
_symmetry_Int_Tables_number   1
_chemical_formula_structural   Pr2C12N3(ClO8)2
_chemical_formula_sum   'Pr4 C24 N6 Cl4 O32'
_cell_volume   1414.57658794
_cell_formula_units_Z   2
loop_
 _symmetry_equiv_pos_site_id
 _symmetry_equiv_pos_as_xyz
  1  'x, y, z'
loop_
 _atom_site_type_symbol
 _atom_site_label
 _atom_site_symmetry_multiplicity
 _atom_site_fract_x
 _atom_site_fract_y
 _atom_site_fract_z
 _atom_site_occupancy
 _atom_site_charge
Pr  Pr1  1  0.99110000  0.02400000  0.21790000  1.0 2.1556752411
Pr  Pr2  1  0.00890000  0.52400000  0.78210000  1.0 2.1556752411
Pr  Pr3  1  0.00890000  0.97600000  0.78210000  1.0 2.1556752411
Pr  Pr4  1  0.99110000  0.47600000  0.21790000  1.0 2.1556752411
C  C1  1  0.27210000  0.95450000  0.55070000  1.0 0.666007885
C  C2  1  0.72790000  0.45450000  0.44930000  1.0 0.666007885
C  C3  1  0.72790000  0.04550000  0.44930000  1.0 0.666007885
C  C4  1  0.27210000  0.54550000  0.55070000  1.0 0.666007885
C  C5  1  0.43560000  0.91800000  0.59150000  1.0 0.032410187
C  C6  1  0.56440000  0.41800000  0.40850000  1.0 0.032410187
C  C7  1  0.56440000  0.08200000  0.40850000  1.0 0.032410187
C  C8  1  0.43560000  0.58200000  0.59150000  1.0 0.032410187
C  C9  1  0.51410000  0.91460000  0.87920000  1.0 0.0599596301
C  C10  1  0.48590000  0.41460000  0.12080000  1.0 0.0599596301
C  C11  1  0.48590000  0.08540000  0.12080000  1.0 0.0599596301
C  C12  1  0.51410000  0.58540000  0.87920000  1.0 0.0599596301
C  C13  1  0.69510000  0.93530000  0.92600000  1.0 0.6217870799
C  C14  1  0.30490000  0.43530000  0.07400000  1.0 0.6217870799
C  C15  1  0.30490000  0.06470000  0.07400000  1.0 0.6217870799
C  C16  1  0.69510000  0.56470000  0.92600000  1.0 0.6217870799
C  C17  1  0.19280000  0.81790000  0.16990000  1.0 0.089656466
C  C18  1  0.80720000  0.31790000  0.83010000  1.0 0.0817661074
C  C19  1  0.80720000  0.18210000  0.83010000  1.0 0.0817661074
C  C20  1  0.19280000  0.68210000  0.16990000  1.0 0.089656466
C  C21  1  0.14990000  0.87840000  0.04950000  1.0 0.6217870799
C  C22  1  0.85010000  0.37840000  0.95050000  1.0 0.6217870799
C  C23  1  0.85010000  0.12160000  0.95050000  1.0 0.6217870799
C  C24  1  0.14990000  0.62160000  0.04950000  1.0 0.6217870799
N  N1  1  0.46730000  0.87190000  0.73320000  1.0 0.0599596301
N  N2  1  0.53270000  0.37190000  0.26680000  1.0 0.0544733939
N  N3  1  0.53270000  0.12810000  0.26680000  1.0 0.0544733939
N  N4  1  0.46730000  0.62810000  0.73320000  1.0 0.0599596301
N  N5  1  0.21960000  0.75000000  0.08440000  1.0 0.032410187
N  N6  1  0.78040000  0.25000000  0.91560000  1.0 0.0430861575
Cl  Cl1  1  0.80580000  0.25000000  0.39860000  1.0 -0.1307662713
Cl  Cl2  1  0.19420000  0.75000000  0.60140000  1.0 -0.1307662713
Cl  Cl3  1  0.36010000  0.25000000  0.41290000  1.0 -0.1780564177
Cl  Cl4  1  0.63990000  0.75000000  0.58710000  1.0 -0.1780564177
O  O1  1  0.22990000  0.98920000  0.42410000  1.0 -0.6284978303
O  O2  1  0.77010000  0.48920000  0.57590000  1.0 -0.6284978303
O  O3  1  0.77010000  0.01080000  0.57590000  1.0 -0.6284978303
O  O4  1  0.22990000  0.51080000  0.42410000  1.0 -0.6284978303
O  O5  1  0.18380000  0.94760000  0.63580000  1.0 -0.5993831965
O  O6  1  0.81620000  0.44760000  0.36420000  1.0 -0.5993831965
O  O7  1  0.81620000  0.05240000  0.36420000  1.0 -0.5993831965
O  O8  1  0.18380000  0.55240000  0.63580000  1.0 -0.5993831965
O  O9  1  0.74440000  0.96800000  0.05210000  1.0 -0.5993831965
O  O10  1  0.25560000  0.46800000  0.94790000  1.0 -0.5993831965
O  O11  1  0.25560000  0.03200000  0.94790000  1.0 -0.5993831965
O  O12  1  0.74440000  0.53200000  0.05210000  1.0 -0.5993831965
O  O13  1  0.76770000  0.92100000  0.83670000  1.0 -0.5755780252
O  O14  1  0.23230000  0.42100000  0.16330000  1.0 -0.5745219502
O  O15  1  0.23230000  0.07900000  0.16330000  1.0 -0.5745219502
O  O16  1  0.76770000  0.57900000  0.83670000  1.0 -0.5755780252
O  O17  1  0.08050000  0.93540000  0.08120000  1.0 -0.7507925543
O  O18  1  0.91950000  0.43540000  0.91880000  1.0 -0.7507925543
O  O19  1  0.91950000  0.06460000  0.91880000  1.0 -0.7507925543
O  O20  1  0.08050000  0.56460000  0.08120000  1.0 -0.7507925543
O  O21  1  0.17850000  0.86780000  0.92240000  1.0 -0.592872164
O  O22  1  0.82150000  0.36780000  0.07760000  1.0 -0.592872164
O  O23  1  0.82150000  0.13220000  0.07760000  1.0 -0.592872164
O  O24  1  0.17850000  0.63220000  0.92240000  1.0 -0.592872164
O  O25  1  0.07000000  0.14140000  0.37510000  1.0 -0.1210018012
O  O26  1  0.93000000  0.64140000  0.62490000  1.0 -0.1081549513
O  O27  1  0.93000000  0.85860000  0.62490000  1.0 -0.1081549513
O  O28  1  0.07000000  0.35860000  0.37510000  1.0 -0.1210018012
O  O29  1  0.92630000  0.90500000  0.32450000  1.0 -0.304460338
O  O30  1  0.07370000  0.40500000  0.67550000  1.0 -0.304460338
O  O31  1  0.07370000  0.09500000  0.67550000  1.0 -0.304460338
O  O32  1  0.92630000  0.59500000  0.32450000  1.0 -0.304460338
