# DDEC6 charges by PACMAN v1.1 (https://github.com/mtap-research/PACMAN-charge/)
data_PUCJUV_ion_pacman
_symmetry_space_group_name_H-M   'P 1'
_cell_length_a   13.40940000
_cell_length_b   13.63800000
_cell_length_c   14.51530000
_cell_angle_alpha   111.21400000
_cell_angle_beta   90.01300000
_cell_angle_gamma   111.38300000
_symmetry_Int_Tables_number   1
_chemical_formula_structural   Eu2H16Pd2Au3C34(N9O4)2
_chemical_formula_sum   'Eu4 H32 Pd4 Au6 C68 N36 O16'
_cell_volume   2277.43206723
_cell_formula_units_Z   2
loop_
 _symmetry_equiv_pos_site_id
 _symmetry_equiv_pos_as_xyz
  1  'x, y, z'
loop_
 _atom_site_type_symbol
 _atom_site_label
 _atom_site_symmetry_multiplicity
 _atom_site_fract_x
 _atom_site_fract_y
 _atom_site_fract_z
 _atom_site_occupancy
 _atom_site_charge
Eu  Eu1  1  0.17024000  0.29481000  0.42505000  1.0 1.9680820412
Eu  Eu2  1  0.82345000  0.70631000  0.06957000  1.0 1.9546146101
Eu  Eu3  1  0.82976000  0.70519000  0.57495000  1.0 1.9680820412
Eu  Eu4  1  0.17655000  0.29369000  0.93043000  1.0 1.9546146101
H  H1  1  0.63243000  0.37844000  0.50380000  1.0 0.149912305
H  H2  1  0.46260000  0.37616000  0.52317000  1.0 0.1404298029
H  H3  1  0.16575000  0.95046000  0.14418000  1.0 0.1594730622
H  H4  1  0.21441000  0.61658000  0.98537000  1.0 0.1594730622
H  H5  1  0.93431000  0.37558000  0.37767000  1.0 0.1404298029
H  H6  1  0.83634000  0.05847000  0.35361000  1.0 0.149912305
H  H7  1  0.33388000  0.04943000  0.34997000  1.0 0.1099437184
H  H8  1  0.35302000  0.61518000  0.08560000  1.0 0.1594730622
H  H9  1  0.65785000  0.93912000  0.14112000  1.0 0.1404298029
H  H10  1  0.76855000  0.37747000  0.40778000  1.0 0.1594730622
H  H11  1  0.33321000  0.94486000  0.17128000  1.0 0.1294347948
H  H12  1  0.52515000  0.61954000  0.11333000  1.0 0.1404298029
H  H13  1  0.49371000  0.94099000  0.10967000  1.0 0.1177257256
H  H14  1  0.66774000  0.05247000  0.38473000  1.0 0.1177257256
H  H15  1  0.50279000  0.04492000  0.33097000  1.0 0.1177257256
H  H16  1  0.05159000  0.62809000  0.96309000  1.0 0.1404298029
H  H17  1  0.36757000  0.62156000  0.49620000  1.0 0.149912305
H  H18  1  0.53740000  0.62384000  0.47683000  1.0 0.1404298029
H  H19  1  0.83425000  0.04954000  0.85582000  1.0 0.1594730622
H  H20  1  0.78559000  0.38342000  0.01463000  1.0 0.1594730622
H  H21  1  0.06569000  0.62442000  0.62233000  1.0 0.1404298029
H  H22  1  0.16366000  0.94153000  0.64639000  1.0 0.149912305
H  H23  1  0.66612000  0.95057000  0.65003000  1.0 0.1099437184
H  H24  1  0.64698000  0.38482000  0.91440000  1.0 0.1594730622
H  H25  1  0.34215000  0.06088000  0.85888000  1.0 0.1404298029
H  H26  1  0.23145000  0.62253000  0.59222000  1.0 0.1594730622
H  H27  1  0.66679000  0.05514000  0.82872000  1.0 0.1294347948
H  H28  1  0.47485000  0.38046000  0.88667000  1.0 0.1404298029
H  H29  1  0.50629000  0.05901000  0.89033000  1.0 0.1177257256
H  H30  1  0.33226000  0.94753000  0.61527000  1.0 0.1177257256
H  H31  1  0.49721000  0.95508000  0.66903000  1.0 0.1177257256
H  H32  1  0.94841000  0.37191000  0.03691000  1.0 0.1404298029
Pd  Pd1  1  0.93278000  0.43813000  0.73024000  1.0 0.149912305
Pd  Pd2  1  0.47497000  0.54912000  0.76570000  1.0 0.1404298029
Pd  Pd3  1  0.06722000  0.56187000  0.26976000  1.0 0.1404298029
Pd  Pd4  1  0.52503000  0.45088000  0.23430000  1.0 0.1294347948
Au  Au1  1  0.71277000  0.16844000  0.63661000  1.0 0.149912305
Au  Au2  1  0.51170000  0.17030000  0.63590000  1.0 0.149912305
Au  Au3  1  0.28723000  0.83156000  0.36339000  1.0 0.149912305
Au  Au4  1  0.48830000  0.82970000  0.36410000  1.0 0.149912305
Au  Au5  1  0.55980000  0.17045000  0.13897000  1.0 0.043636779
Au  Au6  1  0.44020000  0.82955000  0.86103000  1.0 0.043636779
C  C1  1  0.36000000  0.49060000  0.64880000  1.0 0.0910366259
C  C2  1  0.86320000  0.50010000  0.84620000  1.0 0.0812578844
C  C3  1  0.01250000  0.38820000  0.61820000  1.0 0.1099437184
C  C4  1  0.59110000  0.59950000  0.87830000  1.0 0.1099437184
C  C5  1  0.86600000  0.49740000  0.65210000  1.0 0.0812578844
C  C6  1  0.57230000  0.31060000  0.47210000  1.0 -0.1425421579
C  C7  1  0.47110000  0.30940000  0.48420000  1.0 -0.0175899337
C  C8  1  0.01220000  0.38930000  0.81130000  1.0 0.1099437184
C  C9  1  0.41100000  0.40680000  0.31670000  1.0 0.0994217849
C  C10  1  0.17610000  0.88280000  0.11340000  1.0 0.009994311
C  C11  1  0.63790000  0.50520000  0.15600000  1.0 0.0812578844
C  C12  1  0.69580000  0.21440000  0.39750000  1.0 0.0812578844
C  C13  1  0.20670000  0.68520000  0.01880000  1.0 -0.1568198198
C  C14  1  0.87960000  0.31010000  0.37840000  1.0 0.0013995559
C  C15  1  0.82140000  0.12290000  0.36450000  1.0 -0.0021504504
C  C16  1  0.39530000  0.11570000  0.38200000  1.0 -0.0371353806
C  C17  1  0.41390000  0.68150000  0.09690000  1.0 -0.1506147557
C  C18  1  0.59590000  0.87380000  0.12970000  1.0 -0.0175899337
C  C19  1  0.29540000  0.78080000  0.08190000  1.0 0.0812578844
C  C20  1  0.78040000  0.31120000  0.39620000  1.0 -0.1506147557
C  C21  1  0.27670000  0.87910000  0.12850000  1.0 -0.1799899575
C  C22  1  0.40280000  0.77940000  0.09690000  1.0 0.0812578844
C  C23  1  0.58720000  0.21350000  0.41390000  1.0 0.0737767003
C  C24  1  0.51710000  0.68460000  0.11390000  1.0 -0.0293140275
C  C25  1  0.49810000  0.87540000  0.11200000  1.0 -0.1799899575
C  C26  1  0.72010000  0.11850000  0.38250000  1.0 -0.1799899575
C  C27  1  0.49590000  0.11290000  0.36910000  1.0 -0.1799899575
C  C28  1  0.10940000  0.69200000  0.00620000  1.0 -0.0021504504
C  C29  1  0.84450000  0.13200000  0.62220000  1.0 0.0812578844
C  C30  1  0.57140000  0.18400000  0.64620000  1.0 0.0225002381
C  C31  1  0.35200000  0.16200000  0.62600000  1.0 0.0329730443
C  C32  1  0.64800000  0.17400000  0.63000000  1.0 -0.0175899337
C  C33  1  0.64000000  0.50940000  0.35120000  1.0 0.0910366259
C  C34  1  0.13680000  0.49990000  0.15380000  1.0 0.0812578844
C  C35  1  0.98750000  0.61180000  0.38180000  1.0 0.1099437184
C  C36  1  0.40890000  0.40050000  0.12170000  1.0 0.1099437184
C  C37  1  0.13400000  0.50260000  0.34790000  1.0 0.0812578844
C  C38  1  0.42770000  0.68940000  0.52790000  1.0 -0.1425421579
C  C39  1  0.52890000  0.69060000  0.51580000  1.0 -0.0175899337
C  C40  1  0.98780000  0.61070000  0.18870000  1.0 0.1099437184
C  C41  1  0.58900000  0.59320000  0.68330000  1.0 0.0994217849
C  C42  1  0.82390000  0.11720000  0.88660000  1.0 0.009994311
C  C43  1  0.36210000  0.49480000  0.84400000  1.0 0.0812578844
C  C44  1  0.30420000  0.78560000  0.60250000  1.0 0.0812578844
C  C45  1  0.79330000  0.31480000  0.98120000  1.0 -0.1568198198
C  C46  1  0.12040000  0.68990000  0.62160000  1.0 0.0013995559
C  C47  1  0.17860000  0.87710000  0.63550000  1.0 -0.0051513687
C  C48  1  0.60470000  0.88430000  0.61800000  1.0 -0.0371353806
C  C49  1  0.58610000  0.31850000  0.90310000  1.0 -0.1506147557
C  C50  1  0.40410000  0.12620000  0.87030000  1.0 -0.0175899337
C  C51  1  0.70460000  0.21920000  0.91810000  1.0 0.0812578844
C  C52  1  0.21960000  0.68880000  0.60380000  1.0 -0.1506147557
C  C53  1  0.72330000  0.12090000  0.87150000  1.0 -0.1799899575
C  C54  1  0.59720000  0.22060000  0.90310000  1.0 0.0910366259
C  C55  1  0.41280000  0.78650000  0.58610000  1.0 0.0737767003
C  C56  1  0.48290000  0.31540000  0.88610000  1.0 -0.0293140275
C  C57  1  0.50190000  0.12460000  0.88800000  1.0 -0.1799899575
C  C58  1  0.27990000  0.88150000  0.61750000  1.0 -0.1799899575
C  C59  1  0.50410000  0.88710000  0.63090000  1.0 -0.1799899575
C  C60  1  0.89060000  0.30800000  0.99380000  1.0 -0.0021504504
C  C61  1  0.15550000  0.86800000  0.37780000  1.0 0.0812578844
C  C62  1  0.42860000  0.81600000  0.35380000  1.0 0.0225002381
C  C63  1  0.64800000  0.83800000  0.37400000  1.0 0.0329730443
C  C64  1  0.35200000  0.82600000  0.37000000  1.0 -0.0175899337
C  C65  1  0.40660000  0.15580000  0.13210000  1.0 -0.0175899337
C  C66  1  0.70550000  0.16870000  0.14090000  1.0 0.0471950422
C  C67  1  0.59340000  0.84420000  0.86790000  1.0 -0.0175899337
C  C68  1  0.29450000  0.83130000  0.85910000  1.0 0.0471950422
N  N1  1  0.34230000  0.37870000  0.35910000  1.0 -0.4240488403
N  N2  1  0.69980000  0.54630000  0.11230000  1.0 -0.4561175399
N  N3  1  0.65940000  0.62750000  0.94150000  1.0 -0.4393891898
N  N4  1  0.38350000  0.21170000  0.43980000  1.0 0.318323285
N  N5  1  0.05910000  0.36570000  0.85840000  1.0 -0.4393891898
N  N6  1  0.83810000  0.54200000  0.61060000  1.0 -0.4561175399
N  N7  1  0.60590000  0.78070000  0.13120000  1.0 0.318323285
N  N8  1  0.83740000  0.54830000  0.91850000  1.0 -0.4561175399
N  N9  1  0.09520000  0.78850000  0.05440000  1.0 0.311198563
N  N10  1  0.90020000  0.21690000  0.36180000  1.0 0.3326212472
N  N11  1  0.29780000  0.44800000  0.58040000  1.0 -0.4510430806
N  N12  1  0.06010000  0.36180000  0.55510000  1.0 -0.4393891898
N  N13  1  0.91490000  0.10020000  0.61090000  1.0 -0.1506147557
N  N14  1  0.48350000  0.18200000  0.64900000  1.0 -0.0494056598
N  N15  1  0.25290000  0.13590000  0.62340000  1.0 -0.2232247733
N  N16  1  0.74200000  0.16300000  0.63900000  1.0 -0.1261443824
N  N17  1  0.65770000  0.62130000  0.64090000  1.0 -0.4240488403
N  N18  1  0.30020000  0.45370000  0.88770000  1.0 -0.4561175399
N  N19  1  0.34060000  0.37250000  0.05850000  1.0 -0.4393891898
N  N20  1  0.61650000  0.78830000  0.56020000  1.0 0.318323285
N  N21  1  0.94090000  0.63430000  0.14160000  1.0 -0.4393891898
N  N22  1  0.16190000  0.45800000  0.38940000  1.0 -0.4561175399
N  N23  1  0.39410000  0.21930000  0.86880000  1.0 0.318323285
N  N24  1  0.16260000  0.45170000  0.08150000  1.0 -0.4561175399
N  N25  1  0.90480000  0.21150000  0.94560000  1.0 0.311198563
N  N26  1  0.09980000  0.78310000  0.63820000  1.0 0.3326212472
N  N27  1  0.70220000  0.55200000  0.41960000  1.0 -0.4510430806
N  N28  1  0.93990000  0.63820000  0.44490000  1.0 -0.4393891898
N  N29  1  0.08510000  0.89980000  0.38910000  1.0 -0.1425421579
N  N30  1  0.51650000  0.81800000  0.35100000  1.0 -0.0494056598
N  N31  1  0.74710000  0.86410000  0.37660000  1.0 -0.2232247733
N  N32  1  0.25800000  0.83700000  0.36100000  1.0 -0.1261443824
N  N33  1  0.31720000  0.14450000  0.12970000  1.0 -0.1136951291
N  N34  1  0.78610000  0.15720000  0.14190000  1.0 -0.3270314777
N  N35  1  0.68280000  0.85550000  0.87030000  1.0 -0.1136951291
N  N36  1  0.21390000  0.84280000  0.85810000  1.0 -0.3270314777
O  O1  1  0.00060000  0.79580000  0.03930000  1.0 -0.4792425924
O  O2  1  0.70190000  0.78240000  0.15210000  1.0 -0.4510430806
O  O3  1  0.14970000  0.16490000  0.25180000  1.0 -0.4393891898
O  O4  1  0.07940000  0.13800000  0.48000000  1.0 -0.307752549
O  O5  1  0.89230000  0.83630000  0.24260000  1.0 -0.349907328
O  O6  1  0.28410000  0.20930000  0.45220000  1.0 -0.4712043696
O  O7  1  0.84060000  0.85750000  0.00910000  1.0 -0.3591889136
O  O8  1  0.99500000  0.21450000  0.33900000  1.0 -0.4712043696
O  O9  1  0.99940000  0.20420000  0.96070000  1.0 -0.4792425924
O  O10  1  0.29810000  0.21760000  0.84790000  1.0 -0.4510430806
O  O11  1  0.85030000  0.83510000  0.74820000  1.0 -0.4510430806
O  O12  1  0.92060000  0.86200000  0.52000000  1.0 -0.307752549
O  O13  1  0.10770000  0.16370000  0.75740000  1.0 -0.349907328
O  O14  1  0.71590000  0.79070000  0.54780000  1.0 -0.4712043696
O  O15  1  0.15940000  0.14250000  0.99090000  1.0 -0.349907328
O  O16  1  0.00500000  0.78550000  0.66100000  1.0 -0.4712043696
