# DDEC6 charges by PACMAN v1.1 (https://github.com/mtap-research/PACMAN-charge/)
data_PUCKAC_ion_pacman
_symmetry_space_group_name_H-M   'P 1'
_cell_length_a   13.45380000
_cell_length_b   13.58410000
_cell_length_c   14.54070000
_cell_angle_alpha   111.07300000
_cell_angle_beta   90.01100000
_cell_angle_gamma   111.44500000
_symmetry_Int_Tables_number   1
_chemical_formula_structural   Eu2Ag3H16Pd2C34(N9O4)2
_chemical_formula_sum   'Eu4 Ag6 H32 Pd4 C68 N36 O16'
_cell_volume   2281.36410318
_cell_formula_units_Z   2
loop_
 _symmetry_equiv_pos_site_id
 _symmetry_equiv_pos_as_xyz
  1  'x, y, z'
loop_
 _atom_site_type_symbol
 _atom_site_label
 _atom_site_symmetry_multiplicity
 _atom_site_fract_x
 _atom_site_fract_y
 _atom_site_fract_z
 _atom_site_occupancy
 _atom_site_charge
Eu  Eu1  1  0.17046000  0.29447000  0.42650000  1.0 1.9660893517
Eu  Eu2  1  0.82281000  0.70607000  0.06886000  1.0 1.9613475042
Eu  Eu3  1  0.82954000  0.70553000  0.57350000  1.0 1.9660893517
Eu  Eu4  1  0.17719000  0.29393000  0.93114000  1.0 1.9613475042
Ag  Ag1  1  0.71690000  0.17860000  0.64030000  1.0 0.1525524879
Ag  Ag2  1  0.51960000  0.19200000  0.64900000  1.0 0.1688080044
Ag  Ag3  1  0.28310000  0.82140000  0.35970000  1.0 0.1525524879
Ag  Ag4  1  0.48040000  0.80800000  0.35100000  1.0 0.1688080044
Ag  Ag5  1  0.56306000  0.18279000  0.14410000  1.0 0.1863246472
Ag  Ag6  1  0.43694000  0.81721000  0.85590000  1.0 0.1863246472
H  H1  1  0.63302000  0.37918000  0.51095000  1.0 0.1525524879
H  H2  1  0.45637000  0.37526000  0.51894000  1.0 0.1321953543
H  H3  1  0.16562000  0.95423000  0.14548000  1.0 0.1590872654
H  H4  1  0.21860000  0.61836000  0.98762000  1.0 0.1688080044
H  H5  1  0.93685000  0.37510000  0.38645000  1.0 0.1403562662
H  H6  1  0.83729000  0.05464000  0.35961000  1.0 0.1403562662
H  H7  1  0.33083000  0.04614000  0.35277000  1.0 0.1135530682
H  H8  1  0.36177000  0.61700000  0.09348000  1.0 0.1590872654
H  H9  1  0.65628000  0.94131000  0.13409000  1.0 0.1403562662
H  H10  1  0.76604000  0.37707000  0.41099000  1.0 0.1590872654
H  H11  1  0.33246000  0.94709000  0.17337000  1.0 0.1321953543
H  H12  1  0.53795000  0.62169000  0.09726000  1.0 0.1321953543
H  H13  1  0.48978000  0.94592000  0.11182000  1.0 0.1135530682
H  H14  1  0.66428000  0.04776000  0.37741000  1.0 0.1195566984
H  H15  1  0.50047000  0.03974000  0.33044000  1.0 0.1195566984
H  H16  1  0.05429000  0.62720000  0.96191000  1.0 0.1403562662
H  H17  1  0.36698000  0.62082000  0.48905000  1.0 0.1525524879
H  H18  1  0.54363000  0.62474000  0.48106000  1.0 0.1321953543
H  H19  1  0.83438000  0.04577000  0.85452000  1.0 0.1590872654
H  H20  1  0.78140000  0.38164000  0.01238000  1.0 0.1688080044
H  H21  1  0.06315000  0.62490000  0.61355000  1.0 0.1403562662
H  H22  1  0.16271000  0.94536000  0.64039000  1.0 0.1403562662
H  H23  1  0.66917000  0.95386000  0.64723000  1.0 0.1135530682
H  H24  1  0.63823000  0.38300000  0.90652000  1.0 0.1590872654
H  H25  1  0.34372000  0.05869000  0.86591000  1.0 0.1403562662
H  H26  1  0.23396000  0.62293000  0.58901000  1.0 0.1590872654
H  H27  1  0.66754000  0.05291000  0.82663000  1.0 0.1321953543
H  H28  1  0.46205000  0.37831000  0.90274000  1.0 0.1321953543
H  H29  1  0.51022000  0.05408000  0.88818000  1.0 0.1135530682
H  H30  1  0.33572000  0.95224000  0.62259000  1.0 0.1195566984
H  H31  1  0.49953000  0.96026000  0.66956000  1.0 0.1195566984
H  H32  1  0.94571000  0.37280000  0.03809000  1.0 0.1403562662
Pd  Pd1  1  0.93597000  0.44126000  0.73111000  1.0 0.1590872654
Pd  Pd2  1  0.47628000  0.54794000  0.76491000  1.0 0.1403562662
Pd  Pd3  1  0.06403000  0.55874000  0.26889000  1.0 0.1590872654
Pd  Pd4  1  0.52372000  0.45206000  0.23509000  1.0 0.1321953543
C  C1  1  0.35890000  0.48840000  0.65100000  1.0 0.0989985689
C  C2  1  0.86820000  0.50320000  0.84670000  1.0 0.0811904917
C  C3  1  0.01620000  0.39040000  0.61710000  1.0 0.1135530682
C  C4  1  0.59390000  0.59600000  0.87770000  1.0 0.1135530682
C  C5  1  0.86660000  0.50000000  0.65370000  1.0 0.0811904917
C  C6  1  0.57290000  0.31010000  0.47460000  1.0 -0.1617923143
C  C7  1  0.46680000  0.30720000  0.48180000  1.0 -0.0021258115
C  C8  1  0.01460000  0.39420000  0.81230000  1.0 0.0989985689
C  C9  1  0.40850000  0.40580000  0.31800000  1.0 0.1135530682
C  C10  1  0.17590000  0.88480000  0.11440000  1.0 0.0076322309
C  C11  1  0.63530000  0.50780000  0.15650000  1.0 0.0811904917
C  C12  1  0.69670000  0.21300000  0.40010000  1.0 0.0675195517
C  C13  1  0.21030000  0.68860000  0.02080000  1.0 -0.1514570018
C  C14  1  0.87950000  0.30660000  0.38280000  1.0 0.0076322309
C  C15  1  0.82140000  0.11930000  0.36650000  1.0 -0.0214794338
C  C16  1  0.39380000  0.11430000  0.38320000  1.0 -0.0214794338
C  C17  1  0.42150000  0.68440000  0.09850000  1.0 -0.1786429746
C  C18  1  0.59360000  0.87540000  0.12680000  1.0 -0.0295959724
C  C19  1  0.29370000  0.77890000  0.07870000  1.0 0.0811904917
C  C20  1  0.77810000  0.30930000  0.39980000  1.0 -0.1514570018
C  C21  1  0.27500000  0.88100000  0.12880000  1.0 -0.1786429746
C  C22  1  0.40450000  0.78320000  0.09610000  1.0 0.0892488571
C  C23  1  0.59090000  0.21110000  0.41360000  1.0 0.0811904917
C  C24  1  0.52650000  0.68980000  0.10840000  1.0 -0.0021258115
C  C25  1  0.49510000  0.87800000  0.11160000  1.0 -0.170633254
C  C26  1  0.72000000  0.11710000  0.38080000  1.0 -0.170633254
C  C27  1  0.49530000  0.11030000  0.36950000  1.0 -0.1894782869
C  C28  1  0.11180000  0.69320000  0.00700000  1.0 -0.0021258115
C  C29  1  0.84740000  0.13600000  0.62900000  1.0 0.0431284072
C  C30  1  0.57100000  0.18100000  0.64100000  1.0 -0.1411078623
C  C31  1  0.35300000  0.14600000  0.62400000  1.0 0.0989985689
C  C32  1  0.67600000  0.17400000  0.62900000  1.0 0.0236468805
C  C33  1  0.64110000  0.51160000  0.34900000  1.0 0.0989985689
C  C34  1  0.13180000  0.49680000  0.15330000  1.0 0.0811904917
C  C35  1  0.98380000  0.60960000  0.38290000  1.0 0.1135530682
C  C36  1  0.40610000  0.40400000  0.12230000  1.0 0.1195566984
C  C37  1  0.13340000  0.50000000  0.34630000  1.0 0.0811904917
C  C38  1  0.42710000  0.68990000  0.52540000  1.0 -0.1617923143
C  C39  1  0.53320000  0.69280000  0.51820000  1.0 -0.0021258115
C  C40  1  0.98540000  0.60580000  0.18770000  1.0 0.0989985689
C  C41  1  0.59150000  0.59420000  0.68200000  1.0 0.1135530682
C  C42  1  0.82410000  0.11520000  0.88560000  1.0 0.0076322309
C  C43  1  0.36470000  0.49220000  0.84350000  1.0 0.0811904917
C  C44  1  0.30330000  0.78700000  0.59990000  1.0 0.0675195517
C  C45  1  0.78970000  0.31140000  0.97920000  1.0 -0.1514570018
C  C46  1  0.12050000  0.69340000  0.61720000  1.0 0.0076322309
C  C47  1  0.17860000  0.88070000  0.63350000  1.0 -0.0214794338
C  C48  1  0.60620000  0.88570000  0.61680000  1.0 -0.0214794338
C  C49  1  0.57850000  0.31560000  0.90150000  1.0 -0.1786429746
C  C50  1  0.40640000  0.12460000  0.87320000  1.0 -0.0295959724
C  C51  1  0.70630000  0.22110000  0.92130000  1.0 0.0811904917
C  C52  1  0.22190000  0.69070000  0.60020000  1.0 -0.1514570018
C  C53  1  0.72500000  0.11900000  0.87120000  1.0 -0.1786429746
C  C54  1  0.59550000  0.21680000  0.90390000  1.0 0.0892488571
C  C55  1  0.40910000  0.78890000  0.58640000  1.0 0.0811904917
C  C56  1  0.47350000  0.31020000  0.89160000  1.0 -0.0021258115
C  C57  1  0.50490000  0.12200000  0.88840000  1.0 -0.170633254
C  C58  1  0.28000000  0.88290000  0.61920000  1.0 -0.170633254
C  C59  1  0.50470000  0.88970000  0.63050000  1.0 -0.1894782869
C  C60  1  0.88820000  0.30680000  0.99300000  1.0 -0.0021258115
C  C61  1  0.15260000  0.86400000  0.37100000  1.0 0.0431284072
C  C62  1  0.42900000  0.81900000  0.35900000  1.0 -0.1411078623
C  C63  1  0.64700000  0.85400000  0.37600000  1.0 0.0989985689
C  C64  1  0.32400000  0.82600000  0.37100000  1.0 0.0236468805
C  C65  1  0.40600000  0.16300000  0.14230000  1.0 -0.1411078623
C  C66  1  0.71700000  0.17400000  0.14380000  1.0 0.0635349887
C  C67  1  0.59400000  0.83700000  0.85770000  1.0 -0.1411078623
C  C68  1  0.28300000  0.82600000  0.85620000  1.0 0.0635349887
N  N1  1  0.33890000  0.37800000  0.35950000  1.0 -0.4206618531
N  N2  1  0.69760000  0.54640000  0.11340000  1.0 -0.4482296669
N  N3  1  0.65980000  0.62620000  0.94160000  1.0 -0.430218981
N  N4  1  0.38320000  0.21050000  0.43730000  1.0 0.2879754516
N  N5  1  0.06100000  0.36920000  0.86060000  1.0 -0.430218981
N  N6  1  0.83860000  0.54210000  0.61000000  1.0 -0.4482296669
N  N7  1  0.60660000  0.78370000  0.13190000  1.0 0.2879754516
N  N8  1  0.83690000  0.54890000  0.91730000  1.0 -0.4482296669
N  N9  1  0.09440000  0.78870000  0.05550000  1.0 0.3235935705
N  N10  1  0.89880000  0.21490000  0.36220000  1.0 0.3235935705
N  N11  1  0.30050000  0.44770000  0.57850000  1.0 -0.4482296669
N  N12  1  0.06180000  0.36340000  0.55680000  1.0 -0.430218981
N  N13  1  0.91740000  0.09750000  0.61370000  1.0 -0.1786429746
N  N14  1  0.46200000  0.16900000  0.64700000  1.0 -0.1617923143
N  N15  1  0.24950000  0.13440000  0.62560000  1.0 -0.2104910029
N  N16  1  0.75700000  0.16000000  0.64500000  1.0 -0.1617923143
N  N17  1  0.66110000  0.62200000  0.64050000  1.0 -0.4206618531
N  N18  1  0.30240000  0.45360000  0.88660000  1.0 -0.4482296669
N  N19  1  0.34020000  0.37380000  0.05840000  1.0 -0.430218981
N  N20  1  0.61680000  0.78950000  0.56270000  1.0 0.2879754516
N  N21  1  0.93900000  0.63080000  0.13940000  1.0 -0.430218981
N  N22  1  0.16140000  0.45790000  0.39000000  1.0 -0.4482296669
N  N23  1  0.39340000  0.21630000  0.86810000  1.0 0.2879754516
N  N24  1  0.16310000  0.45110000  0.08270000  1.0 -0.4482296669
N  N25  1  0.90560000  0.21130000  0.94450000  1.0 0.3235935705
N  N26  1  0.10120000  0.78510000  0.63780000  1.0 0.3235935705
N  N27  1  0.69950000  0.55230000  0.42150000  1.0 -0.4482296669
N  N28  1  0.93820000  0.63660000  0.44320000  1.0 -0.430218981
N  N29  1  0.08260000  0.90250000  0.38630000  1.0 -0.1786429746
N  N30  1  0.53800000  0.83100000  0.35300000  1.0 -0.1617923143
N  N31  1  0.75050000  0.86560000  0.37440000  1.0 -0.2104910029
N  N32  1  0.24300000  0.84000000  0.35500000  1.0 -0.1617923143
N  N33  1  0.30800000  0.14430000  0.12930000  1.0 -0.1098429239
N  N34  1  0.78650000  0.16100000  0.14290000  1.0 -0.282721573
N  N35  1  0.69200000  0.85570000  0.87070000  1.0 -0.1098429239
N  N36  1  0.21350000  0.83900000  0.85710000  1.0 -0.282721573
O  O1  1  0.99840000  0.79540000  0.04120000  1.0 -0.5029256208
O  O2  1  0.70550000  0.78750000  0.15130000  1.0 -0.4649454219
O  O3  1  0.14840000  0.16670000  0.25500000  1.0 -0.4482296669
O  O4  1  0.07920000  0.13810000  0.48160000  1.0 -0.282721573
O  O5  1  0.88940000  0.83370000  0.24360000  1.0 -0.2945976419
O  O6  1  0.28500000  0.20810000  0.45330000  1.0 -0.4482296669
O  O7  1  0.83960000  0.85400000  0.00490000  1.0 -0.3392411782
O  O8  1  0.99280000  0.21560000  0.34300000  1.0 -0.4206618531
O  O9  1  0.00160000  0.20460000  0.95880000  1.0 -0.5029256208
O  O10  1  0.29450000  0.21250000  0.84870000  1.0 -0.465885715
O  O11  1  0.85160000  0.83330000  0.74500000  1.0 -0.4482296669
O  O12  1  0.92080000  0.86190000  0.51840000  1.0 -0.282721573
O  O13  1  0.11060000  0.16630000  0.75640000  1.0 -0.2945976419
O  O14  1  0.71500000  0.79190000  0.54670000  1.0 -0.4482296669
O  O15  1  0.16040000  0.14600000  0.99510000  1.0 -0.3392411782
O  O16  1  0.00720000  0.78440000  0.65700000  1.0 -0.4206618531
