# DDEC6 charges by PACMAN v1.1 (https://github.com/mtap-research/PACMAN-charge/)
data_PUCREN_ion_pacman
_symmetry_space_group_name_H-M   'P 1'
_cell_length_a   13.40290000
_cell_length_b   13.62170000
_cell_length_c   14.48400000
_cell_angle_alpha   111.17700000
_cell_angle_beta   89.98000000
_cell_angle_gamma   111.19000000
_symmetry_Int_Tables_number   1
_chemical_formula_structural   EuH8PtAuC16(N2O)4
_chemical_formula_sum   'Eu4 H32 Pt4 Au4 C64 N32 O16'
_cell_volume   2273.11604997
_cell_formula_units_Z   4
loop_
 _symmetry_equiv_pos_site_id
 _symmetry_equiv_pos_as_xyz
  1  'x, y, z'
loop_
 _atom_site_type_symbol
 _atom_site_label
 _atom_site_symmetry_multiplicity
 _atom_site_fract_x
 _atom_site_fract_y
 _atom_site_fract_z
 _atom_site_occupancy
 _atom_site_charge
Eu  Eu1  1  0.17098000  0.29420000  0.42530000  1.0 2.0098692815
Eu  Eu2  1  0.82308000  0.70657000  0.06972000  1.0 1.9919804375
Eu  Eu3  1  0.82902000  0.70580000  0.57470000  1.0 2.0098692815
Eu  Eu4  1  0.17692000  0.29343000  0.93028000  1.0 1.9919804375
H  H1  1  0.63424000  0.37949000  0.50396000  1.0 0.1694295998
H  H2  1  0.46345000  0.37844000  0.53143000  1.0 0.1418280903
H  H3  1  0.16285000  0.94758000  0.14877000  1.0 0.1694295998
H  H4  1  0.21448000  0.61679000  0.98482000  1.0 0.1694295998
H  H5  1  0.93405000  0.37457000  0.37439000  1.0 0.1494778994
H  H6  1  0.83489000  0.05522000  0.34985000  1.0 0.1640281122
H  H7  1  0.33454000  0.05013000  0.35368000  1.0 0.1418280903
H  H8  1  0.35227000  0.61247000  0.08126000  1.0 0.1694295998
H  H9  1  0.65591000  0.93698000  0.14078000  1.0 0.1494778994
H  H10  1  0.76985000  0.38110000  0.41052000  1.0 0.1694295998
H  H11  1  0.33333333  0.94957000  0.16952000  1.0 0.1322096478
H  H12  1  0.52401000  0.62056000  0.11895000  1.0 0.1494778994
H  H13  1  0.48911000  0.94092000  0.11163000  1.0 0.1322096478
H  H14  1  0.66969000  0.05689000  0.38669000  1.0 0.1418280903
H  H15  1  0.50098000  0.04687000  0.32862000  1.0 0.1418280903
H  H16  1  0.05301000  0.62891000  0.96062000  1.0 0.1494778994
H  H17  1  0.36576000  0.62051000  0.49604000  1.0 0.1694295998
H  H18  1  0.53655000  0.62156000  0.46857000  1.0 0.1418280903
H  H19  1  0.83715000  0.05242000  0.85123000  1.0 0.1694295998
H  H20  1  0.78552000  0.38321000  0.01518000  1.0 0.1694295998
H  H21  1  0.06595000  0.62543000  0.62561000  1.0 0.1494778994
H  H22  1  0.16511000  0.94478000  0.65015000  1.0 0.1640281122
H  H23  1  0.66546000  0.94987000  0.64632000  1.0 0.1418280903
H  H24  1  0.64773000  0.38753000  0.91874000  1.0 0.1694295998
H  H25  1  0.34409000  0.06302000  0.85922000  1.0 0.1494778994
H  H26  1  0.23015000  0.61890000  0.58948000  1.0 0.1694295998
H  H27  1  0.66666667  0.05043000  0.83048000  1.0 0.1322096478
H  H28  1  0.47599000  0.37944000  0.88105000  1.0 0.1494778994
H  H29  1  0.51089000  0.05908000  0.88837000  1.0 0.1322096478
H  H30  1  0.33031000  0.94311000  0.61331000  1.0 0.1418280903
H  H31  1  0.49902000  0.95313000  0.67138000  1.0 0.1418280903
H  H32  1  0.94699000  0.37109000  0.03938000  1.0 0.1494778994
Pt  Pt1  1  0.93260000  0.43848000  0.73029000  1.0 0.062683863
Pt  Pt2  1  0.47433000  0.54976000  0.76558000  1.0 0.062683863
Pt  Pt3  1  0.06740000  0.56152000  0.26971000  1.0 0.062683863
Pt  Pt4  1  0.52567000  0.45024000  0.23442000  1.0 0.062683863
Au  Au1  1  0.28553000  0.83000000  0.36208000  1.0 -0.0026167248
Au  Au2  1  0.55903000  0.16970000  0.13898000  1.0 0.0256713269
Au  Au3  1  0.71447000  0.17000000  0.63792000  1.0 -0.0026167248
Au  Au4  1  0.44097000  0.83030000  0.86102000  1.0 0.0256713269
C  C1  1  0.36120000  0.49290000  0.65090000  1.0 0.0991202814
C  C2  1  0.86390000  0.50180000  0.84700000  1.0 0.0991202814
C  C3  1  0.01180000  0.38590000  0.61650000  1.0 0.1322096478
C  C4  1  0.58810000  0.59880000  0.87850000  1.0 0.1206188901
C  C5  1  0.86650000  0.50000000  0.65250000  1.0 0.0991202814
C  C6  1  0.57390000  0.31180000  0.47380000  1.0 -0.1443513256
C  C7  1  0.47230000  0.31270000  0.48980000  1.0 0.0086804173
C  C8  1  0.01050000  0.38910000  0.81100000  1.0 0.1206188901
C  C9  1  0.40920000  0.40170000  0.31310000  1.0 0.1206188901
C  C10  1  0.17520000  0.88160000  0.11480000  1.0 0.0206036261
C  C11  1  0.64110000  0.50780000  0.15710000  1.0 0.0991202814
C  C12  1  0.69780000  0.21400000  0.39540000  1.0 0.090219688
C  C13  1  0.20660000  0.68550000  0.01830000  1.0 -0.1443513256
C  C14  1  0.87950000  0.31010000  0.37680000  1.0 0.0086804173
C  C15  1  0.82110000  0.12070000  0.36230000  1.0 0.0086804173
C  C16  1  0.39620000  0.11640000  0.38390000  1.0 -0.0026167248
C  C17  1  0.41300000  0.67950000  0.09580000  1.0 -0.1443513256
C  C18  1  0.59390000  0.87200000  0.12980000  1.0 -0.0026167248
C  C19  1  0.29410000  0.77960000  0.08160000  1.0 0.0991202814
C  C20  1  0.78140000  0.31420000  0.39660000  1.0 -0.1443513256
C  C21  1  0.27660000  0.88260000  0.12920000  1.0 -0.17194223
C  C22  1  0.40360000  0.78090000  0.09820000  1.0 0.0991202814
C  C23  1  0.58900000  0.21560000  0.41560000  1.0 0.0991202814
C  C24  1  0.51570000  0.68420000  0.11580000  1.0 -0.0026167248
C  C25  1  0.49430000  0.87510000  0.11290000  1.0 -0.1609205563
C  C26  1  0.72210000  0.12130000  0.38210000  1.0 -0.1609205563
C  C27  1  0.49460000  0.11440000  0.36920000  1.0 -0.17194223
C  C28  1  0.11000000  0.69250000  0.00480000  1.0 0.0029907386
C  C29  1  0.63880000  0.50710000  0.34910000  1.0 0.0991202814
C  C30  1  0.13610000  0.49820000  0.15300000  1.0 0.0991202814
C  C31  1  0.98820000  0.61410000  0.38350000  1.0 0.1322096478
C  C32  1  0.41190000  0.40120000  0.12150000  1.0 0.1206188901
C  C33  1  0.13350000  0.50000000  0.34750000  1.0 0.0991202814
C  C34  1  0.42610000  0.68820000  0.52620000  1.0 -0.1443513256
C  C35  1  0.52770000  0.68730000  0.51020000  1.0 0.0086804173
C  C36  1  0.98950000  0.61090000  0.18900000  1.0 0.1206188901
C  C37  1  0.59080000  0.59830000  0.68690000  1.0 0.1206188901
C  C38  1  0.82480000  0.11840000  0.88520000  1.0 0.0206036261
C  C39  1  0.35890000  0.49220000  0.84290000  1.0 0.0991202814
C  C40  1  0.30220000  0.78600000  0.60460000  1.0 0.090219688
C  C41  1  0.79340000  0.31450000  0.98170000  1.0 -0.1443513256
C  C42  1  0.12050000  0.68990000  0.62320000  1.0 0.0086804173
C  C43  1  0.17890000  0.87930000  0.63770000  1.0 0.0029907386
C  C44  1  0.60380000  0.88360000  0.61610000  1.0 -0.005531958
C  C45  1  0.58700000  0.32050000  0.90420000  1.0 -0.1443513256
C  C46  1  0.40610000  0.12800000  0.87020000  1.0 -0.0026167248
C  C47  1  0.70590000  0.22040000  0.91840000  1.0 0.0991202814
C  C48  1  0.21860000  0.68580000  0.60340000  1.0 -0.1443513256
C  C49  1  0.72340000  0.11740000  0.87080000  1.0 -0.17194223
C  C50  1  0.59640000  0.21910000  0.90180000  1.0 0.0991202814
C  C51  1  0.41100000  0.78440000  0.58440000  1.0 0.0991202814
C  C52  1  0.48430000  0.31580000  0.88420000  1.0 -0.0026167248
C  C53  1  0.50570000  0.12490000  0.88710000  1.0 -0.1609205563
C  C54  1  0.27790000  0.87870000  0.61790000  1.0 -0.1609205563
C  C55  1  0.50540000  0.88560000  0.63080000  1.0 -0.17194223
C  C56  1  0.89000000  0.30750000  0.99520000  1.0 0.0029907386
C  C57  1  0.15030000  0.86570000  0.37540000  1.0 -0.035366913
C  C58  1  0.43500000  0.82000000  0.35470000  1.0 0.0754339922
C  C59  1  0.40570000  0.15320000  0.13270000  1.0 -0.0277525704
C  C60  1  0.70690000  0.16860000  0.13800000  1.0 0.0206036261
C  C61  1  0.84970000  0.13430000  0.62460000  1.0 -0.035366913
C  C62  1  0.56500000  0.18000000  0.64530000  1.0 0.0754339922
C  C63  1  0.59430000  0.84680000  0.86730000  1.0 -0.0277525704
C  C64  1  0.29310000  0.83140000  0.86200000  1.0 0.0206036261
N  N1  1  0.34290000  0.37710000  0.36010000  1.0 -0.4594130886
N  N2  1  0.70260000  0.54820000  0.11320000  1.0 -0.479582549
N  N3  1  0.65920000  0.62970000  0.94210000  1.0 -0.47131309
N  N4  1  0.38650000  0.21350000  0.44200000  1.0 0.3468580585
N  N5  1  0.05940000  0.36680000  0.85850000  1.0 -0.4594130886
N  N6  1  0.83600000  0.54190000  0.60900000  1.0 -0.479582549
N  N7  1  0.60420000  0.77930000  0.13080000  1.0 0.3299993392
N  N8  1  0.83410000  0.54660000  0.91710000  1.0 -0.47131309
N  N9  1  0.09420000  0.78930000  0.05380000  1.0 0.3299993392
N  N10  1  0.90000000  0.21710000  0.36080000  1.0 0.3391426842
N  N11  1  0.29740000  0.44930000  0.57980000  1.0 -0.479582549
N  N12  1  0.05790000  0.35960000  0.55410000  1.0 -0.4594130886
N  N13  1  0.65710000  0.62290000  0.63990000  1.0 -0.4594130886
N  N14  1  0.29740000  0.45180000  0.88680000  1.0 -0.479582549
N  N15  1  0.34080000  0.37030000  0.05790000  1.0 -0.47131309
N  N16  1  0.61350000  0.78650000  0.55800000  1.0 0.3468580585
N  N17  1  0.94060000  0.63320000  0.14150000  1.0 -0.4594130886
N  N18  1  0.16400000  0.45810000  0.39100000  1.0 -0.479582549
N  N19  1  0.39580000  0.22070000  0.86920000  1.0 0.3299993392
N  N20  1  0.16590000  0.45340000  0.08290000  1.0 -0.47131309
N  N21  1  0.90580000  0.21070000  0.94620000  1.0 0.3299993392
N  N22  1  0.10000000  0.78290000  0.63920000  1.0 0.3391426842
N  N23  1  0.70260000  0.55070000  0.42020000  1.0 -0.479582549
N  N24  1  0.94210000  0.64040000  0.44590000  1.0 -0.4594130886
N  N25  1  0.08410000  0.89830000  0.38700000  1.0 -0.0026167248
N  N26  1  0.51040000  0.82390000  0.35770000  1.0 -0.3087241609
N  N27  1  0.31800000  0.14300000  0.12860000  1.0 -0.1609205563
N  N28  1  0.78690000  0.15760000  0.13980000  1.0 -0.3252077062
N  N29  1  0.91590000  0.10170000  0.61300000  1.0 -0.0026167248
N  N30  1  0.48960000  0.17610000  0.64230000  1.0 -0.3087241609
N  N31  1  0.68200000  0.85700000  0.87140000  1.0 -0.1609205563
N  N32  1  0.21310000  0.84240000  0.86020000  1.0 -0.3252077062
O  O1  1  0.00040000  0.79760000  0.03850000  1.0 -0.4533954446
O  O2  1  0.70200000  0.78270000  0.15380000  1.0 -0.47131309
O  O3  1  0.14970000  0.16410000  0.25230000  1.0 -0.4533954446
O  O4  1  0.07760000  0.13510000  0.47600000  1.0 -0.3879710842
O  O5  1  0.89280000  0.83720000  0.24310000  1.0 -0.4269749034
O  O6  1  0.28480000  0.20720000  0.45500000  1.0 -0.4936314184
O  O7  1  0.83730000  0.85630000  0.01020000  1.0 -0.3393123407
O  O8  1  0.99610000  0.21680000  0.33770000  1.0 -0.4594130886
O  O9  1  0.99960000  0.20240000  0.96150000  1.0 -0.4533954446
O  O10  1  0.29800000  0.21730000  0.84620000  1.0 -0.47131309
O  O11  1  0.85030000  0.83590000  0.74770000  1.0 -0.4533954446
O  O12  1  0.92240000  0.86490000  0.52400000  1.0 -0.3879710842
O  O13  1  0.10720000  0.16280000  0.75690000  1.0 -0.4269749034
O  O14  1  0.71520000  0.79280000  0.54500000  1.0 -0.4936314184
O  O15  1  0.16270000  0.14370000  0.98980000  1.0 -0.3393123407
O  O16  1  0.00390000  0.78320000  0.66230000  1.0 -0.4594130886
