# DDEC6 charges by PACMAN v1.1 (https://github.com/mtap-research/PACMAN-charge/)
data_PUHKUB_ASR_pacman
_symmetry_space_group_name_H-M   'P 1'
_cell_length_a   23.97050000
_cell_length_b   23.97050000
_cell_length_c   23.97050000
_cell_angle_alpha   65.10530000
_cell_angle_beta   65.10530000
_cell_angle_gamma   65.10530000
_symmetry_Int_Tables_number   1
_chemical_formula_structural   Ti8Mn6H186C315(NO14)6
_chemical_formula_sum   'Ti8 Mn6 H186 C315 N6 O84'
_cell_volume   10823.79075869
_cell_formula_units_Z   1
loop_
 _symmetry_equiv_pos_site_id
 _symmetry_equiv_pos_as_xyz
  1  'x, y, z'
loop_
 _atom_site_type_symbol
 _atom_site_label
 _atom_site_symmetry_multiplicity
 _atom_site_fract_x
 _atom_site_fract_y
 _atom_site_fract_z
 _atom_site_occupancy
 _atom_site_charge
Ti  Ti1  1  0.52185000  0.13602000  0.23672000  1.0 1.9088069238
Ti  Ti2  1  0.13602000  0.23672000  0.52185000  1.0 1.9088069238
Ti  Ti3  1  0.23672000  0.52185000  0.13602000  1.0 1.9088069238
Ti  Ti4  1  0.47815000  0.76328000  0.86398000  1.0 1.9088069238
Ti  Ti5  1  0.86398000  0.47815000  0.76328000  1.0 1.9088069238
Ti  Ti6  1  0.76328000  0.86398000  0.47815000  1.0 1.9088069238
Ti  Ti7  1  0.16823000  0.16823000  0.16823000  1.0 1.9088069238
Ti  Ti8  1  0.83177000  0.83177000  0.83177000  1.0 1.9088069238
Mn  Mn1  1  0.68001000  0.88872000  0.28812000  1.0 1.0900468864
Mn  Mn2  1  0.88872000  0.28812000  0.68001000  1.0 1.0900468864
Mn  Mn3  1  0.28812000  0.68001000  0.88872000  1.0 1.0900468864
Mn  Mn4  1  0.31999000  0.71188000  0.11128000  1.0 1.0900468864
Mn  Mn5  1  0.11128000  0.31999000  0.71188000  1.0 1.0900468864
Mn  Mn6  1  0.71188000  0.11128000  0.31999000  1.0 1.0900468864
H  H1  1  0.74790000  0.91840000  0.32900000  1.0 0.4044810049
H  H2  1  0.63170000  0.99530000  0.21170000  1.0 0.4092667439
H  H3  1  0.30550000  0.26770000  0.58710000  1.0 0.1300249168
H  H4  1  0.51690000  0.93320000  0.45040000  1.0 0.1300249168
H  H5  1  0.28770000  0.09410000  0.52530000  1.0 0.1300249168
H  H6  1  0.30620000  0.16320000  0.41490000  1.0 0.139658203
H  H7  1  0.36360000  0.19140000  0.36830000  1.0 0.139658203
H  H8  1  0.34670000  0.91630000  0.63450000  1.0 0.1300249168
H  H9  1  0.46020000  0.18160000  0.38890000  1.0 0.1300249168
H  H10  1  0.27170000  0.01420000  0.61820000  1.0 0.1300249168
H  H11  1  0.33190000  0.16360000  0.17010000  1.0 0.139658203
H  H12  1  0.37300000  0.12340000  0.21810000  1.0 0.139658203
H  H13  1  0.41910000  0.26030000  0.55260000  1.0 0.1300249168
H  H14  1  0.52080000  0.23450000  0.48660000  1.0 0.1209670678
H  H15  1  0.53870000  0.20110000  0.39800000  1.0 0.1300249168
H  H16  1  0.34130000  0.15850000  0.07190000  1.0 0.139658203
H  H17  1  0.58120000  0.15000000  0.99140000  1.0 0.1300249168
H  H18  1  0.44410000  0.18190000  0.88960000  1.0 0.1300249168
H  H19  1  0.44810000  0.90020000  0.55850000  1.0 0.11072905
H  H20  1  0.53210000  0.17150000  0.91100000  1.0 0.1300249168
H  H21  1  0.34640000  0.18490000  0.96630000  1.0 0.139658203
H  H22  1  0.46460000  0.02750000  0.21610000  1.0 0.1300249168
H  H23  1  0.31300000  0.92630000  0.20520000  1.0 0.1300249168
H  H24  1  0.54380000  0.93230000  0.20720000  1.0 0.1300249168
H  H25  1  0.53650000  0.88810000  0.33700000  1.0 0.1209670678
H  H26  1  0.46990000  0.82680000  0.36590000  1.0 0.1476844885
H  H27  1  0.69080000  0.74520000  0.28240000  1.0 0.1209670678
H  H28  1  0.53000000  0.84420000  0.20020000  1.0 0.11072905
H  H29  1  0.41650000  0.85300000  0.21910000  1.0 0.11072905
H  H30  1  0.49330000  0.68000000  0.39240000  1.0 0.139658203
H  H31  1  0.56400000  0.65340000  0.35070000  1.0 0.1300249168
H  H32  1  0.91840000  0.32900000  0.74790000  1.0 0.4044810049
H  H33  1  0.99530000  0.21170000  0.63170000  1.0 0.4092667439
H  H34  1  0.26770000  0.58710000  0.30550000  1.0 0.1300249168
H  H35  1  0.93320000  0.45040000  0.51690000  1.0 0.1300249168
H  H36  1  0.09410000  0.52530000  0.28770000  1.0 0.1300249168
H  H37  1  0.16320000  0.41490000  0.30620000  1.0 0.139658203
H  H38  1  0.19140000  0.36830000  0.36360000  1.0 0.139658203
H  H39  1  0.91630000  0.63450000  0.34670000  1.0 0.1300249168
H  H40  1  0.18160000  0.38890000  0.46020000  1.0 0.1300249168
H  H41  1  0.01420000  0.61820000  0.27170000  1.0 0.1300249168
H  H42  1  0.16360000  0.17010000  0.33190000  1.0 0.139658203
H  H43  1  0.12340000  0.21810000  0.37300000  1.0 0.139658203
H  H44  1  0.26030000  0.55260000  0.41910000  1.0 0.1300249168
H  H45  1  0.23450000  0.48660000  0.52080000  1.0 0.1209670678
H  H46  1  0.20110000  0.39800000  0.53870000  1.0 0.1300249168
H  H47  1  0.15850000  0.07190000  0.34130000  1.0 0.139658203
H  H48  1  0.15000000  0.99140000  0.58120000  1.0 0.1300249168
H  H49  1  0.18190000  0.88960000  0.44410000  1.0 0.1300249168
H  H50  1  0.90020000  0.55850000  0.44810000  1.0 0.11072905
H  H51  1  0.17150000  0.91100000  0.53210000  1.0 0.1300249168
H  H52  1  0.18490000  0.96630000  0.34640000  1.0 0.139658203
H  H53  1  0.02750000  0.21610000  0.46460000  1.0 0.1300249168
H  H54  1  0.92630000  0.20520000  0.31300000  1.0 0.1300249168
H  H55  1  0.93230000  0.20720000  0.54380000  1.0 0.1300249168
H  H56  1  0.88810000  0.33700000  0.53650000  1.0 0.11072905
H  H57  1  0.82680000  0.36590000  0.46990000  1.0 0.1476844885
H  H58  1  0.74520000  0.28240000  0.69080000  1.0 0.1209670678
H  H59  1  0.84420000  0.20020000  0.53000000  1.0 0.11072905
H  H60  1  0.85300000  0.21910000  0.41650000  1.0 0.11072905
H  H61  1  0.68000000  0.39240000  0.49330000  1.0 0.139658203
H  H62  1  0.65340000  0.35070000  0.56400000  1.0 0.1300249168
H  H63  1  0.32900000  0.74790000  0.91840000  1.0 0.4092667439
H  H64  1  0.21170000  0.63170000  0.99530000  1.0 0.4092667439
H  H65  1  0.58710000  0.30550000  0.26770000  1.0 0.1300249168
H  H66  1  0.45040000  0.51690000  0.93320000  1.0 0.1300249168
H  H67  1  0.52530000  0.28770000  0.09410000  1.0 0.1300249168
H  H68  1  0.41490000  0.30620000  0.16320000  1.0 0.139658203
H  H69  1  0.36830000  0.36360000  0.19140000  1.0 0.139658203
H  H70  1  0.63450000  0.34670000  0.91630000  1.0 0.1300249168
H  H71  1  0.38890000  0.46020000  0.18160000  1.0 0.1300249168
H  H72  1  0.61820000  0.27170000  0.01420000  1.0 0.1300249168
H  H73  1  0.17010000  0.33190000  0.16360000  1.0 0.139658203
H  H74  1  0.21810000  0.37300000  0.12340000  1.0 0.139658203
H  H75  1  0.55260000  0.41910000  0.26030000  1.0 0.1300249168
H  H76  1  0.48660000  0.52080000  0.23450000  1.0 0.1209670678
H  H77  1  0.39800000  0.53870000  0.20110000  1.0 0.1300249168
H  H78  1  0.07190000  0.34130000  0.15850000  1.0 0.139658203
H  H79  1  0.99140000  0.58120000  0.15000000  1.0 0.1300249168
H  H80  1  0.88960000  0.44410000  0.18190000  1.0 0.1300249168
H  H81  1  0.55850000  0.44810000  0.90020000  1.0 0.11072905
H  H82  1  0.91100000  0.53210000  0.17150000  1.0 0.1300249168
H  H83  1  0.96630000  0.34640000  0.18490000  1.0 0.139658203
H  H84  1  0.21610000  0.46460000  0.02750000  1.0 0.1300249168
H  H85  1  0.20520000  0.31300000  0.92630000  1.0 0.1300249168
H  H86  1  0.20720000  0.54380000  0.93230000  1.0 0.1300249168
H  H87  1  0.33700000  0.53650000  0.88810000  1.0 0.1209670678
H  H88  1  0.36590000  0.46990000  0.82680000  1.0 0.1476844885
H  H89  1  0.28240000  0.69080000  0.74520000  1.0 0.1209670678
H  H90  1  0.20020000  0.53000000  0.84420000  1.0 0.11072905
H  H91  1  0.21910000  0.41650000  0.85300000  1.0 0.11072905
H  H92  1  0.39240000  0.49330000  0.68000000  1.0 0.139658203
H  H93  1  0.35070000  0.56400000  0.65340000  1.0 0.1300249168
H  H94  1  0.25210000  0.67100000  0.08160000  1.0 0.4044810049
H  H95  1  0.36830000  0.78830000  0.00470000  1.0 0.4092667439
H  H96  1  0.69450000  0.41290000  0.73230000  1.0 0.1300249168
H  H97  1  0.48310000  0.54960000  0.06680000  1.0 0.1300249168
H  H98  1  0.71230000  0.47470000  0.90590000  1.0 0.1300249168
H  H99  1  0.69380000  0.58510000  0.83680000  1.0 0.139658203
H  H100  1  0.63640000  0.63170000  0.80860000  1.0 0.139658203
H  H101  1  0.65330000  0.36550000  0.08370000  1.0 0.1300249168
H  H102  1  0.53980000  0.61110000  0.81840000  1.0 0.1300249168
H  H103  1  0.72830000  0.38180000  0.98580000  1.0 0.1300249168
H  H104  1  0.66810000  0.82990000  0.83640000  1.0 0.139658203
H  H105  1  0.62700000  0.78190000  0.87660000  1.0 0.139658203
H  H106  1  0.58090000  0.44740000  0.73970000  1.0 0.1300249168
H  H107  1  0.47920000  0.51340000  0.76550000  1.0 0.1209670678
H  H108  1  0.46130000  0.60200000  0.79890000  1.0 0.1300249168
H  H109  1  0.65870000  0.92810000  0.84150000  1.0 0.139658203
H  H110  1  0.41880000  0.00860000  0.85000000  1.0 0.1300249168
H  H111  1  0.55590000  0.11040000  0.81810000  1.0 0.1300249168
H  H112  1  0.55190000  0.44150000  0.09980000  1.0 0.11072905
H  H113  1  0.46790000  0.08900000  0.82850000  1.0 0.1300249168
H  H114  1  0.65360000  0.03370000  0.81510000  1.0 0.139658203
H  H115  1  0.53540000  0.78390000  0.97250000  1.0 0.1300249168
H  H116  1  0.68700000  0.79480000  0.07370000  1.0 0.1300249168
H  H117  1  0.45620000  0.79280000  0.06770000  1.0 0.1300249168
H  H118  1  0.46350000  0.66300000  0.11190000  1.0 0.1209670678
H  H119  1  0.53010000  0.63410000  0.17320000  1.0 0.1476844885
H  H120  1  0.30920000  0.71760000  0.25480000  1.0 0.1209670678
H  H121  1  0.47000000  0.79980000  0.15580000  1.0 0.11072905
H  H122  1  0.58350000  0.78090000  0.14700000  1.0 0.11072905
H  H123  1  0.50670000  0.60760000  0.32000000  1.0 0.139658203
H  H124  1  0.43600000  0.64930000  0.34660000  1.0 0.1300249168
H  H125  1  0.08160000  0.25210000  0.67100000  1.0 0.4092667439
H  H126  1  0.00470000  0.36830000  0.78830000  1.0 0.4092667439
H  H127  1  0.73230000  0.69450000  0.41290000  1.0 0.1300249168
H  H128  1  0.06680000  0.48310000  0.54960000  1.0 0.1300249168
H  H129  1  0.90590000  0.71230000  0.47470000  1.0 0.1300249168
H  H130  1  0.83680000  0.69380000  0.58510000  1.0 0.139658203
H  H131  1  0.80860000  0.63640000  0.63170000  1.0 0.139658203
H  H132  1  0.08370000  0.65330000  0.36550000  1.0 0.1300249168
H  H133  1  0.81840000  0.53980000  0.61110000  1.0 0.1300249168
H  H134  1  0.98580000  0.72830000  0.38180000  1.0 0.1300249168
H  H135  1  0.83640000  0.66810000  0.82990000  1.0 0.139658203
H  H136  1  0.87660000  0.62700000  0.78190000  1.0 0.139658203
H  H137  1  0.73970000  0.58090000  0.44740000  1.0 0.1300249168
H  H138  1  0.76550000  0.47920000  0.51340000  1.0 0.1209670678
H  H139  1  0.79890000  0.46130000  0.60200000  1.0 0.1300249168
H  H140  1  0.84150000  0.65870000  0.92810000  1.0 0.139658203
H  H141  1  0.85000000  0.41880000  0.00860000  1.0 0.1300249168
H  H142  1  0.81810000  0.55590000  0.11040000  1.0 0.1300249168
H  H143  1  0.09980000  0.55190000  0.44150000  1.0 0.11072905
H  H144  1  0.82850000  0.46790000  0.08900000  1.0 0.1300249168
H  H145  1  0.81510000  0.65360000  0.03370000  1.0 0.139658203
H  H146  1  0.97250000  0.53540000  0.78390000  1.0 0.1300249168
H  H147  1  0.07370000  0.68700000  0.79480000  1.0 0.1300249168
H  H148  1  0.06770000  0.45620000  0.79280000  1.0 0.1300249168
H  H149  1  0.11190000  0.46350000  0.66300000  1.0 0.1209670678
H  H150  1  0.17320000  0.53010000  0.63410000  1.0 0.1476844885
H  H151  1  0.25480000  0.30920000  0.71760000  1.0 0.1209670678
H  H152  1  0.15580000  0.47000000  0.79980000  1.0 0.11072905
H  H153  1  0.14700000  0.58350000  0.78090000  1.0 0.11072905
H  H154  1  0.32000000  0.50670000  0.60760000  1.0 0.139658203
H  H155  1  0.34660000  0.43600000  0.64930000  1.0 0.1300249168
H  H156  1  0.67100000  0.08160000  0.25210000  1.0 0.4044810049
H  H157  1  0.78830000  0.00470000  0.36830000  1.0 0.4092667439
H  H158  1  0.41290000  0.73230000  0.69450000  1.0 0.1300249168
H  H159  1  0.54960000  0.06680000  0.48310000  1.0 0.1300249168
H  H160  1  0.47470000  0.90590000  0.71230000  1.0 0.1300249168
H  H161  1  0.58510000  0.83680000  0.69380000  1.0 0.139658203
H  H162  1  0.63170000  0.80860000  0.63640000  1.0 0.139658203
H  H163  1  0.36550000  0.08370000  0.65330000  1.0 0.1300249168
H  H164  1  0.61110000  0.81840000  0.53980000  1.0 0.1300249168
H  H165  1  0.38180000  0.98580000  0.72830000  1.0 0.1300249168
H  H166  1  0.82990000  0.83640000  0.66810000  1.0 0.139658203
H  H167  1  0.78190000  0.87660000  0.62700000  1.0 0.139658203
H  H168  1  0.44740000  0.73970000  0.58090000  1.0 0.1300249168
H  H169  1  0.51340000  0.76550000  0.47920000  1.0 0.1209670678
H  H170  1  0.60200000  0.79890000  0.46130000  1.0 0.1300249168
H  H171  1  0.92810000  0.84150000  0.65870000  1.0 0.139658203
H  H172  1  0.00860000  0.85000000  0.41880000  1.0 0.1300249168
H  H173  1  0.11040000  0.81810000  0.55590000  1.0 0.1300249168
H  H174  1  0.44150000  0.09980000  0.55190000  1.0 0.11072905
H  H175  1  0.08900000  0.82850000  0.46790000  1.0 0.1300249168
H  H176  1  0.03370000  0.81510000  0.65360000  1.0 0.139658203
H  H177  1  0.78390000  0.97250000  0.53540000  1.0 0.1300249168
H  H178  1  0.79480000  0.07370000  0.68700000  1.0 0.1300249168
H  H179  1  0.79280000  0.06770000  0.45620000  1.0 0.1300249168
H  H180  1  0.66300000  0.11190000  0.46350000  1.0 0.11072905
H  H181  1  0.63410000  0.17320000  0.53010000  1.0 0.1476844885
H  H182  1  0.71760000  0.25480000  0.30920000  1.0 0.1209670678
H  H183  1  0.79980000  0.15580000  0.47000000  1.0 0.11072905
H  H184  1  0.78090000  0.14700000  0.58350000  1.0 0.11072905
H  H185  1  0.60760000  0.32000000  0.50670000  1.0 0.139658203
H  H186  1  0.64930000  0.34660000  0.43600000  1.0 0.1300249168
C  C1  1  0.26216000  0.24566000  0.54766000  1.0 -0.1487471871
C  C2  1  0.27361000  0.21861000  0.49951000  1.0 0.2659677802
C  C3  1  0.39486000  0.09646000  0.42286000  1.0 -0.0196294322
C  C4  1  0.31283000  0.25233000  0.55413000  1.0 -0.1284803388
C  C5  1  0.49672000  0.01962000  0.38512000  1.0 -0.1415041829
C  C6  1  0.48633000  0.97333000  0.44333000  1.0 -0.1284803388
C  C7  1  0.45051000  0.08161000  0.37561000  1.0 0.2336114211
C  C8  1  0.37501000  0.23701000  0.51291000  1.0 0.0528347027
C  C9  1  0.32050000  0.05550000  0.53140000  1.0 -0.1195733253
C  C10  1  0.60140000  0.13140000  0.09960000  1.0 0.6028607625
C  C11  1  0.47905000  0.13575000  0.13645000  1.0 0.2401323803
C  C12  1  0.38733000  0.21153000  0.46433000  1.0 0.0528347027
C  C13  1  0.38195000  0.04725000  0.48225000  1.0 0.0528347027
C  C14  1  0.19570000  0.26710000  0.59160000  1.0 0.637248192
C  C15  1  0.34688000  0.16558000  0.41168000  1.0 -0.2317272126
C  C16  1  0.35590000  0.94910000  0.59670000  1.0 -0.0894054062
C  C17  1  0.45133000  0.19793000  0.42173000  1.0 -0.1195733253
C  C18  1  0.55590000  0.00080000  0.33240000  1.0 0.6458382048
C  C19  1  0.31080000  0.00740000  0.58620000  1.0 -0.0626651632
C  C20  1  0.54150000  0.13980000  0.08660000  1.0 -0.1129700653
C  C21  1  0.33526000  0.19886000  0.45986000  1.0 -0.0315084894
C  C22  1  0.42934000  0.13884000  0.12334000  1.0 -0.0315084894
C  C23  1  0.36846000  0.12636000  0.17846000  1.0 -0.2317272126
C  C24  1  0.42690000  0.24470000  0.51960000  1.0 -0.1284803388
C  C25  1  0.42786000  0.98786000  0.49276000  1.0 0.0596462418
C  C26  1  0.48720000  0.23030000  0.48030000  1.0 -0.0894054062
C  C27  1  0.43350000  0.15060000  0.05810000  1.0 0.0596462418
C  C28  1  0.49070000  0.15710000  0.01000000  1.0 0.0596462418
C  C29  1  0.21590000  0.02120000  0.19450000  1.0 0.6167906561
C  C30  1  0.49820000  0.20820000  0.42780000  1.0 -0.0705871838
C  C31  1  0.29265000  0.07295000  0.18705000  1.0 0.2855296173
C  C32  1  0.35281000  0.06671000  0.18941000  1.0 -0.0126716357
C  C33  1  0.38010000  0.16130000  0.03990000  1.0 -0.1195733253
C  C34  1  0.54270000  0.14920000  0.02440000  1.0 -0.1415041829
C  C35  1  0.27650000  0.01990000  0.19610000  1.0 -0.1780606967
C  C36  1  0.44080000  0.17620000  0.93160000  1.0 -0.1004671708
C  C37  1  0.41600000  0.93910000  0.55080000  1.0 -0.1195733253
C  C38  1  0.49390000  0.16890000  0.94400000  1.0 -0.1284803388
C  C39  1  0.38290000  0.17580000  0.97730000  1.0 -0.0705871838
C  C40  1  0.45690000  0.99560000  0.21070000  1.0 -0.1415041829
C  C41  1  0.39580000  0.00470000  0.20480000  1.0 0.0596462418
C  C42  1  0.32200000  0.96120000  0.20360000  1.0 -0.1195733253
C  C43  1  0.37980000  0.95190000  0.20880000  1.0 0.0596462418
C  C44  1  0.50340000  0.93640000  0.20780000  1.0 -0.0705871838
C  C45  1  0.55410000  0.84720000  0.33180000  1.0 0.0705058178
C  C46  1  0.51410000  0.81060000  0.34930000  1.0 -0.2085128538
C  C47  1  0.54040000  0.74940000  0.34160000  1.0 0.1701527648
C  C48  1  0.60650000  0.72490000  0.31650000  1.0 -0.2085128538
C  C49  1  0.64650000  0.76160000  0.29920000  1.0 0.0596462418
C  C50  1  0.49590000  0.88110000  0.20550000  1.0 -0.1195733253
C  C51  1  0.42790000  0.88840000  0.21250000  1.0 -0.1004671708
C  C52  1  0.52540000  0.69000000  0.35120000  1.0 -0.2935064874
C  C53  1  0.24566000  0.54766000  0.26216000  1.0 -0.1487471871
C  C54  1  0.21861000  0.49951000  0.27361000  1.0 0.2659677802
C  C55  1  0.09646000  0.42286000  0.39486000  1.0 -0.0196294322
C  C56  1  0.25233000  0.55413000  0.31283000  1.0 -0.1284803388
C  C57  1  0.01962000  0.38512000  0.49672000  1.0 -0.1415041829
C  C58  1  0.97333000  0.44333000  0.48633000  1.0 -0.1284803388
C  C59  1  0.08161000  0.37561000  0.45051000  1.0 0.2336114211
C  C60  1  0.23701000  0.51291000  0.37501000  1.0 0.0528347027
C  C61  1  0.05550000  0.53140000  0.32050000  1.0 -0.1195733253
C  C62  1  0.13140000  0.09960000  0.60140000  1.0 0.6028607625
C  C63  1  0.13575000  0.13645000  0.47905000  1.0 0.2401323803
C  C64  1  0.21153000  0.46433000  0.38733000  1.0 0.0528347027
C  C65  1  0.04725000  0.48225000  0.38195000  1.0 0.0528347027
C  C66  1  0.26710000  0.59160000  0.19570000  1.0 0.637248192
C  C67  1  0.16558000  0.41168000  0.34688000  1.0 -0.2317272126
C  C68  1  0.94910000  0.59670000  0.35590000  1.0 -0.0894054062
C  C69  1  0.19793000  0.42173000  0.45133000  1.0 -0.1195733253
C  C70  1  0.00080000  0.33240000  0.55590000  1.0 0.6458382048
C  C71  1  0.00740000  0.58620000  0.31080000  1.0 -0.0626651632
C  C72  1  0.13980000  0.08660000  0.54150000  1.0 -0.1129700653
C  C73  1  0.19886000  0.45986000  0.33526000  1.0 -0.0315084894
C  C74  1  0.13884000  0.12334000  0.42934000  1.0 -0.0315084894
C  C75  1  0.12636000  0.17846000  0.36846000  1.0 -0.2317272126
C  C76  1  0.24470000  0.51960000  0.42690000  1.0 -0.1284803388
C  C77  1  0.98786000  0.49276000  0.42786000  1.0 0.0596462418
C  C78  1  0.23030000  0.48030000  0.48720000  1.0 -0.0894054062
C  C79  1  0.15060000  0.05810000  0.43350000  1.0 0.0596462418
C  C80  1  0.15710000  0.01000000  0.49070000  1.0 0.0596462418
C  C81  1  0.02120000  0.19450000  0.21590000  1.0 0.6167906561
C  C82  1  0.20820000  0.42780000  0.49820000  1.0 -0.0705871838
C  C83  1  0.07295000  0.18705000  0.29265000  1.0 0.2838994004
C  C84  1  0.06671000  0.18941000  0.35281000  1.0 -0.0126716357
C  C85  1  0.16130000  0.03990000  0.38010000  1.0 -0.1195733253
C  C86  1  0.14920000  0.02440000  0.54270000  1.0 -0.1415041829
C  C87  1  0.01990000  0.19610000  0.27650000  1.0 -0.1780606967
C  C88  1  0.17620000  0.93160000  0.44080000  1.0 -0.1004671708
C  C89  1  0.93910000  0.55080000  0.41600000  1.0 -0.1129700653
C  C90  1  0.16890000  0.94400000  0.49390000  1.0 -0.1284803388
C  C91  1  0.17580000  0.97730000  0.38290000  1.0 -0.0705871838
C  C92  1  0.99560000  0.21070000  0.45690000  1.0 -0.1415041829
C  C93  1  0.00470000  0.20480000  0.39580000  1.0 0.0596462418
C  C94  1  0.96120000  0.20360000  0.32200000  1.0 -0.1195733253
C  C95  1  0.95190000  0.20880000  0.37980000  1.0 0.0596462418
C  C96  1  0.93640000  0.20780000  0.50340000  1.0 -0.0705871838
C  C97  1  0.84720000  0.33180000  0.55410000  1.0 0.0705058178
C  C98  1  0.81060000  0.34930000  0.51410000  1.0 -0.2085128538
C  C99  1  0.74940000  0.34160000  0.54040000  1.0 0.1701527648
C  C100  1  0.72490000  0.31650000  0.60650000  1.0 -0.2085128538
C  C101  1  0.76160000  0.29920000  0.64650000  1.0 0.0596462418
C  C102  1  0.88110000  0.20550000  0.49590000  1.0 -0.1195733253
C  C103  1  0.88840000  0.21250000  0.42790000  1.0 -0.1004671708
C  C104  1  0.69000000  0.35120000  0.52540000  1.0 -0.2951445244
C  C105  1  0.54766000  0.26216000  0.24566000  1.0 -0.1487471871
C  C106  1  0.49951000  0.27361000  0.21861000  1.0 0.2659677802
C  C107  1  0.42286000  0.39486000  0.09646000  1.0 -0.0196294322
C  C108  1  0.55413000  0.31283000  0.25233000  1.0 -0.1284803388
C  C109  1  0.38512000  0.49672000  0.01962000  1.0 -0.1415041829
C  C110  1  0.44333000  0.48633000  0.97333000  1.0 -0.1284803388
C  C111  1  0.37561000  0.45051000  0.08161000  1.0 0.2336114211
C  C112  1  0.51291000  0.37501000  0.23701000  1.0 0.0528347027
C  C113  1  0.53140000  0.32050000  0.05550000  1.0 -0.1195733253
C  C114  1  0.09960000  0.60140000  0.13140000  1.0 0.6028607625
C  C115  1  0.13645000  0.47905000  0.13575000  1.0 0.2401323803
C  C116  1  0.46433000  0.38733000  0.21153000  1.0 0.0528347027
C  C117  1  0.48225000  0.38195000  0.04725000  1.0 0.0528347027
C  C118  1  0.59160000  0.19570000  0.26710000  1.0 0.637248192
C  C119  1  0.41168000  0.34688000  0.16558000  1.0 -0.2242720387
C  C120  1  0.59670000  0.35590000  0.94910000  1.0 -0.0894054062
C  C121  1  0.42173000  0.45133000  0.19793000  1.0 -0.1195733253
C  C122  1  0.33240000  0.55590000  0.00080000  1.0 0.6458382048
C  C123  1  0.58620000  0.31080000  0.00740000  1.0 -0.0626651632
C  C124  1  0.08660000  0.54150000  0.13980000  1.0 -0.1129700653
C  C125  1  0.45986000  0.33526000  0.19886000  1.0 -0.0315084894
C  C126  1  0.12334000  0.42934000  0.13884000  1.0 -0.0315084894
C  C127  1  0.17846000  0.36846000  0.12636000  1.0 -0.2317272126
C  C128  1  0.51960000  0.42690000  0.24470000  1.0 -0.1284803388
C  C129  1  0.49276000  0.42786000  0.98786000  1.0 0.0596462418
C  C130  1  0.48030000  0.48720000  0.23030000  1.0 -0.0894054062
C  C131  1  0.05810000  0.43350000  0.15060000  1.0 0.0596462418
C  C132  1  0.01000000  0.49070000  0.15710000  1.0 0.0596462418
C  C133  1  0.19450000  0.21590000  0.02120000  1.0 0.6167906561
C  C134  1  0.42780000  0.49820000  0.20820000  1.0 -0.0705871838
C  C135  1  0.18705000  0.29265000  0.07295000  1.0 0.2855296173
C  C136  1  0.18941000  0.35281000  0.06671000  1.0 -0.0126716357
C  C137  1  0.03990000  0.38010000  0.16130000  1.0 -0.1195733253
C  C138  1  0.02440000  0.54270000  0.14920000  1.0 -0.1415041829
C  C139  1  0.19610000  0.27650000  0.01990000  1.0 -0.1780606967
C  C140  1  0.93160000  0.44080000  0.17620000  1.0 -0.1004671708
C  C141  1  0.55080000  0.41600000  0.93910000  1.0 -0.1129700653
C  C142  1  0.94400000  0.49390000  0.16890000  1.0 -0.1284803388
C  C143  1  0.97730000  0.38290000  0.17580000  1.0 -0.0705871838
C  C144  1  0.21070000  0.45690000  0.99560000  1.0 -0.1415041829
C  C145  1  0.20480000  0.39580000  0.00470000  1.0 0.0596462418
C  C146  1  0.20360000  0.32200000  0.96120000  1.0 -0.1195733253
C  C147  1  0.20880000  0.37980000  0.95190000  1.0 0.0596462418
C  C148  1  0.20780000  0.50340000  0.93640000  1.0 -0.0705871838
C  C149  1  0.33180000  0.55410000  0.84720000  1.0 0.0705058178
C  C150  1  0.34930000  0.51410000  0.81060000  1.0 -0.2085128538
C  C151  1  0.34160000  0.54040000  0.74940000  1.0 0.1701527648
C  C152  1  0.31650000  0.60650000  0.72490000  1.0 -0.2085128538
C  C153  1  0.29920000  0.64650000  0.76160000  1.0 0.0596462418
C  C154  1  0.20550000  0.49590000  0.88110000  1.0 -0.1195733253
C  C155  1  0.21250000  0.42790000  0.88840000  1.0 -0.1004671708
C  C156  1  0.35120000  0.52540000  0.69000000  1.0 -0.2935064874
C  C157  1  0.73784000  0.45234000  0.75434000  1.0 -0.1487471871
C  C158  1  0.72639000  0.50049000  0.78139000  1.0 0.2659677802
C  C159  1  0.60514000  0.57714000  0.90354000  1.0 -0.0196294322
C  C160  1  0.68717000  0.44587000  0.74767000  1.0 -0.1284803388
C  C161  1  0.50328000  0.61488000  0.98038000  1.0 -0.1415041829
C  C162  1  0.51367000  0.55667000  0.02667000  1.0 -0.1284803388
C  C163  1  0.54949000  0.62439000  0.91839000  1.0 0.2336114211
C  C164  1  0.62499000  0.48709000  0.76299000  1.0 0.0528347027
C  C165  1  0.67950000  0.46860000  0.94450000  1.0 -0.1195733253
C  C166  1  0.39860000  0.90040000  0.86860000  1.0 0.6028607625
C  C167  1  0.52095000  0.86355000  0.86425000  1.0 0.2401323803
C  C168  1  0.61267000  0.53567000  0.78847000  1.0 0.0528347027
C  C169  1  0.61805000  0.51775000  0.95275000  1.0 0.0528347027
C  C170  1  0.80430000  0.40840000  0.73290000  1.0 0.637248192
C  C171  1  0.65312000  0.58832000  0.83442000  1.0 -0.2242720387
C  C172  1  0.64410000  0.40330000  0.05090000  1.0 -0.0894054062
C  C173  1  0.54867000  0.57827000  0.80207000  1.0 -0.1195733253
C  C174  1  0.44410000  0.66760000  0.99920000  1.0 0.6458382048
C  C175  1  0.68920000  0.41380000  0.99260000  1.0 -0.0626651632
C  C176  1  0.45850000  0.91340000  0.86020000  1.0 -0.1129700653
C  C177  1  0.66474000  0.54014000  0.80114000  1.0 -0.0315084894
C  C178  1  0.57066000  0.87666000  0.86116000  1.0 -0.0315084894
C  C179  1  0.63154000  0.82154000  0.87364000  1.0 -0.2317272126
C  C180  1  0.57310000  0.48040000  0.75530000  1.0 -0.1284803388
C  C181  1  0.57214000  0.50724000  0.01214000  1.0 0.0596462418
C  C182  1  0.51280000  0.51970000  0.76970000  1.0 -0.0894054062
C  C183  1  0.56650000  0.94190000  0.84940000  1.0 0.0596462418
C  C184  1  0.50930000  0.99000000  0.84290000  1.0 0.0596462418
C  C185  1  0.78410000  0.80550000  0.97880000  1.0 0.6167906561
C  C186  1  0.50180000  0.57220000  0.79180000  1.0 -0.0705871838
C  C187  1  0.70735000  0.81295000  0.92705000  1.0 0.2855296173
C  C188  1  0.64719000  0.81059000  0.93329000  1.0 -0.0126716357
C  C189  1  0.61990000  0.96010000  0.83870000  1.0 -0.1195733253
C  C190  1  0.45730000  0.97560000  0.85080000  1.0 -0.1415041829
C  C191  1  0.72350000  0.80390000  0.98010000  1.0 -0.1780606967
C  C192  1  0.55920000  0.06840000  0.82380000  1.0 -0.1004671708
C  C193  1  0.58400000  0.44920000  0.06090000  1.0 -0.1195733253
C  C194  1  0.50610000  0.05600000  0.83110000  1.0 -0.1284803388
C  C195  1  0.61710000  0.02270000  0.82420000  1.0 -0.0705871838
C  C196  1  0.54310000  0.78930000  0.00440000  1.0 -0.1415041829
C  C197  1  0.60420000  0.79520000  0.99530000  1.0 0.0596462418
C  C198  1  0.67800000  0.79640000  0.03880000  1.0 -0.1195733253
C  C199  1  0.62020000  0.79120000  0.04810000  1.0 0.0596462418
C  C200  1  0.49660000  0.79220000  0.06360000  1.0 -0.0705871838
C  C201  1  0.44590000  0.66820000  0.15280000  1.0 0.0705058178
C  C202  1  0.48590000  0.65070000  0.18940000  1.0 -0.2085128538
C  C203  1  0.45960000  0.65840000  0.25060000  1.0 0.1701527648
C  C204  1  0.39350000  0.68350000  0.27510000  1.0 -0.2085128538
C  C205  1  0.35350000  0.70080000  0.23840000  1.0 0.0596462418
C  C206  1  0.50410000  0.79450000  0.11890000  1.0 -0.1195733253
C  C207  1  0.57210000  0.78750000  0.11160000  1.0 -0.1004671708
C  C208  1  0.47460000  0.64880000  0.31000000  1.0 -0.2935064874
C  C209  1  0.75434000  0.73784000  0.45234000  1.0 -0.1487471871
C  C210  1  0.78139000  0.72639000  0.50049000  1.0 0.2659677802
C  C211  1  0.90354000  0.60514000  0.57714000  1.0 -0.0196294322
C  C212  1  0.74767000  0.68717000  0.44587000  1.0 -0.1284803388
C  C213  1  0.98038000  0.50328000  0.61488000  1.0 -0.1415041829
C  C214  1  0.02667000  0.51367000  0.55667000  1.0 -0.1284803388
C  C215  1  0.91839000  0.54949000  0.62439000  1.0 0.2336114211
C  C216  1  0.76299000  0.62499000  0.48709000  1.0 0.0528347027
C  C217  1  0.94450000  0.67950000  0.46860000  1.0 -0.1195733253
C  C218  1  0.86860000  0.39860000  0.90040000  1.0 0.6028607625
C  C219  1  0.86425000  0.52095000  0.86355000  1.0 0.2401323803
C  C220  1  0.78847000  0.61267000  0.53567000  1.0 0.0528347027
C  C221  1  0.95275000  0.61805000  0.51775000  1.0 0.0528347027
C  C222  1  0.73290000  0.80430000  0.40840000  1.0 0.637248192
C  C223  1  0.83442000  0.65312000  0.58832000  1.0 -0.2242720387
C  C224  1  0.05090000  0.64410000  0.40330000  1.0 -0.0894054062
C  C225  1  0.80207000  0.54867000  0.57827000  1.0 -0.1195733253
C  C226  1  0.99920000  0.44410000  0.66760000  1.0 0.6458382048
C  C227  1  0.99260000  0.68920000  0.41380000  1.0 -0.0626651632
C  C228  1  0.86020000  0.45850000  0.91340000  1.0 -0.1129700653
C  C229  1  0.80114000  0.66474000  0.54014000  1.0 -0.0315084894
C  C230  1  0.86116000  0.57066000  0.87666000  1.0 -0.0315084894
C  C231  1  0.87364000  0.63154000  0.82154000  1.0 -0.2317272126
C  C232  1  0.75530000  0.57310000  0.48040000  1.0 -0.1284803388
C  C233  1  0.01214000  0.57214000  0.50724000  1.0 0.0596462418
C  C234  1  0.76970000  0.51280000  0.51970000  1.0 -0.0894054062
C  C235  1  0.84940000  0.56650000  0.94190000  1.0 0.0596462418
C  C236  1  0.84290000  0.50930000  0.99000000  1.0 0.0596462418
C  C237  1  0.97880000  0.78410000  0.80550000  1.0 0.6167906561
C  C238  1  0.79180000  0.50180000  0.57220000  1.0 -0.0705871838
C  C239  1  0.92705000  0.70735000  0.81295000  1.0 0.2855296173
C  C240  1  0.93329000  0.64719000  0.81059000  1.0 -0.0126716357
C  C241  1  0.83870000  0.61990000  0.96010000  1.0 -0.1195733253
C  C242  1  0.85080000  0.45730000  0.97560000  1.0 -0.1415041829
C  C243  1  0.98010000  0.72350000  0.80390000  1.0 -0.1780606967
C  C244  1  0.82380000  0.55920000  0.06840000  1.0 -0.1004671708
C  C245  1  0.06090000  0.58400000  0.44920000  1.0 -0.1195733253
C  C246  1  0.83110000  0.50610000  0.05600000  1.0 -0.1284803388
C  C247  1  0.82420000  0.61710000  0.02270000  1.0 -0.0705871838
C  C248  1  0.00440000  0.54310000  0.78930000  1.0 -0.1415041829
C  C249  1  0.99530000  0.60420000  0.79520000  1.0 0.0596462418
C  C250  1  0.03880000  0.67800000  0.79640000  1.0 -0.1195733253
C  C251  1  0.04810000  0.62020000  0.79120000  1.0 0.0596462418
C  C252  1  0.06360000  0.49660000  0.79220000  1.0 -0.0705871838
C  C253  1  0.15280000  0.44590000  0.66820000  1.0 0.0705058178
C  C254  1  0.18940000  0.48590000  0.65070000  1.0 -0.2085128538
C  C255  1  0.25060000  0.45960000  0.65840000  1.0 0.1701527648
C  C256  1  0.27510000  0.39350000  0.68350000  1.0 -0.2085128538
C  C257  1  0.23840000  0.35350000  0.70080000  1.0 0.0596462418
C  C258  1  0.11890000  0.50410000  0.79450000  1.0 -0.1195733253
C  C259  1  0.11160000  0.57210000  0.78750000  1.0 -0.1004671708
C  C260  1  0.31000000  0.47460000  0.64880000  1.0 -0.2935064874
C  C261  1  0.45234000  0.75434000  0.73784000  1.0 -0.1487471871
C  C262  1  0.50049000  0.78139000  0.72639000  1.0 0.2659677802
C  C263  1  0.57714000  0.90354000  0.60514000  1.0 -0.0196294322
C  C264  1  0.44587000  0.74767000  0.68717000  1.0 -0.1284803388
C  C265  1  0.61488000  0.98038000  0.50328000  1.0 -0.1415041829
C  C266  1  0.55667000  0.02667000  0.51367000  1.0 -0.1284803388
C  C267  1  0.62439000  0.91839000  0.54949000  1.0 0.2336114211
C  C268  1  0.48709000  0.76299000  0.62499000  1.0 0.0528347027
C  C269  1  0.46860000  0.94450000  0.67950000  1.0 -0.1195733253
C  C270  1  0.90040000  0.86860000  0.39860000  1.0 0.6028607625
C  C271  1  0.86355000  0.86425000  0.52095000  1.0 0.2401323803
C  C272  1  0.53567000  0.78847000  0.61267000  1.0 0.0528347027
C  C273  1  0.51775000  0.95275000  0.61805000  1.0 0.0528347027
C  C274  1  0.40840000  0.73290000  0.80430000  1.0 0.637248192
C  C275  1  0.58832000  0.83442000  0.65312000  1.0 -0.2242720387
C  C276  1  0.40330000  0.05090000  0.64410000  1.0 -0.0894054062
C  C277  1  0.57827000  0.80207000  0.54867000  1.0 -0.1195733253
C  C278  1  0.66760000  0.99920000  0.44410000  1.0 0.6458382048
C  C279  1  0.41380000  0.99260000  0.68920000  1.0 -0.0626651632
C  C280  1  0.91340000  0.86020000  0.45850000  1.0 -0.1129700653
C  C281  1  0.54014000  0.80114000  0.66474000  1.0 -0.0315084894
C  C282  1  0.87666000  0.86116000  0.57066000  1.0 -0.0315084894
C  C283  1  0.82154000  0.87364000  0.63154000  1.0 -0.2317272126
C  C284  1  0.48040000  0.75530000  0.57310000  1.0 -0.1284803388
C  C285  1  0.50724000  0.01214000  0.57214000  1.0 0.0596462418
C  C286  1  0.51970000  0.76970000  0.51280000  1.0 -0.0894054062
C  C287  1  0.94190000  0.84940000  0.56650000  1.0 0.0596462418
C  C288  1  0.99000000  0.84290000  0.50930000  1.0 0.0596462418
C  C289  1  0.80550000  0.97880000  0.78410000  1.0 0.6167906561
C  C290  1  0.57220000  0.79180000  0.50180000  1.0 -0.0705871838
C  C291  1  0.81295000  0.92705000  0.70735000  1.0 0.2855296173
C  C292  1  0.81059000  0.93329000  0.64719000  1.0 -0.0126716357
C  C293  1  0.96010000  0.83870000  0.61990000  1.0 -0.1195733253
C  C294  1  0.97560000  0.85080000  0.45730000  1.0 -0.1415041829
C  C295  1  0.80390000  0.98010000  0.72350000  1.0 -0.1780606967
C  C296  1  0.06840000  0.82380000  0.55920000  1.0 -0.1004671708
C  C297  1  0.44920000  0.06090000  0.58400000  1.0 -0.1195733253
C  C298  1  0.05600000  0.83110000  0.50610000  1.0 -0.1284803388
C  C299  1  0.02270000  0.82420000  0.61710000  1.0 -0.0705871838
C  C300  1  0.78930000  0.00440000  0.54310000  1.0 -0.1415041829
C  C301  1  0.79520000  0.99530000  0.60420000  1.0 0.0596462418
C  C302  1  0.79640000  0.03880000  0.67800000  1.0 -0.1195733253
C  C303  1  0.79120000  0.04810000  0.62020000  1.0 0.0596462418
C  C304  1  0.79220000  0.06360000  0.49660000  1.0 -0.0705871838
C  C305  1  0.66820000  0.15280000  0.44590000  1.0 0.0705058178
C  C306  1  0.65070000  0.18940000  0.48590000  1.0 -0.2085128538
C  C307  1  0.65840000  0.25060000  0.45960000  1.0 0.1701527648
C  C308  1  0.68350000  0.27510000  0.39350000  1.0 -0.2085128538
C  C309  1  0.70080000  0.23840000  0.35350000  1.0 0.0596462418
C  C310  1  0.79450000  0.11890000  0.50410000  1.0 -0.1195733253
C  C311  1  0.78750000  0.11160000  0.57210000  1.0 -0.1004671708
C  C312  1  0.64880000  0.31000000  0.47460000  1.0 -0.2935064874
C  C313  1  0.50000000  0.70250000  0.29750000  1.0 0.0930446176
C  C314  1  0.70250000  0.29750000  0.50000000  1.0 0.0930446176
C  C315  1  0.29750000  0.50000000  0.70250000  1.0 0.0930446176
N  N1  1  0.62032000  0.82282000  0.30682000  1.0 -0.2826658003
N  N2  1  0.82282000  0.30682000  0.62032000  1.0 -0.2826658003
N  N3  1  0.30682000  0.62032000  0.82282000  1.0 -0.2826658003
N  N4  1  0.37968000  0.69318000  0.17718000  1.0 -0.2826658003
N  N5  1  0.17718000  0.37968000  0.69318000  1.0 -0.2826658003
N  N6  1  0.69318000  0.17718000  0.37968000  1.0 -0.2826658003
O  O1  1  0.22576000  0.20826000  0.49486000  1.0 -0.5967187069
O  O2  1  0.56590000  0.04090000  0.27420000  1.0 -0.6071849229
O  O3  1  0.47710000  0.12530000  0.19730000  1.0 -0.6168384614
O  O4  1  0.14771000  0.26311000  0.58571000  1.0 -0.5783625555
O  O5  1  0.59666000  0.12346000  0.15776000  1.0 -0.5967187069
O  O6  1  0.46213000  0.12803000  0.31703000  1.0 -0.6498059891
O  O7  1  0.19061000  0.28811000  0.63421000  1.0 -0.5369420908
O  O8  1  0.74080000  0.93580000  0.29410000  1.0 -0.7480016115
O  O9  1  0.59368000  0.94518000  0.34388000  1.0 -0.5143848223
O  O10  1  0.25352000  0.13092000  0.17262000  1.0 -0.5783625555
O  O11  1  0.66119000  0.96439000  0.20169000  1.0 -0.8368568184
O  O12  1  0.17205000  0.07575000  0.18905000  1.0 -0.5924543701
O  O13  1  0.65010000  0.13140000  0.05720000  1.0 -0.3781569712
O  O14  1  0.20737000  0.97357000  0.19777000  1.0 -0.4186142844
O  O15  1  0.20826000  0.49486000  0.22576000  1.0 -0.5967187069
O  O16  1  0.04090000  0.27420000  0.56590000  1.0 -0.6071849229
O  O17  1  0.12530000  0.19730000  0.47710000  1.0 -0.6168384614
O  O18  1  0.26311000  0.58571000  0.14771000  1.0 -0.5783625555
O  O19  1  0.12346000  0.15776000  0.59666000  1.0 -0.5967187069
O  O20  1  0.12803000  0.31703000  0.46213000  1.0 -0.6498059891
O  O21  1  0.28811000  0.63421000  0.19061000  1.0 -0.5369420908
O  O22  1  0.93580000  0.29410000  0.74080000  1.0 -0.7480016115
O  O23  1  0.94518000  0.34388000  0.59368000  1.0 -0.5143848223
O  O24  1  0.13092000  0.17262000  0.25352000  1.0 -0.5783625555
O  O25  1  0.96439000  0.20169000  0.66119000  1.0 -0.8368568184
O  O26  1  0.07575000  0.18905000  0.17205000  1.0 -0.5924543701
O  O27  1  0.13140000  0.05720000  0.65010000  1.0 -0.3781569712
O  O28  1  0.97357000  0.19777000  0.20737000  1.0 -0.4186142844
O  O29  1  0.49486000  0.22576000  0.20826000  1.0 -0.5967187069
O  O30  1  0.27420000  0.56590000  0.04090000  1.0 -0.6071849229
O  O31  1  0.19730000  0.47710000  0.12530000  1.0 -0.6168384614
O  O32  1  0.58571000  0.14771000  0.26311000  1.0 -0.5783625555
O  O33  1  0.15776000  0.59666000  0.12346000  1.0 -0.5967187069
O  O34  1  0.31703000  0.46213000  0.12803000  1.0 -0.6498059891
O  O35  1  0.63421000  0.19061000  0.28811000  1.0 -0.5369420908
O  O36  1  0.29410000  0.74080000  0.93580000  1.0 -0.7480016115
O  O37  1  0.34388000  0.59368000  0.94518000  1.0 -0.5143848223
O  O38  1  0.17262000  0.25352000  0.13092000  1.0 -0.5783625555
O  O39  1  0.20169000  0.66119000  0.96439000  1.0 -0.8368568184
O  O40  1  0.18905000  0.17205000  0.07575000  1.0 -0.5924543701
O  O41  1  0.05720000  0.65010000  0.13140000  1.0 -0.3874562494
O  O42  1  0.19777000  0.20737000  0.97357000  1.0 -0.4186142844
O  O43  1  0.77424000  0.50514000  0.79174000  1.0 -0.5967187069
O  O44  1  0.43410000  0.72580000  0.95910000  1.0 -0.6071849229
O  O45  1  0.52290000  0.80270000  0.87470000  1.0 -0.6168384614
O  O46  1  0.85229000  0.41429000  0.73689000  1.0 -0.5783625555
O  O47  1  0.40334000  0.84224000  0.87654000  1.0 -0.5924543701
O  O48  1  0.53787000  0.68297000  0.87197000  1.0 -0.6498059891
O  O49  1  0.80939000  0.36579000  0.71189000  1.0 -0.5369420908
O  O50  1  0.25920000  0.70590000  0.06420000  1.0 -0.7480016115
O  O51  1  0.40632000  0.65612000  0.05482000  1.0 -0.5143848223
O  O52  1  0.74648000  0.82738000  0.86908000  1.0 -0.5783625555
O  O53  1  0.33881000  0.79831000  0.03561000  1.0 -0.8368568184
O  O54  1  0.82795000  0.81095000  0.92425000  1.0 -0.5924543701
O  O55  1  0.34990000  0.94280000  0.86860000  1.0 -0.3874562494
O  O56  1  0.79263000  0.80223000  0.02643000  1.0 -0.4186142844
O  O57  1  0.79174000  0.77424000  0.50514000  1.0 -0.5967187069
O  O58  1  0.95910000  0.43410000  0.72580000  1.0 -0.6071849229
O  O59  1  0.87470000  0.52290000  0.80270000  1.0 -0.6168384614
O  O60  1  0.73689000  0.85229000  0.41429000  1.0 -0.5783625555
O  O61  1  0.87654000  0.40334000  0.84224000  1.0 -0.5924543701
O  O62  1  0.87197000  0.53787000  0.68297000  1.0 -0.6498059891
O  O63  1  0.71189000  0.80939000  0.36579000  1.0 -0.5369420908
O  O64  1  0.06420000  0.25920000  0.70590000  1.0 -0.7480016115
O  O65  1  0.05482000  0.40632000  0.65612000  1.0 -0.5143848223
O  O66  1  0.86908000  0.74648000  0.82738000  1.0 -0.5783625555
O  O67  1  0.03561000  0.33881000  0.79831000  1.0 -0.8368568184
O  O68  1  0.92425000  0.82795000  0.81095000  1.0 -0.5924543701
O  O69  1  0.86860000  0.34990000  0.94280000  1.0 -0.3874562494
O  O70  1  0.02643000  0.79263000  0.80223000  1.0 -0.4186142844
O  O71  1  0.50514000  0.79174000  0.77424000  1.0 -0.5967187069
O  O72  1  0.72580000  0.95910000  0.43410000  1.0 -0.6071849229
O  O73  1  0.80270000  0.87470000  0.52290000  1.0 -0.6168384614
O  O74  1  0.41429000  0.73689000  0.85229000  1.0 -0.5783625555
O  O75  1  0.84224000  0.87654000  0.40334000  1.0 -0.5967187069
O  O76  1  0.68297000  0.87197000  0.53787000  1.0 -0.6498059891
O  O77  1  0.36579000  0.71189000  0.80939000  1.0 -0.5369420908
O  O78  1  0.70590000  0.06420000  0.25920000  1.0 -0.7480016115
O  O79  1  0.65612000  0.05482000  0.40632000  1.0 -0.5143848223
O  O80  1  0.82738000  0.86908000  0.74648000  1.0 -0.5783625555
O  O81  1  0.79831000  0.03561000  0.33881000  1.0 -0.8368568184
O  O82  1  0.81095000  0.92425000  0.82795000  1.0 -0.5924543701
O  O83  1  0.94280000  0.86860000  0.34990000  1.0 -0.3874562494
O  O84  1  0.80223000  0.02643000  0.79263000  1.0 -0.4186142844
