# DDEC6 charges by PACMAN v1.1 (https://github.com/mtap-research/PACMAN-charge/)
data_PUJQEQ_FSR_pacman
_symmetry_space_group_name_H-M   'P 1'
_cell_length_a   14.70970000
_cell_length_b   21.83200000
_cell_length_c   26.71900000
_cell_angle_alpha   90.00000000
_cell_angle_beta   90.00000000
_cell_angle_gamma   90.00000000
_symmetry_Int_Tables_number   1
_chemical_formula_structural   CuH24C24(NO)6
_chemical_formula_sum   'Cu8 H192 C192 N48 O48'
_cell_volume   8580.59765092
_cell_formula_units_Z   8
loop_
 _symmetry_equiv_pos_site_id
 _symmetry_equiv_pos_as_xyz
  1  'x, y, z'
loop_
 _atom_site_type_symbol
 _atom_site_label
 _atom_site_symmetry_multiplicity
 _atom_site_fract_x
 _atom_site_fract_y
 _atom_site_fract_z
 _atom_site_occupancy
 _atom_site_charge
Cu  Cu1  1  0.25366000  0.49866000  0.53760000  1.0 0.6268198435
Cu  Cu2  1  0.74634000  0.99866000  0.96240000  1.0 0.6268198435
Cu  Cu3  1  0.75366000  0.99866000  0.46240000  1.0 0.6268198435
Cu  Cu4  1  0.24634000  0.49866000  0.03760000  1.0 0.6268198435
Cu  Cu5  1  0.24634000  0.00134000  0.53760000  1.0 0.6268198435
Cu  Cu6  1  0.75366000  0.50134000  0.96240000  1.0 0.6268198435
Cu  Cu7  1  0.74634000  0.50134000  0.46240000  1.0 0.6268198435
Cu  Cu8  1  0.25366000  0.00134000  0.03760000  1.0 0.6268198435
H  H1  1  0.26500000  0.37500000  0.49000000  1.0 0.0982800295
H  H2  1  0.73500000  0.87500000  0.01000000  1.0 0.0982800295
H  H3  1  0.76500000  0.87500000  0.51000000  1.0 0.0982800295
H  H4  1  0.23500000  0.37500000  0.99000000  1.0 0.0982800295
H  H5  1  0.16800000  0.28700000  0.48000000  1.0 0.1323314258
H  H6  1  0.83200000  0.78700000  0.02000000  1.0 0.1323314258
H  H7  1  0.66800000  0.78700000  0.52000000  1.0 0.1323314258
H  H8  1  0.33200000  0.28700000  0.98000000  1.0 0.1323314258
H  H9  1  0.96700000  0.37600000  0.56100000  1.0 0.1323314258
H  H10  1  0.03300000  0.87600000  0.93900000  1.0 0.1323314258
H  H11  1  0.46700000  0.87600000  0.43900000  1.0 0.1323314258
H  H12  1  0.53300000  0.37600000  0.06100000  1.0 0.1323314258
H  H13  1  0.06900000  0.46000000  0.57000000  1.0 0.0982800295
H  H14  1  0.93100000  0.96000000  0.93000000  1.0 0.0982800295
H  H15  1  0.56900000  0.96000000  0.43000000  1.0 0.0982800295
H  H16  1  0.43100000  0.46000000  0.07000000  1.0 0.0982800295
H  H17  1  0.99900000  0.24200000  0.54200000  1.0 0.1192764964
H  H18  1  0.00100000  0.74200000  0.95800000  1.0 0.1192764964
H  H19  1  0.49900000  0.74200000  0.45800000  1.0 0.1192764964
H  H20  1  0.50100000  0.24200000  0.04200000  1.0 0.1192764964
H  H21  1  0.92900000  0.28700000  0.51200000  1.0 0.109856683
H  H22  1  0.07100000  0.78700000  0.98800000  1.0 0.109856683
H  H23  1  0.42900000  0.78700000  0.48800000  1.0 0.109856683
H  H24  1  0.57100000  0.28700000  0.01200000  1.0 0.109856683
H  H25  1  0.99600000  0.26000000  0.43400000  1.0 0.1192764964
H  H26  1  0.00400000  0.76000000  0.06600000  1.0 0.1192764964
H  H27  1  0.49600000  0.76000000  0.56600000  1.0 0.1192764964
H  H28  1  0.50400000  0.26000000  0.93400000  1.0 0.1192764964
H  H29  1  0.07200000  0.21900000  0.46300000  1.0 0.0982800295
H  H30  1  0.92800000  0.71900000  0.03700000  1.0 0.0982800295
H  H31  1  0.57200000  0.71900000  0.53700000  1.0 0.0982800295
H  H32  1  0.42800000  0.21900000  0.96300000  1.0 0.0982800295
H  H33  1  0.04200000  0.11900000  0.43300000  1.0 0.1323314258
H  H34  1  0.95800000  0.61900000  0.06700000  1.0 0.1323314258
H  H35  1  0.54200000  0.61900000  0.56700000  1.0 0.1323314258
H  H36  1  0.45800000  0.11900000  0.93300000  1.0 0.1323314258
H  H37  1  0.94300000  0.03100000  0.43300000  1.0 0.0982800295
H  H38  1  0.05700000  0.53100000  0.06700000  1.0 0.0982800295
H  H39  1  0.44300000  0.53100000  0.56700000  1.0 0.0982800295
H  H40  1  0.55700000  0.03100000  0.93300000  1.0 0.0982800295
H  H41  1  0.73400000  0.13100000  0.48900000  1.0 0.090022926
H  H42  1  0.26600000  0.63100000  0.01100000  1.0 0.090022926
H  H43  1  0.23400000  0.63100000  0.51100000  1.0 0.090022926
H  H44  1  0.76600000  0.13100000  0.98900000  1.0 0.090022926
H  H45  1  0.82600000  0.22300000  0.48700000  1.0 0.1323314258
H  H46  1  0.17400000  0.72300000  0.01300000  1.0 0.1323314258
H  H47  1  0.32600000  0.72300000  0.51300000  1.0 0.1323314258
H  H48  1  0.67400000  0.22300000  0.98700000  1.0 0.1323314258
H  H49  1  0.11400000  0.49800000  0.45600000  1.0 0.0982800295
H  H50  1  0.88600000  0.99800000  0.04400000  1.0 0.0982800295
H  H51  1  0.61400000  0.99800000  0.54400000  1.0 0.0982800295
H  H52  1  0.38600000  0.49800000  0.95600000  1.0 0.0982800295
H  H53  1  0.10500000  0.51800000  0.36900000  1.0 0.1354548876
H  H54  1  0.89500000  0.01800000  0.13100000  1.0 0.1354548876
H  H55  1  0.60500000  0.01800000  0.63100000  1.0 0.1354548876
H  H56  1  0.39500000  0.51800000  0.86900000  1.0 0.1354548876
H  H57  1  0.38700000  0.53400000  0.36500000  1.0 0.1354548876
H  H58  1  0.61300000  0.03400000  0.13500000  1.0 0.1354548876
H  H59  1  0.88700000  0.03400000  0.63500000  1.0 0.1354548876
H  H60  1  0.11300000  0.53400000  0.86500000  1.0 0.1354548876
H  H61  1  0.38800000  0.51700000  0.45500000  1.0 0.0982800295
H  H62  1  0.61200000  0.01700000  0.04500000  1.0 0.0982800295
H  H63  1  0.88800000  0.01700000  0.54500000  1.0 0.0982800295
H  H64  1  0.11200000  0.51700000  0.95500000  1.0 0.0982800295
H  H65  1  0.29700000  0.56600000  0.29300000  1.0 0.109856683
H  H66  1  0.70300000  0.06600000  0.20700000  1.0 0.109856683
H  H67  1  0.79700000  0.06600000  0.70700000  1.0 0.109856683
H  H68  1  0.20300000  0.56600000  0.79300000  1.0 0.109856683
H  H69  1  0.18600000  0.56200000  0.29400000  1.0 0.109856683
H  H70  1  0.81400000  0.06200000  0.20600000  1.0 0.109856683
H  H71  1  0.68600000  0.06200000  0.70600000  1.0 0.1192764964
H  H72  1  0.31400000  0.56200000  0.79400000  1.0 0.109856683
H  H73  1  0.30500000  0.45800000  0.28400000  1.0 0.1192764964
H  H74  1  0.69500000  0.95800000  0.21600000  1.0 0.1192764964
H  H75  1  0.80500000  0.95800000  0.71600000  1.0 0.1192764964
H  H76  1  0.19500000  0.45800000  0.78400000  1.0 0.1192764964
H  H77  1  0.19400000  0.45400000  0.28500000  1.0 0.1192764964
H  H78  1  0.80600000  0.95400000  0.21500000  1.0 0.1192764964
H  H79  1  0.69400000  0.95400000  0.71500000  1.0 0.1192764964
H  H80  1  0.30600000  0.45400000  0.78500000  1.0 0.1192764964
H  H81  1  0.27100000  0.58000000  0.21400000  1.0 0.1323314258
H  H82  1  0.72900000  0.08000000  0.28600000  1.0 0.1323314258
H  H83  1  0.77100000  0.08000000  0.78600000  1.0 0.1323314258
H  H84  1  0.22900000  0.58000000  0.71400000  1.0 0.1323314258
H  H85  1  0.26900000  0.58400000  0.12400000  1.0 0.0982800295
H  H86  1  0.73100000  0.08400000  0.37600000  1.0 0.0982800295
H  H87  1  0.76900000  0.08400000  0.87600000  1.0 0.0982800295
H  H88  1  0.23100000  0.58400000  0.62400000  1.0 0.0982800295
H  H89  1  0.22400000  0.40100000  0.11600000  1.0 0.090022926
H  H90  1  0.77600000  0.90100000  0.38400000  1.0 0.090022926
H  H91  1  0.72400000  0.90100000  0.88400000  1.0 0.090022926
H  H92  1  0.27600000  0.40100000  0.61600000  1.0 0.090022926
H  H93  1  0.22100000  0.39300000  0.20500000  1.0 0.1323314258
H  H94  1  0.77900000  0.89300000  0.29500000  1.0 0.1323314258
H  H95  1  0.72100000  0.89300000  0.79500000  1.0 0.1323314258
H  H96  1  0.27900000  0.39300000  0.70500000  1.0 0.1323314258
H  H97  1  0.23500000  0.12500000  0.49000000  1.0 0.0982800295
H  H98  1  0.76500000  0.62500000  0.01000000  1.0 0.0982800295
H  H99  1  0.73500000  0.62500000  0.51000000  1.0 0.0982800295
H  H100  1  0.26500000  0.12500000  0.99000000  1.0 0.0982800295
H  H101  1  0.33200000  0.21300000  0.48000000  1.0 0.1323314258
H  H102  1  0.66800000  0.71300000  0.02000000  1.0 0.1323314258
H  H103  1  0.83200000  0.71300000  0.52000000  1.0 0.1323314258
H  H104  1  0.16800000  0.21300000  0.98000000  1.0 0.1323314258
H  H105  1  0.53300000  0.12400000  0.56100000  1.0 0.1323314258
H  H106  1  0.46700000  0.62400000  0.93900000  1.0 0.1323314258
H  H107  1  0.03300000  0.62400000  0.43900000  1.0 0.1323314258
H  H108  1  0.96700000  0.12400000  0.06100000  1.0 0.1323314258
H  H109  1  0.43100000  0.04000000  0.57000000  1.0 0.0982800295
H  H110  1  0.56900000  0.54000000  0.93000000  1.0 0.0982800295
H  H111  1  0.93100000  0.54000000  0.43000000  1.0 0.0982800295
H  H112  1  0.06900000  0.04000000  0.07000000  1.0 0.0982800295
H  H113  1  0.50100000  0.25800000  0.54200000  1.0 0.1192764964
H  H114  1  0.49900000  0.75800000  0.95800000  1.0 0.1192764964
H  H115  1  0.00100000  0.75800000  0.45800000  1.0 0.1192764964
H  H116  1  0.99900000  0.25800000  0.04200000  1.0 0.1192764964
H  H117  1  0.57100000  0.21300000  0.51200000  1.0 0.109856683
H  H118  1  0.42900000  0.71300000  0.98800000  1.0 0.109856683
H  H119  1  0.07100000  0.71300000  0.48800000  1.0 0.109856683
H  H120  1  0.92900000  0.21300000  0.01200000  1.0 0.109856683
H  H121  1  0.50400000  0.24000000  0.43400000  1.0 0.1192764964
H  H122  1  0.49600000  0.74000000  0.06600000  1.0 0.1192764964
H  H123  1  0.00400000  0.74000000  0.56600000  1.0 0.1192764964
H  H124  1  0.99600000  0.24000000  0.93400000  1.0 0.1192764964
H  H125  1  0.42800000  0.28100000  0.46300000  1.0 0.0982800295
H  H126  1  0.57200000  0.78100000  0.03700000  1.0 0.0982800295
H  H127  1  0.92800000  0.78100000  0.53700000  1.0 0.0982800295
H  H128  1  0.07200000  0.28100000  0.96300000  1.0 0.0982800295
H  H129  1  0.45800000  0.38100000  0.43300000  1.0 0.1323314258
H  H130  1  0.54200000  0.88100000  0.06700000  1.0 0.1323314258
H  H131  1  0.95800000  0.88100000  0.56700000  1.0 0.1323314258
H  H132  1  0.04200000  0.38100000  0.93300000  1.0 0.1323314258
H  H133  1  0.55700000  0.46900000  0.43300000  1.0 0.0982800295
H  H134  1  0.44300000  0.96900000  0.06700000  1.0 0.0982800295
H  H135  1  0.05700000  0.96900000  0.56700000  1.0 0.0982800295
H  H136  1  0.94300000  0.46900000  0.93300000  1.0 0.0982800295
H  H137  1  0.76600000  0.36900000  0.48900000  1.0 0.090022926
H  H138  1  0.23400000  0.86900000  0.01100000  1.0 0.090022926
H  H139  1  0.26600000  0.86900000  0.51100000  1.0 0.090022926
H  H140  1  0.73400000  0.36900000  0.98900000  1.0 0.090022926
H  H141  1  0.67400000  0.27700000  0.48700000  1.0 0.1323314258
H  H142  1  0.32600000  0.77700000  0.01300000  1.0 0.1323314258
H  H143  1  0.17400000  0.77700000  0.51300000  1.0 0.1323314258
H  H144  1  0.82600000  0.27700000  0.98700000  1.0 0.1323314258
H  H145  1  0.38600000  0.00200000  0.45600000  1.0 0.0982800295
H  H146  1  0.61400000  0.50200000  0.04400000  1.0 0.0982800295
H  H147  1  0.88600000  0.50200000  0.54400000  1.0 0.0982800295
H  H148  1  0.11400000  0.00200000  0.95600000  1.0 0.0982800295
H  H149  1  0.39500000  0.98200000  0.36900000  1.0 0.1354548876
H  H150  1  0.60500000  0.48200000  0.13100000  1.0 0.1354548876
H  H151  1  0.89500000  0.48200000  0.63100000  1.0 0.1354548876
H  H152  1  0.10500000  0.98200000  0.86900000  1.0 0.1354548876
H  H153  1  0.11300000  0.96600000  0.36500000  1.0 0.1354548876
H  H154  1  0.88700000  0.46600000  0.13500000  1.0 0.1354548876
H  H155  1  0.61300000  0.46600000  0.63500000  1.0 0.1354548876
H  H156  1  0.38700000  0.96600000  0.86500000  1.0 0.1354548876
H  H157  1  0.11200000  0.98300000  0.45500000  1.0 0.0982800295
H  H158  1  0.88800000  0.48300000  0.04500000  1.0 0.0982800295
H  H159  1  0.61200000  0.48300000  0.54500000  1.0 0.0982800295
H  H160  1  0.38800000  0.98300000  0.95500000  1.0 0.0982800295
H  H161  1  0.20300000  0.93400000  0.29300000  1.0 0.109856683
H  H162  1  0.79700000  0.43400000  0.20700000  1.0 0.109856683
H  H163  1  0.70300000  0.43400000  0.70700000  1.0 0.109856683
H  H164  1  0.29700000  0.93400000  0.79300000  1.0 0.109856683
H  H165  1  0.31400000  0.93800000  0.29400000  1.0 0.109856683
H  H166  1  0.68600000  0.43800000  0.20600000  1.0 0.109856683
H  H167  1  0.81400000  0.43800000  0.70600000  1.0 0.109856683
H  H168  1  0.18600000  0.93800000  0.79400000  1.0 0.109856683
H  H169  1  0.19500000  0.04200000  0.28400000  1.0 0.1192764964
H  H170  1  0.80500000  0.54200000  0.21600000  1.0 0.1192764964
H  H171  1  0.69500000  0.54200000  0.71600000  1.0 0.1192764964
H  H172  1  0.30500000  0.04200000  0.78400000  1.0 0.1192764964
H  H173  1  0.30600000  0.04600000  0.28500000  1.0 0.1192764964
H  H174  1  0.69400000  0.54600000  0.21500000  1.0 0.1192764964
H  H175  1  0.80600000  0.54600000  0.71500000  1.0 0.1192764964
H  H176  1  0.19400000  0.04600000  0.78500000  1.0 0.1192764964
H  H177  1  0.22900000  0.92000000  0.21400000  1.0 0.1323314258
H  H178  1  0.77100000  0.42000000  0.28600000  1.0 0.1323314258
H  H179  1  0.72900000  0.42000000  0.78600000  1.0 0.1323314258
H  H180  1  0.27100000  0.92000000  0.71400000  1.0 0.1323314258
H  H181  1  0.23100000  0.91600000  0.12400000  1.0 0.0982800295
H  H182  1  0.76900000  0.41600000  0.37600000  1.0 0.0982800295
H  H183  1  0.73100000  0.41600000  0.87600000  1.0 0.0982800295
H  H184  1  0.26900000  0.91600000  0.62400000  1.0 0.0982800295
H  H185  1  0.27600000  0.09900000  0.11600000  1.0 0.090022926
H  H186  1  0.72400000  0.59900000  0.38400000  1.0 0.090022926
H  H187  1  0.77600000  0.59900000  0.88400000  1.0 0.090022926
H  H188  1  0.22400000  0.09900000  0.61600000  1.0 0.090022926
H  H189  1  0.27900000  0.10700000  0.20500000  1.0 0.1323314258
H  H190  1  0.72100000  0.60700000  0.29500000  1.0 0.1323314258
H  H191  1  0.77900000  0.60700000  0.79500000  1.0 0.1323314258
H  H192  1  0.22100000  0.10700000  0.70500000  1.0 0.1323314258
C  C1  1  0.20180000  0.37490000  0.50591000  1.0 0.0787288228
C  C2  1  0.79820000  0.87490000  0.99409000  1.0 0.0787288228
C  C3  1  0.70180000  0.87490000  0.49409000  1.0 0.0787288228
C  C4  1  0.29820000  0.37490000  0.00591000  1.0 0.0787288228
C  C5  1  0.14570000  0.32360000  0.49920000  1.0 -0.1926399208
C  C6  1  0.85430000  0.82360000  0.00080000  1.0 -0.1926399208
C  C7  1  0.64570000  0.82360000  0.50080000  1.0 -0.1926399208
C  C8  1  0.35430000  0.32360000  0.99920000  1.0 -0.1926399208
C  C9  1  0.05850000  0.32360000  0.51875000  1.0 0.1876588856
C  C10  1  0.94150000  0.82360000  0.98125000  1.0 0.1876588856
C  C11  1  0.55850000  0.82360000  0.48125000  1.0 0.1876588856
C  C12  1  0.44150000  0.32360000  0.01875000  1.0 0.1876588856
C  C13  1  0.03050000  0.37470000  0.54565000  1.0 -0.2003389332
C  C14  1  0.96950000  0.87470000  0.95435000  1.0 -0.2003389332
C  C15  1  0.53050000  0.87470000  0.45435000  1.0 -0.2003389332
C  C16  1  0.46950000  0.37470000  0.04565000  1.0 -0.2003389332
C  C17  1  0.09140000  0.42310000  0.55186000  1.0 0.090022926
C  C18  1  0.90860000  0.92310000  0.94814000  1.0 0.090022926
C  C19  1  0.59140000  0.92310000  0.44814000  1.0 0.090022926
C  C20  1  0.40860000  0.42310000  0.05186000  1.0 0.090022926
C  C21  1  0.99360000  0.27060000  0.51198000  1.0 -0.22799357
C  C22  1  0.00640000  0.77060000  0.98802000  1.0 -0.22799357
C  C23  1  0.49360000  0.77060000  0.48802000  1.0 -0.22799357
C  C24  1  0.50640000  0.27060000  0.01198000  1.0 -0.22799357
C  C25  1  0.00640000  0.23290000  0.46520000  1.0 -0.2205755145
C  C26  1  0.99360000  0.73290000  0.03480000  1.0 -0.2205755145
C  C27  1  0.50640000  0.73290000  0.53480000  1.0 -0.2205755145
C  C28  1  0.49360000  0.23290000  0.96520000  1.0 -0.2205755145
C  C29  1  0.94370000  0.17840000  0.46202000  1.0 0.1834999864
C  C30  1  0.05630000  0.67840000  0.03798000  1.0 0.1834999864
C  C31  1  0.44370000  0.67840000  0.53798000  1.0 0.1834999864
C  C32  1  0.55630000  0.17840000  0.96202000  1.0 0.1834999864
C  C33  1  0.97650000  0.12280000  0.44466000  1.0 -0.2003389332
C  C34  1  0.02350000  0.62280000  0.05534000  1.0 -0.2003389332
C  C35  1  0.47650000  0.62280000  0.55534000  1.0 -0.2003389332
C  C36  1  0.52350000  0.12280000  0.94466000  1.0 -0.2003389332
C  C37  1  0.91790000  0.07230000  0.44373000  1.0 0.0787288228
C  C38  1  0.08210000  0.57230000  0.05627000  1.0 0.0787288228
C  C39  1  0.41790000  0.57230000  0.55627000  1.0 0.0787288228
C  C40  1  0.58210000  0.07230000  0.94373000  1.0 0.0787288228
C  C41  1  0.79920000  0.12850000  0.47593000  1.0 0.090022926
C  C42  1  0.20080000  0.62850000  0.02407000  1.0 0.090022926
C  C43  1  0.29920000  0.62850000  0.52407000  1.0 0.090022926
C  C44  1  0.70080000  0.12850000  0.97593000  1.0 0.090022926
C  C45  1  0.85320000  0.18260000  0.47620000  1.0 -0.2003389332
C  C46  1  0.14680000  0.68260000  0.02380000  1.0 -0.2003389332
C  C47  1  0.35320000  0.68260000  0.52380000  1.0 -0.2003389332
C  C48  1  0.64680000  0.18260000  0.97620000  1.0 -0.2003389332
C  C49  1  0.17130000  0.50610000  0.43719000  1.0 0.090022926
C  C50  1  0.82870000  0.00610000  0.06281000  1.0 0.090022926
C  C51  1  0.67130000  0.00610000  0.56281000  1.0 0.090022926
C  C52  1  0.32870000  0.50610000  0.93719000  1.0 0.090022926
C  C53  1  0.16650000  0.51780000  0.38614000  1.0 -0.2003389332
C  C54  1  0.83350000  0.01780000  0.11386000  1.0 -0.2003389332
C  C55  1  0.66650000  0.01780000  0.61386000  1.0 -0.2003389332
C  C56  1  0.33350000  0.51780000  0.88614000  1.0 -0.2003389332
C  C57  1  0.24540000  0.52790000  0.35880000  1.0 0.1673599147
C  C58  1  0.75460000  0.02790000  0.14120000  1.0 0.1673599147
C  C59  1  0.74540000  0.02790000  0.64120000  1.0 0.1673599147
C  C60  1  0.25460000  0.52790000  0.85880000  1.0 0.1673599147
C  C61  1  0.32750000  0.52670000  0.38384000  1.0 -0.2003389332
C  C62  1  0.67250000  0.02670000  0.11616000  1.0 -0.2003389332
C  C63  1  0.82750000  0.02670000  0.61616000  1.0 -0.2003389332
C  C64  1  0.17250000  0.52670000  0.88384000  1.0 -0.2003389332
C  C65  1  0.32790000  0.51720000  0.43654000  1.0 0.090022926
C  C66  1  0.67210000  0.01720000  0.06346000  1.0 0.090022926
C  C67  1  0.82790000  0.01720000  0.56346000  1.0 0.090022926
C  C68  1  0.17210000  0.51720000  0.93654000  1.0 0.090022926
C  C69  1  0.24370000  0.53980000  0.30296000  1.0 -0.22799357
C  C70  1  0.75630000  0.03980000  0.19704000  1.0 -0.22799357
C  C71  1  0.74370000  0.03980000  0.69704000  1.0 -0.22799357
C  C72  1  0.25630000  0.53980000  0.80296000  1.0 -0.22799357
C  C73  1  0.24710000  0.48000000  0.27442000  1.0 -0.2205755145
C  C74  1  0.75290000  0.98000000  0.22558000  1.0 -0.2205755145
C  C75  1  0.74710000  0.98000000  0.72558000  1.0 -0.2205755145
C  C76  1  0.25290000  0.48000000  0.77442000  1.0 -0.2205755145
C  C77  1  0.24560000  0.48620000  0.21787000  1.0 0.1673599147
C  C78  1  0.75440000  0.98620000  0.28213000  1.0 0.1673599147
C  C79  1  0.74560000  0.98620000  0.78213000  1.0 0.1673599147
C  C80  1  0.25440000  0.48620000  0.71787000  1.0 0.1673599147
C  C81  1  0.25990000  0.54100000  0.19312000  1.0 -0.1926399208
C  C82  1  0.74010000  0.04100000  0.30688000  1.0 -0.1926399208
C  C83  1  0.75990000  0.04100000  0.80688000  1.0 -0.1926399208
C  C84  1  0.24010000  0.54100000  0.69312000  1.0 -0.1926399208
C  C85  1  0.25940000  0.54280000  0.14143000  1.0 0.0787288228
C  C86  1  0.74060000  0.04280000  0.35857000  1.0 0.0787288228
C  C87  1  0.75940000  0.04280000  0.85857000  1.0 0.0787288228
C  C88  1  0.24060000  0.54280000  0.64143000  1.0 0.0787288228
C  C89  1  0.23420000  0.43980000  0.13692000  1.0 0.0708567687
C  C90  1  0.76580000  0.93980000  0.36308000  1.0 0.0708567687
C  C91  1  0.73420000  0.93980000  0.86308000  1.0 0.0708567687
C  C92  1  0.26580000  0.43980000  0.63692000  1.0 0.0708567687
C  C93  1  0.23220000  0.43460000  0.18815000  1.0 -0.2003389332
C  C94  1  0.76780000  0.93460000  0.31185000  1.0 -0.2003389332
C  C95  1  0.73220000  0.93460000  0.81185000  1.0 -0.2003389332
C  C96  1  0.26780000  0.43460000  0.68815000  1.0 -0.2003389332
C  C97  1  0.29820000  0.12510000  0.50591000  1.0 0.0787288228
C  C98  1  0.70180000  0.62510000  0.99409000  1.0 0.0787288228
C  C99  1  0.79820000  0.62510000  0.49409000  1.0 0.0787288228
C  C100  1  0.20180000  0.12510000  0.00591000  1.0 0.0787288228
C  C101  1  0.35430000  0.17640000  0.49920000  1.0 -0.1926399208
C  C102  1  0.64570000  0.67640000  0.00080000  1.0 -0.1926399208
C  C103  1  0.85430000  0.67640000  0.50080000  1.0 -0.1926399208
C  C104  1  0.14570000  0.17640000  0.99920000  1.0 -0.1926399208
C  C105  1  0.44150000  0.17640000  0.51875000  1.0 0.1876588856
C  C106  1  0.55850000  0.67640000  0.98125000  1.0 0.1876588856
C  C107  1  0.94150000  0.67640000  0.48125000  1.0 0.1876588856
C  C108  1  0.05850000  0.17640000  0.01875000  1.0 0.1876588856
C  C109  1  0.46950000  0.12530000  0.54565000  1.0 -0.2003389332
C  C110  1  0.53050000  0.62530000  0.95435000  1.0 -0.2003389332
C  C111  1  0.96950000  0.62530000  0.45435000  1.0 -0.2003389332
C  C112  1  0.03050000  0.12530000  0.04565000  1.0 -0.2003389332
C  C113  1  0.40860000  0.07690000  0.55186000  1.0 0.090022926
C  C114  1  0.59140000  0.57690000  0.94814000  1.0 0.090022926
C  C115  1  0.90860000  0.57690000  0.44814000  1.0 0.090022926
C  C116  1  0.09140000  0.07690000  0.05186000  1.0 0.090022926
C  C117  1  0.50640000  0.22940000  0.51198000  1.0 -0.22799357
C  C118  1  0.49360000  0.72940000  0.98802000  1.0 -0.22799357
C  C119  1  0.00640000  0.72940000  0.48802000  1.0 -0.22799357
C  C120  1  0.99360000  0.22940000  0.01198000  1.0 -0.22799357
C  C121  1  0.49360000  0.26710000  0.46520000  1.0 -0.2205755145
C  C122  1  0.50640000  0.76710000  0.03480000  1.0 -0.2205755145
C  C123  1  0.99360000  0.76710000  0.53480000  1.0 -0.2205755145
C  C124  1  0.00640000  0.26710000  0.96520000  1.0 -0.2205755145
C  C125  1  0.55630000  0.32160000  0.46202000  1.0 0.1834999864
C  C126  1  0.44370000  0.82160000  0.03798000  1.0 0.1834999864
C  C127  1  0.05630000  0.82160000  0.53798000  1.0 0.1834999864
C  C128  1  0.94370000  0.32160000  0.96202000  1.0 0.1834999864
C  C129  1  0.52350000  0.37720000  0.44466000  1.0 -0.2003389332
C  C130  1  0.47650000  0.87720000  0.05534000  1.0 -0.2003389332
C  C131  1  0.02350000  0.87720000  0.55534000  1.0 -0.2003389332
C  C132  1  0.97650000  0.37720000  0.94466000  1.0 -0.2003389332
C  C133  1  0.58210000  0.42770000  0.44373000  1.0 0.0787288228
C  C134  1  0.41790000  0.92770000  0.05627000  1.0 0.0787288228
C  C135  1  0.08210000  0.92770000  0.55627000  1.0 0.0787288228
C  C136  1  0.91790000  0.42770000  0.94373000  1.0 0.0787288228
C  C137  1  0.70080000  0.37150000  0.47593000  1.0 0.090022926
C  C138  1  0.29920000  0.87150000  0.02407000  1.0 0.090022926
C  C139  1  0.20080000  0.87150000  0.52407000  1.0 0.090022926
C  C140  1  0.79920000  0.37150000  0.97593000  1.0 0.090022926
C  C141  1  0.64680000  0.31740000  0.47620000  1.0 -0.2003389332
C  C142  1  0.35320000  0.81740000  0.02380000  1.0 -0.2003389332
C  C143  1  0.14680000  0.81740000  0.52380000  1.0 -0.2003389332
C  C144  1  0.85320000  0.31740000  0.97620000  1.0 -0.2003389332
C  C145  1  0.32870000  0.99390000  0.43719000  1.0 0.090022926
C  C146  1  0.67130000  0.49390000  0.06281000  1.0 0.090022926
C  C147  1  0.82870000  0.49390000  0.56281000  1.0 0.090022926
C  C148  1  0.17130000  0.99390000  0.93719000  1.0 0.090022926
C  C149  1  0.33350000  0.98220000  0.38614000  1.0 -0.2003389332
C  C150  1  0.66650000  0.48220000  0.11386000  1.0 -0.2003389332
C  C151  1  0.83350000  0.48220000  0.61386000  1.0 -0.2003389332
C  C152  1  0.16650000  0.98220000  0.88614000  1.0 -0.2003389332
C  C153  1  0.25460000  0.97210000  0.35880000  1.0 0.1673599147
C  C154  1  0.74540000  0.47210000  0.14120000  1.0 0.1673599147
C  C155  1  0.75460000  0.47210000  0.64120000  1.0 0.1673599147
C  C156  1  0.24540000  0.97210000  0.85880000  1.0 0.1673599147
C  C157  1  0.17250000  0.97330000  0.38384000  1.0 -0.2003389332
C  C158  1  0.82750000  0.47330000  0.11616000  1.0 -0.2003389332
C  C159  1  0.67250000  0.47330000  0.61616000  1.0 -0.2003389332
C  C160  1  0.32750000  0.97330000  0.88384000  1.0 -0.2003389332
C  C161  1  0.17210000  0.98280000  0.43654000  1.0 0.090022926
C  C162  1  0.82790000  0.48280000  0.06346000  1.0 0.090022926
C  C163  1  0.67210000  0.48280000  0.56346000  1.0 0.090022926
C  C164  1  0.32790000  0.98280000  0.93654000  1.0 0.090022926
C  C165  1  0.25630000  0.96020000  0.30296000  1.0 -0.22799357
C  C166  1  0.74370000  0.46020000  0.19704000  1.0 -0.22799357
C  C167  1  0.75630000  0.46020000  0.69704000  1.0 -0.22799357
C  C168  1  0.24370000  0.96020000  0.80296000  1.0 -0.22799357
C  C169  1  0.25290000  0.02000000  0.27442000  1.0 -0.2205755145
C  C170  1  0.74710000  0.52000000  0.22558000  1.0 -0.2205755145
C  C171  1  0.75290000  0.52000000  0.72558000  1.0 -0.2205755145
C  C172  1  0.24710000  0.02000000  0.77442000  1.0 -0.2205755145
C  C173  1  0.25440000  0.01380000  0.21787000  1.0 0.1673599147
C  C174  1  0.74560000  0.51380000  0.28213000  1.0 0.1673599147
C  C175  1  0.75440000  0.51380000  0.78213000  1.0 0.1673599147
C  C176  1  0.24560000  0.01380000  0.71787000  1.0 0.1673599147
C  C177  1  0.24010000  0.95900000  0.19312000  1.0 -0.1926399208
C  C178  1  0.75990000  0.45900000  0.30688000  1.0 -0.1926399208
C  C179  1  0.74010000  0.45900000  0.80688000  1.0 -0.1926399208
C  C180  1  0.25990000  0.95900000  0.69312000  1.0 -0.1926399208
C  C181  1  0.24060000  0.95720000  0.14143000  1.0 0.0787288228
C  C182  1  0.75940000  0.45720000  0.35857000  1.0 0.0787288228
C  C183  1  0.74060000  0.45720000  0.85857000  1.0 0.0787288228
C  C184  1  0.25940000  0.95720000  0.64143000  1.0 0.0787288228
C  C185  1  0.26580000  0.06020000  0.13692000  1.0 0.0708567687
C  C186  1  0.73420000  0.56020000  0.36308000  1.0 0.0708567687
C  C187  1  0.76580000  0.56020000  0.86308000  1.0 0.0708567687
C  C188  1  0.23420000  0.06020000  0.63692000  1.0 0.0708567687
C  C189  1  0.26780000  0.06540000  0.18815000  1.0 -0.2003389332
C  C190  1  0.73220000  0.56540000  0.31185000  1.0 -0.2003389332
C  C191  1  0.76780000  0.56540000  0.81185000  1.0 -0.2003389332
C  C192  1  0.23220000  0.06540000  0.68815000  1.0 -0.2003389332
N  N1  1  0.42440000  0.40412000  0.55948000  1.0 0.6891549388
N  N2  1  0.57560000  0.90412000  0.94052000  1.0 0.6891549388
N  N3  1  0.92440000  0.90412000  0.44052000  1.0 0.6891549388
N  N4  1  0.07560000  0.40412000  0.05948000  1.0 0.6848596578
N  N5  1  0.07390000  0.58924000  0.57151000  1.0 0.6891549388
N  N6  1  0.92610000  0.08924000  0.92849000  1.0 0.6891549388
N  N7  1  0.57390000  0.08924000  0.42849000  1.0 0.6891549388
N  N8  1  0.42610000  0.58924000  0.07151000  1.0 0.6891549388
N  N9  1  0.17470000  0.42312000  0.53315000  1.0 -0.22799357
N  N10  1  0.82530000  0.92312000  0.96685000  1.0 -0.22799357
N  N11  1  0.67470000  0.92312000  0.46685000  1.0 -0.22799357
N  N12  1  0.32530000  0.42312000  0.03315000  1.0 -0.22799357
N  N13  1  0.83130000  0.07589000  0.45864000  1.0 -0.2205755145
N  N14  1  0.16870000  0.57589000  0.04136000  1.0 -0.2205755145
N  N15  1  0.33130000  0.57589000  0.54136000  1.0 -0.22799357
N  N16  1  0.66870000  0.07589000  0.95864000  1.0 -0.2205755145
N  N17  1  0.25050000  0.50716000  0.46217000  1.0 -0.2205755145
N  N18  1  0.74950000  0.00716000  0.03783000  1.0 -0.2205755145
N  N19  1  0.75050000  0.00716000  0.53783000  1.0 -0.2205755145
N  N20  1  0.24950000  0.50716000  0.96217000  1.0 -0.2205755145
N  N21  1  0.24670000  0.49316000  0.11312000  1.0 -0.2205755145
N  N22  1  0.75330000  0.99316000  0.38688000  1.0 -0.2205755145
N  N23  1  0.74670000  0.99316000  0.88688000  1.0 -0.2205755145
N  N24  1  0.25330000  0.49316000  0.61312000  1.0 -0.2205755145
N  N25  1  0.07560000  0.09588000  0.55948000  1.0 0.6891549388
N  N26  1  0.92440000  0.59588000  0.94052000  1.0 0.6891549388
N  N27  1  0.57560000  0.59588000  0.44052000  1.0 0.6891549388
N  N28  1  0.42440000  0.09588000  0.05948000  1.0 0.6848596578
N  N29  1  0.42610000  0.91076000  0.57151000  1.0 0.6891549388
N  N30  1  0.57390000  0.41076000  0.92849000  1.0 0.6891549388
N  N31  1  0.92610000  0.41076000  0.42849000  1.0 0.6891549388
N  N32  1  0.07390000  0.91076000  0.07151000  1.0 0.6891549388
N  N33  1  0.32530000  0.07688000  0.53315000  1.0 -0.22799357
N  N34  1  0.67470000  0.57688000  0.96685000  1.0 -0.22799357
N  N35  1  0.82530000  0.57688000  0.46685000  1.0 -0.22799357
N  N36  1  0.17470000  0.07688000  0.03315000  1.0 -0.22799357
N  N37  1  0.66870000  0.42411000  0.45864000  1.0 -0.2205755145
N  N38  1  0.33130000  0.92411000  0.04136000  1.0 -0.2205755145
N  N39  1  0.16870000  0.92411000  0.54136000  1.0 -0.22799357
N  N40  1  0.83130000  0.42411000  0.95864000  1.0 -0.2205755145
N  N41  1  0.24950000  0.99284000  0.46217000  1.0 -0.2205755145
N  N42  1  0.75050000  0.49284000  0.03783000  1.0 -0.2205755145
N  N43  1  0.74950000  0.49284000  0.53783000  1.0 -0.2205755145
N  N44  1  0.25050000  0.99284000  0.96217000  1.0 -0.2205755145
N  N45  1  0.25330000  0.00684000  0.11312000  1.0 -0.2205755145
N  N46  1  0.74670000  0.50684000  0.38688000  1.0 -0.2205755145
N  N47  1  0.75330000  0.50684000  0.88688000  1.0 -0.2205755145
N  N48  1  0.24670000  0.00684000  0.61312000  1.0 -0.2205755145
O  O1  1  0.38620000  0.43873000  0.52676000  1.0 -0.5156631525
O  O2  1  0.61380000  0.93873000  0.97324000  1.0 -0.5156631525
O  O3  1  0.88620000  0.93873000  0.47324000  1.0 -0.5156631525
O  O4  1  0.11380000  0.43873000  0.02676000  1.0 -0.5156631525
O  O5  1  0.40840000  0.34948000  0.55982000  1.0 -0.4015171881
O  O6  1  0.59160000  0.84948000  0.94018000  1.0 -0.4015171881
O  O7  1  0.90840000  0.84948000  0.44018000  1.0 -0.4015171881
O  O8  1  0.09160000  0.34948000  0.05982000  1.0 -0.4015171881
O  O9  1  0.47370000  0.42886000  0.59135000  1.0 -0.4277105387
O  O10  1  0.52630000  0.92886000  0.90865000  1.0 -0.4277105387
O  O11  1  0.97370000  0.92886000  0.40865000  1.0 -0.4277105387
O  O12  1  0.02630000  0.42886000  0.09135000  1.0 -0.4277105387
O  O13  1  0.11330000  0.56201000  0.53579000  1.0 -0.514489388
O  O14  1  0.88670000  0.06201000  0.96421000  1.0 -0.514489388
O  O15  1  0.61330000  0.06201000  0.46421000  1.0 -0.514489388
O  O16  1  0.38670000  0.56201000  0.03579000  1.0 -0.514489388
O  O17  1  0.01760000  0.55960000  0.59763000  1.0 -0.4547103996
O  O18  1  0.98240000  0.05960000  0.90237000  1.0 -0.4547103996
O  O19  1  0.51760000  0.05960000  0.40237000  1.0 -0.4547103996
O  O20  1  0.48240000  0.55960000  0.09763000  1.0 -0.4547103996
O  O21  1  0.09070000  0.64328000  0.58121000  1.0 -0.4277105387
O  O22  1  0.90930000  0.14328000  0.91879000  1.0 -0.4277105387
O  O23  1  0.59070000  0.14328000  0.41879000  1.0 -0.4277105387
O  O24  1  0.40930000  0.64328000  0.08121000  1.0 -0.4277105387
O  O25  1  0.11380000  0.06127000  0.52676000  1.0 -0.5156631525
O  O26  1  0.88620000  0.56127000  0.97324000  1.0 -0.5156631525
O  O27  1  0.61380000  0.56127000  0.47324000  1.0 -0.5156631525
O  O28  1  0.38620000  0.06127000  0.02676000  1.0 -0.5156631525
O  O29  1  0.09160000  0.15052000  0.55982000  1.0 -0.4015171881
O  O30  1  0.90840000  0.65052000  0.94018000  1.0 -0.4015171881
O  O31  1  0.59160000  0.65052000  0.44018000  1.0 -0.4015171881
O  O32  1  0.40840000  0.15052000  0.05982000  1.0 -0.4015171881
O  O33  1  0.02630000  0.07114000  0.59135000  1.0 -0.4277105387
O  O34  1  0.97370000  0.57114000  0.90865000  1.0 -0.4277105387
O  O35  1  0.52630000  0.57114000  0.40865000  1.0 -0.4277105387
O  O36  1  0.47370000  0.07114000  0.09135000  1.0 -0.4277105387
O  O37  1  0.38670000  0.93799000  0.53579000  1.0 -0.514489388
O  O38  1  0.61330000  0.43799000  0.96421000  1.0 -0.514489388
O  O39  1  0.88670000  0.43799000  0.46421000  1.0 -0.514489388
O  O40  1  0.11330000  0.93799000  0.03579000  1.0 -0.514489388
O  O41  1  0.48240000  0.94040000  0.59763000  1.0 -0.4547103996
O  O42  1  0.51760000  0.44040000  0.90237000  1.0 -0.4547103996
O  O43  1  0.98240000  0.44040000  0.40237000  1.0 -0.4547103996
O  O44  1  0.01760000  0.94040000  0.09763000  1.0 -0.4547103996
O  O45  1  0.40930000  0.85672000  0.58121000  1.0 -0.4277105387
O  O46  1  0.59070000  0.35672000  0.91879000  1.0 -0.4277105387
O  O47  1  0.90930000  0.35672000  0.41879000  1.0 -0.4277105387
O  O48  1  0.09070000  0.85672000  0.08121000  1.0 -0.4277105387
