# DDEC6 charges by PACMAN v1.1 (https://github.com/mtap-research/PACMAN-charge/)
data_PUKGIO_ASR_pacman
_chemical_formula_sum              "O132 C384 H216 Zr24 N16"
_cell_length_a       16.5139
_cell_length_b       29.501
_cell_length_c       29.946
_cell_angle_alpha    90
_cell_angle_beta     90
_cell_angle_gamma    90

_symmetry_space_group_name_H-M    "P 1"
_symmetry_Int_Tables_number       1

loop_
  _symmetry_equiv_pos_as_xyz
  'x, y, z'

loop_
  _atom_site_type_symbol
  _atom_site_label
  _atom_site_symmetry_multiplicity
  _atom_site_fract_x
  _atom_site_fract_y
  _atom_site_fract_z
  _atom_site_occupancy
 _atom_site_charge
O   O1        1.0  0.08070  0.37765  0.04489  1.0000 -0.6086172256
O   O2        1.0  0.15270  0.43360  0.08030  1.0000 -0.6014201157
C   C1        1.0  0.13030  0.39260  0.07380  1.0000 0.6101435479
C   C2        1.0  0.16690  0.35910  0.10570  1.0000 -0.028493138
C   C3        1.0  0.22370  0.37440  0.13690  1.0000 -0.0975781079
H   H1        1.0  0.24310  0.40470  0.13530  1.0000 0.1228571348
C   C4        1.0  0.25160  0.34590  0.17020  1.0000 -0.1724686794
H   H2        1.0  0.28980  0.35650  0.19150  1.0000 0.1015966161
C   C5        1.0  0.22320  0.30150  0.17210  1.0000 0.0196023982
C   C6        1.0  0.16900  0.28600  0.13980  1.0000 -0.1821133206
H   H3        1.0  0.15070  0.25550  0.14040  1.0000 0.1133575253
C   C7        1.0  0.14190  0.31510  0.10700  1.0000 -0.0934081813
H   H4        1.0  0.10530  0.30430  0.08490  1.0000 0.1228571348
C   C8        1.0  0.24440  0.27410  0.21170  1.0000 0.0778922915
O   O3        1.0  0.08070  0.87765  0.54489  1.0000 -0.6086172256
O   O4        1.0  0.15270  0.93360  0.58030  1.0000 -0.6014201157
C   C9        1.0  0.13030  0.89260  0.57380  1.0000 0.6101435479
C   C10       1.0  0.16690  0.85910  0.60570  1.0000 -0.028493138
C   C11       1.0  0.22370  0.87440  0.63690  1.0000 -0.0975781079
H   H5        1.0  0.24310  0.90470  0.63530  1.0000 0.1228571348
C   C12       1.0  0.25160  0.84590  0.67020  1.0000 -0.1724686794
H   H6        1.0  0.28980  0.85650  0.69150  1.0000 0.1015966161
C   C13       1.0  0.22320  0.80150  0.67210  1.0000 0.0196023982
C   C14       1.0  0.16900  0.78600  0.63980  1.0000 -0.1821133206
H   H7        1.0  0.15070  0.75550  0.64040  1.0000 0.1133575253
C   C15       1.0  0.14190  0.81510  0.60700  1.0000 -0.0934081813
H   H8        1.0  0.10530  0.80430  0.58490  1.0000 0.1228571348
C   C16       1.0  0.24440  0.77410  0.71170  1.0000 0.0778922915
O   O5        1.0  0.58070  0.37765  0.54489  1.0000 -0.6086172256
O   O6        1.0  0.65270  0.43360  0.58030  1.0000 -0.6014201157
C   C17       1.0  0.63030  0.39260  0.57380  1.0000 0.6101435479
C   C18       1.0  0.66690  0.35910  0.60570  1.0000 -0.028493138
C   C19       1.0  0.72370  0.37440  0.63690  1.0000 -0.0975781079
H   H9        1.0  0.74310  0.40470  0.63530  1.0000 0.1228571348
C   C20       1.0  0.75160  0.34590  0.67020  1.0000 -0.1724686794
H   H10       1.0  0.78980  0.35650  0.69150  1.0000 0.1015966161
C   C21       1.0  0.72320  0.30150  0.67210  1.0000 0.0196023982
C   C22       1.0  0.66900  0.28600  0.63980  1.0000 -0.1821133206
H   H11       1.0  0.65070  0.25550  0.64040  1.0000 0.1133575253
C   C23       1.0  0.64190  0.31510  0.60700  1.0000 -0.0934081813
H   H12       1.0  0.60530  0.30430  0.58490  1.0000 0.1228571348
C   C24       1.0  0.74440  0.27410  0.71170  1.0000 0.0778922915
O   O7        1.0  0.58070  0.87765  0.04489  1.0000 -0.6086172256
O   O8        1.0  0.65270  0.93360  0.08030  1.0000 -0.6014201157
C   C25       1.0  0.63030  0.89260  0.07380  1.0000 0.6101435479
C   C26       1.0  0.66690  0.85910  0.10570  1.0000 -0.028493138
C   C27       1.0  0.72370  0.87440  0.13690  1.0000 -0.0975781079
H   H13       1.0  0.74310  0.90470  0.13530  1.0000 0.1228571348
C   C28       1.0  0.75160  0.84590  0.17020  1.0000 -0.1724686794
H   H14       1.0  0.78980  0.85650  0.19150  1.0000 0.1015966161
C   C29       1.0  0.72320  0.80150  0.17210  1.0000 0.0196023982
C   C30       1.0  0.66900  0.78600  0.13980  1.0000 -0.1821133206
H   H15       1.0  0.65070  0.75550  0.14040  1.0000 0.1133575253
C   C31       1.0  0.64190  0.81510  0.10700  1.0000 -0.0934081813
H   H16       1.0  0.60530  0.80430  0.08490  1.0000 0.1228571348
C   C32       1.0  0.74440  0.77410  0.21170  1.0000 0.0778922915
O   O9        1.0  0.91930  0.62235  0.04489  1.0000 -0.6086172256
O   O10       1.0  0.84730  0.56640  0.08030  1.0000 -0.5888003744
C   C33       1.0  0.86970  0.60740  0.07380  1.0000 0.6101435479
C   C34       1.0  0.83310  0.64090  0.10570  1.0000 -0.028493138
C   C35       1.0  0.77630  0.62560  0.13690  1.0000 -0.0975781079
H   H17       1.0  0.75690  0.59530  0.13530  1.0000 0.1287394716
C   C36       1.0  0.74840  0.65410  0.17020  1.0000 -0.1724686794
H   H18       1.0  0.71020  0.64350  0.19150  1.0000 0.1015966161
C   C37       1.0  0.77680  0.69850  0.17210  1.0000 0.0196023982
C   C38       1.0  0.83100  0.71400  0.13980  1.0000 -0.1821133206
H   H19       1.0  0.84930  0.74450  0.14040  1.0000 0.1133575253
C   C39       1.0  0.85810  0.68490  0.10700  1.0000 -0.0934081813
H   H20       1.0  0.89470  0.69570  0.08490  1.0000 0.1228571348
C   C40       1.0  0.75560  0.72590  0.21170  1.0000 0.0778922915
O   O11       1.0  0.91930  0.12235  0.54489  1.0000 -0.6086172256
O   O12       1.0  0.84730  0.06640  0.58030  1.0000 -0.5888003744
C   C41       1.0  0.86970  0.10740  0.57380  1.0000 0.6101435479
C   C42       1.0  0.83310  0.14090  0.60570  1.0000 -0.028493138
C   C43       1.0  0.77630  0.12560  0.63690  1.0000 -0.0975781079
H   H21       1.0  0.75690  0.09530  0.63530  1.0000 0.1287394716
C   C44       1.0  0.74840  0.15410  0.67020  1.0000 -0.1724686794
H   H22       1.0  0.71020  0.14350  0.69150  1.0000 0.1015966161
C   C45       1.0  0.77680  0.19850  0.67210  1.0000 0.0196023982
C   C46       1.0  0.83100  0.21400  0.63980  1.0000 -0.1821133206
H   H23       1.0  0.84930  0.24450  0.64040  1.0000 0.1133575253
C   C47       1.0  0.85810  0.18490  0.60700  1.0000 -0.0934081813
H   H24       1.0  0.89470  0.19570  0.58490  1.0000 0.1228571348
C   C48       1.0  0.75560  0.22590  0.71170  1.0000 0.0778922915
O   O13       1.0  0.41930  0.62235  0.54489  1.0000 -0.6086172256
O   O14       1.0  0.34730  0.56640  0.58030  1.0000 -0.5888003744
C   C49       1.0  0.36970  0.60740  0.57380  1.0000 0.6101435479
C   C50       1.0  0.33310  0.64090  0.60570  1.0000 -0.028493138
C   C51       1.0  0.27630  0.62560  0.63690  1.0000 -0.0975781079
H   H25       1.0  0.25690  0.59530  0.63530  1.0000 0.1287394716
C   C52       1.0  0.24840  0.65410  0.67020  1.0000 -0.1724686794
H   H26       1.0  0.21020  0.64350  0.69150  1.0000 0.1015966161
C   C53       1.0  0.27680  0.69850  0.67210  1.0000 0.0196023982
C   C54       1.0  0.33100  0.71400  0.63980  1.0000 -0.1821133206
H   H27       1.0  0.34930  0.74450  0.64040  1.0000 0.1133575253
C   C55       1.0  0.35810  0.68490  0.60700  1.0000 -0.0934081813
H   H28       1.0  0.39470  0.69570  0.58490  1.0000 0.1228571348
C   C56       1.0  0.25560  0.72590  0.71170  1.0000 0.0778922915
O   O15       1.0  0.41930  0.12235  0.04489  1.0000 -0.6086172256
O   O16       1.0  0.34730  0.06640  0.08030  1.0000 -0.5888003744
C   C57       1.0  0.36970  0.10740  0.07380  1.0000 0.6101435479
C   C58       1.0  0.33310  0.14090  0.10570  1.0000 -0.028493138
C   C59       1.0  0.27630  0.12560  0.13690  1.0000 -0.0975781079
H   H29       1.0  0.25690  0.09530  0.13530  1.0000 0.1287394716
C   C60       1.0  0.24840  0.15410  0.17020  1.0000 -0.1724686794
H   H30       1.0  0.21020  0.14350  0.19150  1.0000 0.1015966161
C   C61       1.0  0.27680  0.19850  0.17210  1.0000 0.0196023982
C   C62       1.0  0.33100  0.21400  0.13980  1.0000 -0.1821133206
H   H31       1.0  0.34930  0.24450  0.14040  1.0000 0.1133575253
C   C63       1.0  0.35810  0.18490  0.10700  1.0000 -0.0934081813
H   H32       1.0  0.39470  0.19570  0.08490  1.0000 0.1228571348
C   C64       1.0  0.25560  0.22590  0.21170  1.0000 0.0778922915
O   O17       1.0  0.91930  0.37765  0.95511  1.0000 -0.6086172256
O   O18       1.0  0.84730  0.43360  0.91970  1.0000 -0.5888003744
C   C65       1.0  0.86970  0.39260  0.92620  1.0000 0.6101435479
C   C66       1.0  0.83310  0.35910  0.89430  1.0000 -0.028493138
C   C67       1.0  0.77630  0.37440  0.86310  1.0000 -0.0975781079
H   H33       1.0  0.75690  0.40470  0.86470  1.0000 0.1287394716
C   C68       1.0  0.74840  0.34590  0.82980  1.0000 -0.1724686794
H   H34       1.0  0.71020  0.35650  0.80850  1.0000 0.1015966161
C   C69       1.0  0.77680  0.30150  0.82790  1.0000 0.0196023982
C   C70       1.0  0.83100  0.28600  0.86020  1.0000 -0.1821133206
H   H35       1.0  0.84930  0.25550  0.85960  1.0000 0.1133575253
C   C71       1.0  0.85810  0.31510  0.89300  1.0000 -0.0934081813
H   H36       1.0  0.89470  0.30430  0.91510  1.0000 0.1228571348
C   C72       1.0  0.75560  0.27410  0.78830  1.0000 0.0778922915
O   O19       1.0  0.91930  0.87765  0.45511  1.0000 -0.6086172256
O   O20       1.0  0.84730  0.93360  0.41970  1.0000 -0.5888003744
C   C73       1.0  0.86970  0.89260  0.42620  1.0000 0.6101435479
C   C74       1.0  0.83310  0.85910  0.39430  1.0000 -0.028493138
C   C75       1.0  0.77630  0.87440  0.36310  1.0000 -0.0934081813
H   H37       1.0  0.75690  0.90470  0.36470  1.0000 0.1287394716
C   C76       1.0  0.74840  0.84590  0.32980  1.0000 -0.1724686794
H   H38       1.0  0.71020  0.85650  0.30850  1.0000 0.1015966161
C   C77       1.0  0.77680  0.80150  0.32790  1.0000 0.0196023982
C   C78       1.0  0.83100  0.78600  0.36020  1.0000 -0.1821133206
H   H39       1.0  0.84930  0.75550  0.35960  1.0000 0.1133575253
C   C79       1.0  0.85810  0.81510  0.39300  1.0000 -0.0934081813
H   H40       1.0  0.89470  0.80430  0.41510  1.0000 0.1228571348
C   C80       1.0  0.75560  0.77410  0.28830  1.0000 0.0778922915
O   O21       1.0  0.41930  0.37765  0.45511  1.0000 -0.6086172256
O   O22       1.0  0.34730  0.43360  0.41970  1.0000 -0.5888003744
C   C81       1.0  0.36970  0.39260  0.42620  1.0000 0.6101435479
C   C82       1.0  0.33310  0.35910  0.39430  1.0000 -0.028493138
C   C83       1.0  0.27630  0.37440  0.36310  1.0000 -0.0975781079
H   H41       1.0  0.25690  0.40470  0.36470  1.0000 0.1287394716
C   C84       1.0  0.24840  0.34590  0.32980  1.0000 -0.1724686794
H   H42       1.0  0.21020  0.35650  0.30850  1.0000 0.1015966161
C   C85       1.0  0.27680  0.30150  0.32790  1.0000 0.0196023982
C   C86       1.0  0.33100  0.28600  0.36020  1.0000 -0.1821133206
H   H43       1.0  0.34930  0.25550  0.35960  1.0000 0.1133575253
C   C87       1.0  0.35810  0.31510  0.39300  1.0000 -0.0934081813
H   H44       1.0  0.39470  0.30430  0.41510  1.0000 0.1228571348
C   C88       1.0  0.25560  0.27410  0.28830  1.0000 0.0778922915
O   O23       1.0  0.41930  0.87765  0.95511  1.0000 -0.6086172256
O   O24       1.0  0.34730  0.93360  0.91970  1.0000 -0.5888003744
C   C89       1.0  0.36970  0.89260  0.92620  1.0000 0.6101435479
C   C90       1.0  0.33310  0.85910  0.89430  1.0000 -0.028493138
C   C91       1.0  0.27630  0.87440  0.86310  1.0000 -0.0934081813
H   H45       1.0  0.25690  0.90470  0.86470  1.0000 0.1287394716
C   C92       1.0  0.24840  0.84590  0.82980  1.0000 -0.1724686794
H   H46       1.0  0.21020  0.85650  0.80850  1.0000 0.1015966161
C   C93       1.0  0.27680  0.80150  0.82790  1.0000 0.0196023982
C   C94       1.0  0.33100  0.78600  0.86020  1.0000 -0.1821133206
H   H47       1.0  0.34930  0.75550  0.85960  1.0000 0.1133575253
C   C95       1.0  0.35810  0.81510  0.89300  1.0000 -0.0934081813
H   H48       1.0  0.39470  0.80430  0.91510  1.0000 0.1228571348
C   C96       1.0  0.25560  0.77410  0.78830  1.0000 0.0778922915
O   O25       1.0  0.08070  0.62235  0.95511  1.0000 -0.6086172256
O   O26       1.0  0.15270  0.56640  0.91970  1.0000 -0.6014201157
C   C97       1.0  0.13030  0.60740  0.92620  1.0000 0.6101435479
C   C98       1.0  0.16690  0.64090  0.89430  1.0000 -0.028493138
C   C99       1.0  0.22370  0.62560  0.86310  1.0000 -0.0975781079
H   H49       1.0  0.24310  0.59530  0.86470  1.0000 0.1228571348
C   C100      1.0  0.25160  0.65410  0.82980  1.0000 -0.1724686794
H   H50       1.0  0.28980  0.64350  0.80850  1.0000 0.1015966161
C   C101      1.0  0.22320  0.69850  0.82790  1.0000 0.0196023982
C   C102      1.0  0.16900  0.71400  0.86020  1.0000 -0.1821133206
H   H51       1.0  0.15070  0.74450  0.85960  1.0000 0.1133575253
C   C103      1.0  0.14190  0.68490  0.89300  1.0000 -0.0934081813
H   H52       1.0  0.10530  0.69570  0.91510  1.0000 0.1228571348
C   C104      1.0  0.24440  0.72590  0.78830  1.0000 0.0778922915
O   O27       1.0  0.08070  0.12235  0.45511  1.0000 -0.6086172256
O   O28       1.0  0.15270  0.06640  0.41970  1.0000 -0.6014201157
C   C105      1.0  0.13030  0.10740  0.42620  1.0000 0.6101435479
C   C106      1.0  0.16690  0.14090  0.39430  1.0000 -0.028493138
C   C107      1.0  0.22370  0.12560  0.36310  1.0000 -0.0975781079
H   H53       1.0  0.24310  0.09530  0.36470  1.0000 0.1228571348
C   C108      1.0  0.25160  0.15410  0.32980  1.0000 -0.1724686794
H   H54       1.0  0.28980  0.14350  0.30850  1.0000 0.1015966161
C   C109      1.0  0.22320  0.19850  0.32790  1.0000 0.0196023982
C   C110      1.0  0.16900  0.21400  0.36020  1.0000 -0.1821133206
H   H55       1.0  0.15070  0.24450  0.35960  1.0000 0.1133575253
C   C111      1.0  0.14190  0.18490  0.39300  1.0000 -0.0934081813
H   H56       1.0  0.10530  0.19570  0.41510  1.0000 0.1228571348
C   C112      1.0  0.24440  0.22590  0.28830  1.0000 0.0778922915
O   O29       1.0  0.58070  0.62235  0.45511  1.0000 -0.6086172256
O   O30       1.0  0.65270  0.56640  0.41970  1.0000 -0.6014201157
C   C113      1.0  0.63030  0.60740  0.42620  1.0000 0.6101435479
C   C114      1.0  0.66690  0.64090  0.39430  1.0000 -0.028493138
C   C115      1.0  0.72370  0.62560  0.36310  1.0000 -0.0975781079
H   H57       1.0  0.74310  0.59530  0.36470  1.0000 0.1228571348
C   C116      1.0  0.75160  0.65410  0.32980  1.0000 -0.1724686794
H   H58       1.0  0.78980  0.64350  0.30850  1.0000 0.1015966161
C   C117      1.0  0.72320  0.69850  0.32790  1.0000 0.0196023982
C   C118      1.0  0.66900  0.71400  0.36020  1.0000 -0.1821133206
H   H59       1.0  0.65070  0.74450  0.35960  1.0000 0.1133575253
C   C119      1.0  0.64190  0.68490  0.39300  1.0000 -0.0934081813
H   H60       1.0  0.60530  0.69570  0.41510  1.0000 0.1228571348
C   C120      1.0  0.74440  0.72590  0.28830  1.0000 0.0778922915
O   O31       1.0  0.58070  0.12235  0.95511  1.0000 -0.6086172256
O   O32       1.0  0.65270  0.06640  0.91970  1.0000 -0.6014201157
C   C121      1.0  0.63030  0.10740  0.92620  1.0000 0.6101435479
C   C122      1.0  0.66690  0.14090  0.89430  1.0000 -0.028493138
C   C123      1.0  0.72370  0.12560  0.86310  1.0000 -0.0975781079
H   H61       1.0  0.74310  0.09530  0.86470  1.0000 0.1228571348
C   C124      1.0  0.75160  0.15410  0.82980  1.0000 -0.1724686794
H   H62       1.0  0.78980  0.14350  0.80850  1.0000 0.1015966161
C   C125      1.0  0.72320  0.19850  0.82790  1.0000 0.0196023982
C   C126      1.0  0.66900  0.21400  0.86020  1.0000 -0.1821133206
H   H63       1.0  0.65070  0.24450  0.85960  1.0000 0.1133575253
C   C127      1.0  0.64190  0.18490  0.89300  1.0000 -0.0934081813
H   H64       1.0  0.60530  0.19570  0.91510  1.0000 0.1228571348
C   C128      1.0  0.74440  0.22590  0.78830  1.0000 0.0778922915
O   O33       1.0  0.91930  0.62235  0.95511  1.0000 -0.6086172256
O   O34       1.0  0.84730  0.56640  0.91970  1.0000 -0.5888003744
C   C129      1.0  0.86970  0.60740  0.92620  1.0000 0.6101435479
C   C130      1.0  0.83310  0.64090  0.89430  1.0000 -0.028493138
C   C131      1.0  0.77630  0.62560  0.86310  1.0000 -0.0975781079
H   H65       1.0  0.75690  0.59530  0.86470  1.0000 0.1287394716
C   C132      1.0  0.74840  0.65410  0.82980  1.0000 -0.1724686794
H   H66       1.0  0.71020  0.64350  0.80850  1.0000 0.1015966161
C   C133      1.0  0.77680  0.69850  0.82790  1.0000 0.0196023982
C   C134      1.0  0.83100  0.71400  0.86020  1.0000 -0.1821133206
H   H67       1.0  0.84930  0.74450  0.85960  1.0000 0.1133575253
C   C135      1.0  0.85810  0.68490  0.89300  1.0000 -0.0934081813
H   H68       1.0  0.89470  0.69570  0.91510  1.0000 0.1228571348
C   C136      1.0  0.75560  0.72590  0.78830  1.0000 0.0778922915
O   O35       1.0  0.91930  0.12235  0.45511  1.0000 -0.6086172256
O   O36       1.0  0.84730  0.06640  0.41970  1.0000 -0.5888003744
C   C137      1.0  0.86970  0.10740  0.42620  1.0000 0.6101435479
C   C138      1.0  0.83310  0.14090  0.39430  1.0000 -0.028493138
C   C139      1.0  0.77630  0.12560  0.36310  1.0000 -0.0975781079
H   H69       1.0  0.75690  0.09530  0.36470  1.0000 0.1287394716
C   C140      1.0  0.74840  0.15410  0.32980  1.0000 -0.1724686794
H   H70       1.0  0.71020  0.14350  0.30850  1.0000 0.1015966161
C   C141      1.0  0.77680  0.19850  0.32790  1.0000 0.0196023982
C   C142      1.0  0.83100  0.21400  0.36020  1.0000 -0.1821133206
H   H71       1.0  0.84930  0.24450  0.35960  1.0000 0.1133575253
C   C143      1.0  0.85810  0.18490  0.39300  1.0000 -0.0934081813
H   H72       1.0  0.89470  0.19570  0.41510  1.0000 0.1228571348
C   C144      1.0  0.75560  0.22590  0.28830  1.0000 0.0778922915
O   O37       1.0  0.41930  0.62235  0.45511  1.0000 -0.6086172256
O   O38       1.0  0.34730  0.56640  0.41970  1.0000 -0.5888003744
C   C145      1.0  0.36970  0.60740  0.42620  1.0000 0.6101435479
C   C146      1.0  0.33310  0.64090  0.39430  1.0000 -0.028493138
C   C147      1.0  0.27630  0.62560  0.36310  1.0000 -0.0975781079
H   H73       1.0  0.25690  0.59530  0.36470  1.0000 0.1287394716
C   C148      1.0  0.24840  0.65410  0.32980  1.0000 -0.1724686794
H   H74       1.0  0.21020  0.64350  0.30850  1.0000 0.1015966161
C   C149      1.0  0.27680  0.69850  0.32790  1.0000 0.0196023982
C   C150      1.0  0.33100  0.71400  0.36020  1.0000 -0.1821133206
H   H75       1.0  0.34930  0.74450  0.35960  1.0000 0.1133575253
C   C151      1.0  0.35810  0.68490  0.39300  1.0000 -0.0934081813
H   H76       1.0  0.39470  0.69570  0.41510  1.0000 0.1228571348
C   C152      1.0  0.25560  0.72590  0.28830  1.0000 0.0778922915
O   O39       1.0  0.41930  0.12235  0.95511  1.0000 -0.6086172256
O   O40       1.0  0.34730  0.06640  0.91970  1.0000 -0.5888003744
C   C153      1.0  0.36970  0.10740  0.92620  1.0000 0.6101435479
C   C154      1.0  0.33310  0.14090  0.89430  1.0000 -0.028493138
C   C155      1.0  0.27630  0.12560  0.86310  1.0000 -0.0975781079
H   H77       1.0  0.25690  0.09530  0.86470  1.0000 0.1287394716
C   C156      1.0  0.24840  0.15410  0.82980  1.0000 -0.1724686794
H   H78       1.0  0.21020  0.14350  0.80850  1.0000 0.1015966161
C   C157      1.0  0.27680  0.19850  0.82790  1.0000 0.0196023982
C   C158      1.0  0.33100  0.21400  0.86020  1.0000 -0.1821133206
H   H79       1.0  0.34930  0.24450  0.85960  1.0000 0.1133575253
C   C159      1.0  0.35810  0.18490  0.89300  1.0000 -0.0934081813
H   H80       1.0  0.39470  0.19570  0.91510  1.0000 0.1228571348
C   C160      1.0  0.25560  0.22590  0.78830  1.0000 0.0778922915
O   O41       1.0  0.08070  0.37765  0.95511  1.0000 -0.6086172256
O   O42       1.0  0.15270  0.43360  0.91970  1.0000 -0.6014201157
C   C161      1.0  0.13030  0.39260  0.92620  1.0000 0.6101435479
C   C162      1.0  0.16690  0.35910  0.89430  1.0000 -0.028493138
C   C163      1.0  0.22370  0.37440  0.86310  1.0000 -0.0975781079
H   H81       1.0  0.24310  0.40470  0.86470  1.0000 0.1228571348
C   C164      1.0  0.25160  0.34590  0.82980  1.0000 -0.1724686794
H   H82       1.0  0.28980  0.35650  0.80850  1.0000 0.1015966161
C   C165      1.0  0.22320  0.30150  0.82790  1.0000 0.0196023982
C   C166      1.0  0.16900  0.28600  0.86020  1.0000 -0.1821133206
H   H83       1.0  0.15070  0.25550  0.85960  1.0000 0.1133575253
C   C167      1.0  0.14190  0.31510  0.89300  1.0000 -0.0934081813
H   H84       1.0  0.10530  0.30430  0.91510  1.0000 0.1228571348
C   C168      1.0  0.24440  0.27410  0.78830  1.0000 0.0778922915
O   O43       1.0  0.08070  0.87765  0.45511  1.0000 -0.6086172256
O   O44       1.0  0.15270  0.93360  0.41970  1.0000 -0.6014201157
C   C169      1.0  0.13030  0.89260  0.42620  1.0000 0.6101435479
C   C170      1.0  0.16690  0.85910  0.39430  1.0000 -0.028493138
C   C171      1.0  0.22370  0.87440  0.36310  1.0000 -0.0975781079
H   H85       1.0  0.24310  0.90470  0.36470  1.0000 0.1228571348
C   C172      1.0  0.25160  0.84590  0.32980  1.0000 -0.1724686794
H   H86       1.0  0.28980  0.85650  0.30850  1.0000 0.1015966161
C   C173      1.0  0.22320  0.80150  0.32790  1.0000 0.0196023982
C   C174      1.0  0.16900  0.78600  0.36020  1.0000 -0.1821133206
H   H87       1.0  0.15070  0.75550  0.35960  1.0000 0.1133575253
C   C175      1.0  0.14190  0.81510  0.39300  1.0000 -0.0934081813
H   H88       1.0  0.10530  0.80430  0.41510  1.0000 0.1228571348
C   C176      1.0  0.24440  0.77410  0.28830  1.0000 0.0778922915
O   O45       1.0  0.58070  0.37765  0.45511  1.0000 -0.6086172256
O   O46       1.0  0.65270  0.43360  0.41970  1.0000 -0.6014201157
C   C177      1.0  0.63030  0.39260  0.42620  1.0000 0.6101435479
C   C178      1.0  0.66690  0.35910  0.39430  1.0000 -0.028493138
C   C179      1.0  0.72370  0.37440  0.36310  1.0000 -0.0975781079
H   H89       1.0  0.74310  0.40470  0.36470  1.0000 0.1228571348
C   C180      1.0  0.75160  0.34590  0.32980  1.0000 -0.1724686794
H   H90       1.0  0.78980  0.35650  0.30850  1.0000 0.1015966161
C   C181      1.0  0.72320  0.30150  0.32790  1.0000 0.0196023982
C   C182      1.0  0.66900  0.28600  0.36020  1.0000 -0.1821133206
H   H91       1.0  0.65070  0.25550  0.35960  1.0000 0.1133575253
C   C183      1.0  0.64190  0.31510  0.39300  1.0000 -0.0934081813
H   H92       1.0  0.60530  0.30430  0.41510  1.0000 0.1228571348
C   C184      1.0  0.74440  0.27410  0.28830  1.0000 0.0778922915
O   O47       1.0  0.58070  0.87765  0.95511  1.0000 -0.6086172256
O   O48       1.0  0.65270  0.93360  0.91970  1.0000 -0.6014201157
C   C185      1.0  0.63030  0.89260  0.92620  1.0000 0.6101435479
C   C186      1.0  0.66690  0.85910  0.89430  1.0000 -0.028493138
C   C187      1.0  0.72370  0.87440  0.86310  1.0000 -0.0975781079
H   H93       1.0  0.74310  0.90470  0.86470  1.0000 0.1228571348
C   C188      1.0  0.75160  0.84590  0.82980  1.0000 -0.1724686794
H   H94       1.0  0.78980  0.85650  0.80850  1.0000 0.1015966161
C   C189      1.0  0.72320  0.80150  0.82790  1.0000 0.0196023982
C   C190      1.0  0.66900  0.78600  0.86020  1.0000 -0.1821133206
H   H95       1.0  0.65070  0.75550  0.85960  1.0000 0.1133575253
C   C191      1.0  0.64190  0.81510  0.89300  1.0000 -0.0934081813
H   H96       1.0  0.60530  0.80430  0.91510  1.0000 0.1228571348
C   C192      1.0  0.74440  0.77410  0.78830  1.0000 0.0778922915
O   O49       1.0  0.08070  0.62235  0.04489  1.0000 -0.6086172256
O   O50       1.0  0.15270  0.56640  0.08030  1.0000 -0.6014201157
C   C193      1.0  0.13030  0.60740  0.07380  1.0000 0.6101435479
C   C194      1.0  0.16690  0.64090  0.10570  1.0000 -0.028493138
C   C195      1.0  0.22370  0.62560  0.13690  1.0000 -0.0975781079
H   H97       1.0  0.24310  0.59530  0.13530  1.0000 0.1228571348
C   C196      1.0  0.25160  0.65410  0.17020  1.0000 -0.1724686794
H   H98       1.0  0.28980  0.64350  0.19150  1.0000 0.1015966161
C   C197      1.0  0.22320  0.69850  0.17210  1.0000 0.0196023982
C   C198      1.0  0.16900  0.71400  0.13980  1.0000 -0.1821133206
H   H99       1.0  0.15070  0.74450  0.14040  1.0000 0.1133575253
C   C199      1.0  0.14190  0.68490  0.10700  1.0000 -0.0934081813
H   H100      1.0  0.10530  0.69570  0.08490  1.0000 0.1228571348
C   C200      1.0  0.24440  0.72590  0.21170  1.0000 0.0778922915
O   O51       1.0  0.08070  0.12235  0.54489  1.0000 -0.6086172256
O   O52       1.0  0.15270  0.06640  0.58030  1.0000 -0.6014201157
C   C201      1.0  0.13030  0.10740  0.57380  1.0000 0.6101435479
C   C202      1.0  0.16690  0.14090  0.60570  1.0000 -0.028493138
C   C203      1.0  0.22370  0.12560  0.63690  1.0000 -0.0975781079
H   H101      1.0  0.24310  0.09530  0.63530  1.0000 0.1228571348
C   C204      1.0  0.25160  0.15410  0.67020  1.0000 -0.1724686794
H   H102      1.0  0.28980  0.14350  0.69150  1.0000 0.1015966161
C   C205      1.0  0.22320  0.19850  0.67210  1.0000 0.0196023982
C   C206      1.0  0.16900  0.21400  0.63980  1.0000 -0.1821133206
H   H103      1.0  0.15070  0.24450  0.64040  1.0000 0.1133575253
C   C207      1.0  0.14190  0.18490  0.60700  1.0000 -0.0934081813
H   H104      1.0  0.10530  0.19570  0.58490  1.0000 0.1228571348
C   C208      1.0  0.24440  0.22590  0.71170  1.0000 0.0778922915
O   O53       1.0  0.58070  0.62235  0.54489  1.0000 -0.6086172256
O   O54       1.0  0.65270  0.56640  0.58030  1.0000 -0.6014201157
C   C209      1.0  0.63030  0.60740  0.57380  1.0000 0.6101435479
C   C210      1.0  0.66690  0.64090  0.60570  1.0000 -0.028493138
C   C211      1.0  0.72370  0.62560  0.63690  1.0000 -0.0975781079
H   H105      1.0  0.74310  0.59530  0.63530  1.0000 0.1228571348
C   C212      1.0  0.75160  0.65410  0.67020  1.0000 -0.1724686794
H   H106      1.0  0.78980  0.64350  0.69150  1.0000 0.1015966161
C   C213      1.0  0.72320  0.69850  0.67210  1.0000 0.0196023982
C   C214      1.0  0.66900  0.71400  0.63980  1.0000 -0.1821133206
H   H107      1.0  0.65070  0.74450  0.64040  1.0000 0.1133575253
C   C215      1.0  0.64190  0.68490  0.60700  1.0000 -0.0934081813
H   H108      1.0  0.60530  0.69570  0.58490  1.0000 0.1228571348
C   C216      1.0  0.74440  0.72590  0.71170  1.0000 0.0778922915
O   O55       1.0  0.58070  0.12235  0.04489  1.0000 -0.6086172256
O   O56       1.0  0.65270  0.06640  0.08030  1.0000 -0.6014201157
C   C217      1.0  0.63030  0.10740  0.07380  1.0000 0.6101435479
C   C218      1.0  0.66690  0.14090  0.10570  1.0000 -0.028493138
C   C219      1.0  0.72370  0.12560  0.13690  1.0000 -0.0975781079
H   H109      1.0  0.74310  0.09530  0.13530  1.0000 0.1228571348
C   C220      1.0  0.75160  0.15410  0.17020  1.0000 -0.1724686794
H   H110      1.0  0.78980  0.14350  0.19150  1.0000 0.1015966161
C   C221      1.0  0.72320  0.19850  0.17210  1.0000 0.0196023982
C   C222      1.0  0.66900  0.21400  0.13980  1.0000 -0.1821133206
H   H111      1.0  0.65070  0.24450  0.14040  1.0000 0.1133575253
C   C223      1.0  0.64190  0.18490  0.10700  1.0000 -0.0934081813
H   H112      1.0  0.60530  0.19570  0.08490  1.0000 0.1228571348
C   C224      1.0  0.74440  0.22590  0.21170  1.0000 0.0778922915
O   O57       1.0  0.91930  0.37765  0.04489  1.0000 -0.6086172256
O   O58       1.0  0.84730  0.43360  0.08030  1.0000 -0.5888003744
C   C225      1.0  0.86970  0.39260  0.07380  1.0000 0.6101435479
C   C226      1.0  0.83310  0.35910  0.10570  1.0000 -0.028493138
C   C227      1.0  0.77630  0.37440  0.13690  1.0000 -0.0975781079
H   H113      1.0  0.75690  0.40470  0.13530  1.0000 0.1287394716
C   C228      1.0  0.74840  0.34590  0.17020  1.0000 -0.1724686794
H   H114      1.0  0.71020  0.35650  0.19150  1.0000 0.1015966161
C   C229      1.0  0.77680  0.30150  0.17210  1.0000 0.0196023982
C   C230      1.0  0.83100  0.28600  0.13980  1.0000 -0.1821133206
H   H115      1.0  0.84930  0.25550  0.14040  1.0000 0.1133575253
C   C231      1.0  0.85810  0.31510  0.10700  1.0000 -0.0934081813
H   H116      1.0  0.89470  0.30430  0.08490  1.0000 0.1228571348
C   C232      1.0  0.75560  0.27410  0.21170  1.0000 0.0778922915
O   O59       1.0  0.91930  0.87765  0.54489  1.0000 -0.6086172256
O   O60       1.0  0.84730  0.93360  0.58030  1.0000 -0.5888003744
C   C233      1.0  0.86970  0.89260  0.57380  1.0000 0.6101435479
C   C234      1.0  0.83310  0.85910  0.60570  1.0000 -0.028493138
C   C235      1.0  0.77630  0.87440  0.63690  1.0000 -0.0934081813
H   H117      1.0  0.75690  0.90470  0.63530  1.0000 0.1287394716
C   C236      1.0  0.74840  0.84590  0.67020  1.0000 -0.1724686794
H   H118      1.0  0.71020  0.85650  0.69150  1.0000 0.1015966161
C   C237      1.0  0.77680  0.80150  0.67210  1.0000 0.0196023982
C   C238      1.0  0.83100  0.78600  0.63980  1.0000 -0.1821133206
H   H119      1.0  0.84930  0.75550  0.64040  1.0000 0.1133575253
C   C239      1.0  0.85810  0.81510  0.60700  1.0000 -0.0934081813
H   H120      1.0  0.89470  0.80430  0.58490  1.0000 0.1228571348
C   C240      1.0  0.75560  0.77410  0.71170  1.0000 0.0778922915
O   O61       1.0  0.41930  0.37765  0.54489  1.0000 -0.6086172256
O   O62       1.0  0.34730  0.43360  0.58030  1.0000 -0.5888003744
C   C241      1.0  0.36970  0.39260  0.57380  1.0000 0.6101435479
C   C242      1.0  0.33310  0.35910  0.60570  1.0000 -0.028493138
C   C243      1.0  0.27630  0.37440  0.63690  1.0000 -0.0975781079
H   H121      1.0  0.25690  0.40470  0.63530  1.0000 0.1287394716
C   C244      1.0  0.24840  0.34590  0.67020  1.0000 -0.1724686794
H   H122      1.0  0.21020  0.35650  0.69150  1.0000 0.1015966161
C   C245      1.0  0.27680  0.30150  0.67210  1.0000 0.0196023982
C   C246      1.0  0.33100  0.28600  0.63980  1.0000 -0.1821133206
H   H123      1.0  0.34930  0.25550  0.64040  1.0000 0.1133575253
C   C247      1.0  0.35810  0.31510  0.60700  1.0000 -0.0934081813
H   H124      1.0  0.39470  0.30430  0.58490  1.0000 0.1228571348
C   C248      1.0  0.25560  0.27410  0.71170  1.0000 0.0778922915
O   O63       1.0  0.41930  0.87765  0.04489  1.0000 -0.6086172256
O   O64       1.0  0.34730  0.93360  0.08030  1.0000 -0.5888003744
C   C249      1.0  0.36970  0.89260  0.07380  1.0000 0.6101435479
C   C250      1.0  0.33310  0.85910  0.10570  1.0000 -0.028493138
C   C251      1.0  0.27630  0.87440  0.13690  1.0000 -0.0934081813
H   H125      1.0  0.25690  0.90470  0.13530  1.0000 0.1287394716
C   C252      1.0  0.24840  0.84590  0.17020  1.0000 -0.1724686794
H   H126      1.0  0.21020  0.85650  0.19150  1.0000 0.1015966161
C   C253      1.0  0.27680  0.80150  0.17210  1.0000 0.0196023982
C   C254      1.0  0.33100  0.78600  0.13980  1.0000 -0.1821133206
H   H127      1.0  0.34930  0.75550  0.14040  1.0000 0.1133575253
C   C255      1.0  0.35810  0.81510  0.10700  1.0000 -0.0934081813
H   H128      1.0  0.39470  0.80430  0.08490  1.0000 0.1228571348
C   C256      1.0  0.25560  0.77410  0.21170  1.0000 0.0778922915
Zr  Zr1       1.0  0.00000  0.41604  0.00000  1.0000 2.3575050942
Zr  Zr2       1.0  0.00000  0.91604  0.50000  1.0000 2.3575050942
Zr  Zr3       1.0  0.50000  0.41604  0.50000  1.0000 2.3575050942
Zr  Zr4       1.0  0.50000  0.91604  0.00000  1.0000 2.3575050942
Zr  Zr5       1.0  0.00000  0.58396  0.00000  1.0000 2.3575050942
Zr  Zr6       1.0  0.00000  0.08396  0.50000  1.0000 2.3575050942
Zr  Zr7       1.0  0.50000  0.58396  0.50000  1.0000 2.3575050942
Zr  Zr8       1.0  0.50000  0.08396  0.00000  1.0000 2.3575050942
Zr  Zr9       1.0  0.10624  0.50000  0.05810  1.0000 2.1916033737
O   O65       1.0  0.24710  0.50000  0.07430  1.0000 -0.209412802
O   O66       1.0  0.77480  0.50000  0.96120  1.0000 -0.0975781079
C   C257      1.0  0.28230  0.50000  0.03810  1.0000 0.2293908
C   C258      1.0  0.37350  0.50000  0.03960  1.0000 -0.1087324623
H   H129      1.0  0.38750  0.50000  0.97210  1.0000 0.0935308496
C   C259      1.0  0.53790  0.50000  0.03970  1.0000 -0.0409584827
H   H130      1.0  0.52970  0.50000  0.10760  1.0000 0.0493274818
C   C260      1.0  0.41570  0.50000  0.07910  1.0000 -0.1087324623
H   H131      1.0  0.38640  0.50000  0.10680  1.0000 0.0714503452
C   C261      1.0  0.62100  0.50000  0.04120  1.0000 -0.1087324623
H   H132      1.0  0.65170  0.50000  0.06840  1.0000 0.0778922915
C   C262      1.0  0.53530  0.50000  0.95880  1.0000 -0.028493138
C   C263      1.0  0.37900  0.50000  0.95880  1.0000 -0.1261798155
H   H133      1.0  0.34830  0.50000  0.93160  1.0000 0.0778922915
Zr  Zr10      1.0  0.10624  0.00000  0.55810  1.0000 2.1916033737
O   O67       1.0  0.24710  0.00000  0.57430  1.0000 -0.209412802
O   O68       1.0  0.77480  0.00000  0.46120  1.0000 -0.0975781079
C   C264      1.0  0.28230  0.00000  0.53810  1.0000 0.2293908
C   C265      1.0  0.37350  0.00000  0.53960  1.0000 -0.1087324623
H   H134      1.0  0.38750  0.00000  0.47210  1.0000 0.1015966161
C   C266      1.0  0.53790  0.00000  0.53970  1.0000 -0.0409584827
H   H135      1.0  0.52970  0.00000  0.60760  1.0000 0.0493274818
C   C267      1.0  0.41570  0.00000  0.57910  1.0000 -0.1087324623
H   H136      1.0  0.38640  0.00000  0.60680  1.0000 0.0714503452
C   C268      1.0  0.62100  0.00000  0.54120  1.0000 -0.1087324623
H   H137      1.0  0.65170  0.00000  0.56840  1.0000 0.0778922915
C   C269      1.0  0.53530  0.00000  0.45880  1.0000 -0.028493138
C   C270      1.0  0.37900  0.00000  0.45880  1.0000 -0.1261798155
H   H138      1.0  0.34830  0.00000  0.43160  1.0000 0.0778922915
Zr  Zr11      1.0  0.60624  0.50000  0.55810  1.0000 2.1916033737
O   O69       1.0  0.74710  0.50000  0.57430  1.0000 -0.209412802
O   O70       1.0  0.27480  0.50000  0.46120  1.0000 -0.0975781079
C   C271      1.0  0.78230  0.50000  0.53810  1.0000 0.2293908
C   C272      1.0  0.87350  0.50000  0.53960  1.0000 -0.1087324623
H   H139      1.0  0.88750  0.50000  0.47210  1.0000 0.0935308496
C   C273      1.0  0.03790  0.50000  0.53970  1.0000 -0.0409584827
H   H140      1.0  0.02970  0.50000  0.60760  1.0000 0.0493274818
C   C274      1.0  0.91570  0.50000  0.57910  1.0000 -0.1087324623
H   H141      1.0  0.88640  0.50000  0.60680  1.0000 0.0714503452
C   C275      1.0  0.12100  0.50000  0.54120  1.0000 -0.1087324623
H   H142      1.0  0.15170  0.50000  0.56840  1.0000 0.0778922915
C   C276      1.0  0.03530  0.50000  0.45880  1.0000 -0.028493138
C   C277      1.0  0.87900  0.50000  0.45880  1.0000 -0.1246730871
H   H143      1.0  0.84830  0.50000  0.43160  1.0000 0.0778922915
Zr  Zr12      1.0  0.60624  0.00000  0.05810  1.0000 2.1916033737
O   O71       1.0  0.74710  0.00000  0.07430  1.0000 -0.209412802
O   O72       1.0  0.27480  0.00000  0.96120  1.0000 -0.0975781079
C   C278      1.0  0.78230  0.00000  0.03810  1.0000 0.2293908
C   C279      1.0  0.87350  0.00000  0.03960  1.0000 -0.1087324623
H   H144      1.0  0.88750  0.00000  0.97210  1.0000 0.1015966161
C   C280      1.0  0.03790  0.00000  0.03970  1.0000 -0.0409584827
H   H145      1.0  0.02970  0.00000  0.10760  1.0000 0.0493274818
C   C281      1.0  0.91570  0.00000  0.07910  1.0000 -0.1087324623
H   H146      1.0  0.88640  0.00000  0.10680  1.0000 0.0714503452
C   C282      1.0  0.12100  0.00000  0.04120  1.0000 -0.1087324623
H   H147      1.0  0.15170  0.00000  0.06840  1.0000 0.0778922915
C   C283      1.0  0.03530  0.00000  0.95880  1.0000 -0.028493138
C   C284      1.0  0.87900  0.00000  0.95880  1.0000 -0.1261798155
H   H148      1.0  0.84830  0.00000  0.93160  1.0000 0.0778922915
Zr  Zr13      1.0  0.89376  0.50000  0.05810  1.0000 2.1916033737
O   O73       1.0  0.75290  0.50000  0.07430  1.0000 -0.1724686794
O   O74       1.0  0.22520  0.50000  0.96120  1.0000 -0.028493138
C   C285      1.0  0.71770  0.50000  0.03810  1.0000 0.2004907802
C   C286      1.0  0.62650  0.50000  0.03960  1.0000 -0.0934081813
H   H149      1.0  0.61250  0.50000  0.97210  1.0000 0.0935308496
C   C287      1.0  0.46210  0.50000  0.03970  1.0000 -0.028493138
H   H150      1.0  0.47030  0.50000  0.10760  1.0000 0.0493274818
C   C288      1.0  0.58430  0.50000  0.07910  1.0000 -0.1087324623
H   H151      1.0  0.61360  0.50000  0.10680  1.0000 0.0714503452
C   C289      1.0  0.37900  0.50000  0.04120  1.0000 -0.1261798155
H   H152      1.0  0.34830  0.50000  0.06840  1.0000 0.0778922915
C   C290      1.0  0.46470  0.50000  0.95880  1.0000 -0.022135043
C   C291      1.0  0.62100  0.50000  0.95880  1.0000 -0.1087324623
H   H153      1.0  0.65170  0.50000  0.93160  1.0000 0.0778922915
Zr  Zr14      1.0  0.89376  0.00000  0.55810  1.0000 2.2006185167
O   O75       1.0  0.75290  0.00000  0.57430  1.0000 -0.1724686794
O   O76       1.0  0.22520  0.00000  0.46120  1.0000 -0.022135043
C   C292      1.0  0.71770  0.00000  0.53810  1.0000 0.2004907802
C   C293      1.0  0.62650  0.00000  0.53960  1.0000 -0.0934081813
H   H154      1.0  0.61250  0.00000  0.47210  1.0000 0.1015966161
C   C294      1.0  0.46210  0.00000  0.53970  1.0000 -0.028493138
H   H155      1.0  0.47030  0.00000  0.60760  1.0000 0.0493274818
C   C295      1.0  0.58430  0.00000  0.57910  1.0000 -0.1087324623
H   H156      1.0  0.61360  0.00000  0.60680  1.0000 0.0714503452
C   C296      1.0  0.37900  0.00000  0.54120  1.0000 -0.1261798155
H   H157      1.0  0.34830  0.00000  0.56840  1.0000 0.0778922915
C   C297      1.0  0.46470  0.00000  0.45880  1.0000 -0.022135043
C   C298      1.0  0.62100  0.00000  0.45880  1.0000 -0.1087324623
H   H158      1.0  0.65170  0.00000  0.43160  1.0000 0.0778922915
Zr  Zr15      1.0  0.39376  0.50000  0.55810  1.0000 2.1916033737
O   O77       1.0  0.25290  0.50000  0.57430  1.0000 -0.1724686794
O   O78       1.0  0.72520  0.50000  0.46120  1.0000 -0.028493138
C   C299      1.0  0.21770  0.50000  0.53810  1.0000 0.2004907802
C   C300      1.0  0.12650  0.50000  0.53960  1.0000 -0.0934081813
H   H159      1.0  0.11250  0.50000  0.47210  1.0000 0.0935308496
C   C301      1.0  0.96210  0.50000  0.53970  1.0000 -0.028493138
H   H160      1.0  0.97030  0.50000  0.60760  1.0000 0.0493274818
C   C302      1.0  0.08430  0.50000  0.57910  1.0000 -0.1087324623
H   H161      1.0  0.11360  0.50000  0.60680  1.0000 0.0714503452
C   C303      1.0  0.87900  0.50000  0.54120  1.0000 -0.1246730871
H   H162      1.0  0.84830  0.50000  0.56840  1.0000 0.0778922915
C   C304      1.0  0.96470  0.50000  0.45880  1.0000 -0.022135043
C   C305      1.0  0.12100  0.50000  0.45880  1.0000 -0.1087324623
H   H163      1.0  0.15170  0.50000  0.43160  1.0000 0.0778922915
Zr  Zr16      1.0  0.39376  0.00000  0.05810  1.0000 2.2006185167
O   O79       1.0  0.25290  0.00000  0.07430  1.0000 -0.1724686794
O   O80       1.0  0.72520  0.00000  0.96120  1.0000 -0.028493138
C   C306      1.0  0.21770  0.00000  0.03810  1.0000 0.2004907802
C   C307      1.0  0.12650  0.00000  0.03960  1.0000 -0.0934081813
H   H164      1.0  0.11250  0.00000  0.97210  1.0000 0.1015966161
C   C308      1.0  0.96210  0.00000  0.03970  1.0000 -0.028493138
H   H165      1.0  0.97030  0.00000  0.10760  1.0000 0.0493274818
C   C309      1.0  0.08430  0.00000  0.07910  1.0000 -0.1087324623
H   H166      1.0  0.11360  0.00000  0.10680  1.0000 0.0714503452
C   C310      1.0  0.87900  0.00000  0.04120  1.0000 -0.1261798155
H   H167      1.0  0.84830  0.00000  0.06840  1.0000 0.0778922915
C   C311      1.0  0.96470  0.00000  0.95880  1.0000 -0.022135043
C   C312      1.0  0.12100  0.00000  0.95880  1.0000 -0.1087324623
H   H168      1.0  0.15170  0.00000  0.93160  1.0000 0.0778922915
Zr  Zr17      1.0  0.89376  0.50000  0.94190  1.0000 2.1916033737
O   O81       1.0  0.75290  0.50000  0.92570  1.0000 -0.1724686794
O   O82       1.0  0.22520  0.50000  0.03880  1.0000 -0.028493138
C   C313      1.0  0.71770  0.50000  0.96190  1.0000 0.2004907802
C   C314      1.0  0.62650  0.50000  0.96040  1.0000 -0.0934081813
H   H169      1.0  0.61250  0.50000  0.02790  1.0000 0.0935308496
C   C315      1.0  0.46210  0.50000  0.96030  1.0000 -0.028493138
H   H170      1.0  0.47030  0.50000  0.89240  1.0000 0.0493274818
C   C316      1.0  0.58430  0.50000  0.92090  1.0000 -0.1087324623
H   H171      1.0  0.61360  0.50000  0.89320  1.0000 0.0714503452
C   C317      1.0  0.46470  0.50000  0.04120  1.0000 -0.022135043
Zr  Zr18      1.0  0.89376  0.00000  0.44190  1.0000 2.2006185167
O   O83       1.0  0.75290  0.00000  0.42570  1.0000 -0.1724686794
O   O84       1.0  0.22520  0.00000  0.53880  1.0000 -0.022135043
C   C318      1.0  0.71770  0.00000  0.46190  1.0000 0.2004907802
C   C319      1.0  0.62650  0.00000  0.46040  1.0000 -0.0934081813
H   H172      1.0  0.61250  0.00000  0.52790  1.0000 0.0935308496
C   C320      1.0  0.46210  0.00000  0.46030  1.0000 -0.028493138
H   H173      1.0  0.47030  0.00000  0.39240  1.0000 0.0493274818
C   C321      1.0  0.58430  0.00000  0.42090  1.0000 -0.1087324623
H   H174      1.0  0.61360  0.00000  0.39320  1.0000 0.0714503452
C   C322      1.0  0.46470  0.00000  0.54120  1.0000 -0.022135043
Zr  Zr19      1.0  0.39376  0.50000  0.44190  1.0000 2.1916033737
O   O85       1.0  0.25290  0.50000  0.42570  1.0000 -0.1724686794
O   O86       1.0  0.72520  0.50000  0.53880  1.0000 -0.028493138
C   C323      1.0  0.21770  0.50000  0.46190  1.0000 0.2004907802
C   C324      1.0  0.12650  0.50000  0.46040  1.0000 -0.0934081813
H   H175      1.0  0.11250  0.50000  0.52790  1.0000 0.0935308496
C   C325      1.0  0.96210  0.50000  0.46030  1.0000 -0.028493138
H   H176      1.0  0.97030  0.50000  0.39240  1.0000 0.0493274818
C   C326      1.0  0.08430  0.50000  0.42090  1.0000 -0.1087324623
H   H177      1.0  0.11360  0.50000  0.39320  1.0000 0.0714503452
C   C327      1.0  0.96470  0.50000  0.54120  1.0000 -0.022135043
Zr  Zr20      1.0  0.39376  0.00000  0.94190  1.0000 2.2006185167
O   O87       1.0  0.25290  0.00000  0.92570  1.0000 -0.1724686794
O   O88       1.0  0.72520  0.00000  0.03880  1.0000 -0.022135043
C   C328      1.0  0.21770  0.00000  0.96190  1.0000 0.2004907802
C   C329      1.0  0.12650  0.00000  0.96040  1.0000 -0.0934081813
H   H178      1.0  0.11250  0.00000  0.02790  1.0000 0.0935308496
C   C330      1.0  0.96210  0.00000  0.96030  1.0000 -0.028493138
H   H179      1.0  0.97030  0.00000  0.89240  1.0000 0.0493274818
C   C331      1.0  0.08430  0.00000  0.92090  1.0000 -0.1087324623
H   H180      1.0  0.11360  0.00000  0.89320  1.0000 0.0714503452
C   C332      1.0  0.96470  0.00000  0.04120  1.0000 -0.028493138
Zr  Zr21      1.0  0.10624  0.50000  0.94190  1.0000 2.1916033737
O   O89       1.0  0.24710  0.50000  0.92570  1.0000 -0.209412802
O   O90       1.0  0.77480  0.50000  0.03880  1.0000 -0.0975781079
C   C333      1.0  0.28230  0.50000  0.96190  1.0000 0.2293908
C   C334      1.0  0.37350  0.50000  0.96040  1.0000 -0.1087324623
H   H181      1.0  0.38750  0.50000  0.02790  1.0000 0.0935308496
C   C335      1.0  0.53790  0.50000  0.96030  1.0000 -0.0409584827
H   H182      1.0  0.52970  0.50000  0.89240  1.0000 0.0493274818
C   C336      1.0  0.41570  0.50000  0.92090  1.0000 -0.1087324623
H   H183      1.0  0.38640  0.50000  0.89320  1.0000 0.0714503452
C   C337      1.0  0.53530  0.50000  0.04120  1.0000 -0.028493138
Zr  Zr22      1.0  0.10624  0.00000  0.44190  1.0000 2.1916033737
O   O91       1.0  0.24710  0.00000  0.42570  1.0000 -0.209412802
O   O92       1.0  0.77480  0.00000  0.53880  1.0000 -0.0975781079
C   C338      1.0  0.28230  0.00000  0.46190  1.0000 0.2293908
C   C339      1.0  0.37350  0.00000  0.46040  1.0000 -0.1087324623
H   H184      1.0  0.38750  0.00000  0.52790  1.0000 0.0935308496
C   C340      1.0  0.53790  0.00000  0.46030  1.0000 -0.0409584827
H   H185      1.0  0.52970  0.00000  0.39240  1.0000 0.0493274818
C   C341      1.0  0.41570  0.00000  0.42090  1.0000 -0.1087324623
H   H186      1.0  0.38640  0.00000  0.39320  1.0000 0.0714503452
C   C342      1.0  0.53530  0.00000  0.54120  1.0000 -0.028493138
Zr  Zr23      1.0  0.60624  0.50000  0.44190  1.0000 2.1916033737
O   O93       1.0  0.74710  0.50000  0.42570  1.0000 -0.209412802
O   O94       1.0  0.27480  0.50000  0.53880  1.0000 -0.0975781079
C   C343      1.0  0.78230  0.50000  0.46190  1.0000 0.2293908
C   C344      1.0  0.87350  0.50000  0.46040  1.0000 -0.1087324623
H   H187      1.0  0.88750  0.50000  0.52790  1.0000 0.0935308496
C   C345      1.0  0.03790  0.50000  0.46030  1.0000 -0.0409584827
H   H188      1.0  0.02970  0.50000  0.39240  1.0000 0.0493274818
C   C346      1.0  0.91570  0.50000  0.42090  1.0000 -0.1087324623
H   H189      1.0  0.88640  0.50000  0.39320  1.0000 0.0714503452
C   C347      1.0  0.03530  0.50000  0.54120  1.0000 -0.028493138
Zr  Zr24      1.0  0.60624  0.00000  0.94190  1.0000 2.1916033737
O   O95       1.0  0.74710  0.00000  0.92570  1.0000 -0.209412802
O   O96       1.0  0.27480  0.00000  0.03880  1.0000 -0.0975781079
C   C348      1.0  0.78230  0.00000  0.96190  1.0000 0.2293908
C   C349      1.0  0.87350  0.00000  0.96040  1.0000 -0.1087324623
H   H190      1.0  0.88750  0.00000  0.02790  1.0000 0.1015966161
C   C350      1.0  0.03790  0.00000  0.96030  1.0000 -0.0409584827
H   H191      1.0  0.02970  0.00000  0.89240  1.0000 0.0493274818
C   C351      1.0  0.91570  0.00000  0.92090  1.0000 -0.1087324623
H   H192      1.0  0.88640  0.00000  0.89320  1.0000 0.0714503452
C   C352      1.0  0.03530  0.00000  0.04120  1.0000 -0.028493138
N   N1        1.0  0.25000  0.29630  0.25000  1.0000 -0.2570528453
H   H193      1.0  0.25000  0.32610  0.25000  1.0000 0.259523686
N   N2        1.0  0.25000  0.79630  0.75000  1.0000 -0.2570528453
H   H194      1.0  0.25000  0.82610  0.75000  1.0000 0.259523686
N   N3        1.0  0.75000  0.70370  0.25000  1.0000 -0.2570528453
H   H195      1.0  0.75000  0.67390  0.25000  1.0000 0.259523686
N   N4        1.0  0.75000  0.20370  0.75000  1.0000 -0.2570528453
H   H196      1.0  0.75000  0.17390  0.75000  1.0000 0.259523686
N   N5        1.0  0.25000  0.20370  0.25000  1.0000 -0.2570528453
H   H197      1.0  0.25000  0.17390  0.25000  1.0000 0.259523686
N   N6        1.0  0.75000  0.29630  0.75000  1.0000 -0.2570528453
H   H198      1.0  0.75000  0.32610  0.75000  1.0000 0.259523686
N   N7        1.0  0.75000  0.79630  0.25000  1.0000 -0.2570528453
H   H199      1.0  0.75000  0.82610  0.25000  1.0000 0.259523686
N   N8        1.0  0.25000  0.70370  0.75000  1.0000 -0.2570528453
H   H200      1.0  0.25000  0.67390  0.75000  1.0000 0.259523686
N   N9        1.0  0.75000  0.70370  0.75000  1.0000 -0.2570528453
H   H201      1.0  0.75000  0.67390  0.75000  1.0000 0.259523686
N   N10       1.0  0.75000  0.20370  0.25000  1.0000 -0.2570528453
H   H202      1.0  0.75000  0.17390  0.25000  1.0000 0.259523686
N   N11       1.0  0.25000  0.70370  0.25000  1.0000 -0.2570528453
H   H203      1.0  0.25000  0.67390  0.25000  1.0000 0.259523686
N   N12       1.0  0.25000  0.29630  0.75000  1.0000 -0.2570528453
H   H204      1.0  0.25000  0.32610  0.75000  1.0000 0.259523686
N   N13       1.0  0.25000  0.79630  0.25000  1.0000 -0.2570528453
H   H205      1.0  0.25000  0.82610  0.25000  1.0000 0.259523686
N   N14       1.0  0.25000  0.20370  0.75000  1.0000 -0.2570528453
H   H206      1.0  0.25000  0.17390  0.75000  1.0000 0.259523686
N   N15       1.0  0.75000  0.29630  0.25000  1.0000 -0.2570528453
H   H207      1.0  0.75000  0.32610  0.25000  1.0000 0.259523686
N   N16       1.0  0.75000  0.79630  0.75000  1.0000 -0.2570528453
H   H208      1.0  0.75000  0.82610  0.75000  1.0000 0.259523686
C   C353      1.0  0.25290  0.50000  0.00000  1.0000 -0.0587464031
C   C354      1.0  0.41620  0.50000  0.00000  1.0000 0.038528872
C   C355      1.0  0.65510  0.50000  0.00000  1.0000 -0.028493138
O   O97       1.0  0.74650  0.50000  0.00000  1.0000 -0.1087324623
C   C356      1.0  0.25290  0.00000  0.50000  1.0000 -0.0587464031
C   C357      1.0  0.41620  0.00000  0.50000  1.0000 0.038528872
C   C358      1.0  0.65510  0.00000  0.50000  1.0000 -0.028493138
O   O98       1.0  0.74650  0.00000  0.50000  1.0000 -0.1087324623
C   C359      1.0  0.75290  0.50000  0.50000  1.0000 -0.0587464031
C   C360      1.0  0.91620  0.50000  0.50000  1.0000 0.038528872
C   C361      1.0  0.15510  0.50000  0.50000  1.0000 -0.028493138
O   O99       1.0  0.24650  0.50000  0.50000  1.0000 -0.1087324623
C   C362      1.0  0.75290  0.00000  0.00000  1.0000 -0.0587464031
C   C363      1.0  0.91620  0.00000  0.00000  1.0000 0.038528872
C   C364      1.0  0.15510  0.00000  0.00000  1.0000 -0.028493138
O   O100      1.0  0.24650  0.00000  0.00000  1.0000 -0.1087324623
C   C365      1.0  0.58380  0.50000  0.00000  1.0000 0.0339620318
C   C366      1.0  0.34490  0.50000  0.00000  1.0000 -0.022135043
C   C367      1.0  0.58380  0.00000  0.50000  1.0000 0.038528872
C   C368      1.0  0.34490  0.00000  0.50000  1.0000 -0.022135043
C   C369      1.0  0.08380  0.50000  0.50000  1.0000 0.0339620318
C   C370      1.0  0.84490  0.50000  0.50000  1.0000 -0.022135043
C   C371      1.0  0.08380  0.00000  0.00000  1.0000 0.038528872
C   C372      1.0  0.84490  0.00000  0.00000  1.0000 -0.022135043
O   O101      1.0  0.10110  0.45900  0.00000  1.0000 -0.980883155
O   O102      1.0  0.10110  0.95900  0.50000  1.0000 -0.980883155
O   O103      1.0  0.60110  0.45900  0.50000  1.0000 -0.980883155
O   O104      1.0  0.60110  0.95900  0.00000  1.0000 -0.980883155
O   O105      1.0  0.89890  0.54100  0.00000  1.0000 -0.9663254507
O   O106      1.0  0.89890  0.04100  0.50000  1.0000 -0.9663254507
O   O107      1.0  0.39890  0.54100  0.50000  1.0000 -0.9663254507
O   O108      1.0  0.39890  0.04100  0.00000  1.0000 -0.9645510949
O   O109      1.0  0.89890  0.45900  0.00000  1.0000 -0.9645510949
O   O110      1.0  0.89890  0.95900  0.50000  1.0000 -0.9645510949
O   O111      1.0  0.39890  0.45900  0.50000  1.0000 -0.9663254507
O   O112      1.0  0.39890  0.95900  0.00000  1.0000 -0.9645510949
O   O113      1.0  0.10110  0.54100  0.00000  1.0000 -0.980883155
O   O114      1.0  0.10110  0.04100  0.50000  1.0000 -0.980883155
O   O115      1.0  0.60110  0.54100  0.50000  1.0000 -0.980883155
O   O116      1.0  0.60110  0.04100  0.00000  1.0000 -0.980883155
O   O117      1.0  0.00000  0.45840  0.05950  1.0000 -1.0481971763
O   O118      1.0  0.00000  0.95840  0.55950  1.0000 -1.0481971763
O   O119      1.0  0.50000  0.45840  0.55950  1.0000 -1.0481971763
O   O120      1.0  0.50000  0.95840  0.05950  1.0000 -1.0481971763
O   O121      1.0  0.00000  0.54160  0.05950  1.0000 -1.0481971763
O   O122      1.0  0.00000  0.04160  0.55950  1.0000 -1.0481971763
O   O123      1.0  0.50000  0.54160  0.55950  1.0000 -1.0481971763
O   O124      1.0  0.50000  0.04160  0.05950  1.0000 -1.0481971763
O   O125      1.0  0.00000  0.45840  0.94050  1.0000 -1.0481971763
O   O126      1.0  0.00000  0.95840  0.44050  1.0000 -1.0481971763
O   O127      1.0  0.50000  0.45840  0.44050  1.0000 -1.0481971763
O   O128      1.0  0.50000  0.95840  0.94050  1.0000 -1.0481971763
O   O129      1.0  0.00000  0.54160  0.94050  1.0000 -1.0481971763
O   O130      1.0  0.00000  0.04160  0.44050  1.0000 -1.0481971763
O   O131      1.0  0.50000  0.54160  0.44050  1.0000 -1.0481971763
O   O132      1.0  0.50000  0.04160  0.94050  1.0000 -1.0481971763
C   C373      1.0  0.50000  0.50000  0.00000  1.0000 -0.0073516456
C   C374      1.0  0.50000  0.00000  0.50000  1.0000 -0.0046980008
C   C375      1.0  0.00000  0.50000  0.50000  1.0000 -0.0073516456
C   C376      1.0  0.00000  0.00000  0.00000  1.0000 -0.0046980008
C   C377      1.0  0.50000  0.50000  0.08000  1.0000 -0.0409584827
H   H209      1.0  0.50000  0.50000  0.93160  1.0000 0.0935308496
C   C378      1.0  0.50000  0.00000  0.58000  1.0000 -0.0409584827
H   H210      1.0  0.50000  0.00000  0.43160  1.0000 0.0935308496
C   C379      1.0  0.00000  0.50000  0.58000  1.0000 -0.0409584827
H   H211      1.0  0.00000  0.50000  0.43160  1.0000 0.0935308496
C   C380      1.0  0.00000  0.00000  0.08000  1.0000 -0.0409584827
H   H212      1.0  0.00000  0.00000  0.93160  1.0000 0.0935308496
C   C381      1.0  0.50000  0.50000  0.92000  1.0000 -0.0409584827
H   H213      1.0  0.50000  0.50000  0.06840  1.0000 0.0935308496
C   C382      1.0  0.50000  0.00000  0.42000  1.0000 -0.0409584827
H   H214      1.0  0.50000  0.00000  0.56840  1.0000 0.0935308496
C   C383      1.0  0.00000  0.50000  0.42000  1.0000 -0.0409584827
H   H215      1.0  0.00000  0.50000  0.56840  1.0000 0.0935308496
C   C384      1.0  0.00000  0.00000  0.92000  1.0000 -0.0409584827
H   H216      1.0  0.00000  0.00000  0.06840  1.0000 0.0935308496
  O   O133      1.0  0.25290  0.50000  0.00000  1.0000
  C   C385      1.0  0.74650  0.50000  0.00000  1.0000
  O   O134      1.0  0.25290  0.00000  0.50000  1.0000
  C   C386      1.0  0.74650  0.00000  0.50000  1.0000
  O   O135      1.0  0.75290  0.50000  0.50000  1.0000
  C   C387      1.0  0.24650  0.50000  0.50000  1.0000
  O   O136      1.0  0.75290  0.00000  0.00000  1.0000
  C   C388      1.0  0.24650  0.00000  0.00000  1.0000
