# DDEC6 charges by PACMAN v1.1 (https://github.com/mtap-research/PACMAN-charge/)
data_PUMCAE_ASR_pacman
_symmetry_space_group_name_H-M   'P 1'
_cell_length_a   8.59510000
_cell_length_b   9.92560000
_cell_length_c   14.25220000
_cell_angle_alpha   104.31200000
_cell_angle_beta   100.54100000
_cell_angle_gamma   91.19500000
_symmetry_Int_Tables_number   1
_chemical_formula_structural   Zn2H19C20N2O7
_chemical_formula_sum   'Zn4 H38 C40 N4 O14'
_cell_volume   1155.46906290
_cell_formula_units_Z   2
loop_
 _symmetry_equiv_pos_site_id
 _symmetry_equiv_pos_as_xyz
  1  'x, y, z'
loop_
 _atom_site_type_symbol
 _atom_site_label
 _atom_site_symmetry_multiplicity
 _atom_site_fract_x
 _atom_site_fract_y
 _atom_site_fract_z
 _atom_site_occupancy
 _atom_site_charge
Zn  Zn1  1  0.67101000  0.86656000  0.33977000  1.0 0.8524779106
Zn  Zn2  1  0.33560000  0.91483000  0.46198000  1.0 0.915140363
Zn  Zn3  1  0.32899000  0.13344000  0.66023000  1.0 0.8524779106
Zn  Zn4  1  0.66440000  0.08517000  0.53802000  1.0 0.915140363
H  H1  1  0.54047000  0.88249000  0.13733000  1.0 0.113141911
H  H2  1  0.36751000  0.76540000  0.99965000  1.0 0.1184395635
H  H3  1  0.35013000  0.44698000  0.11904000  1.0 0.113141911
H  H4  1  0.52420000  0.57433000  0.25693000  1.0 0.113141911
H  H5  1  0.80321000  0.06990000  0.74991000  1.0 0.1184395635
H  H6  1  0.97532000  0.18627000  0.88824000  1.0 0.113141911
H  H7  1  0.04786000  0.48049000  0.75265000  1.0 0.1184395635
H  H8  1  0.86831000  0.35703000  0.61662000  1.0 0.1184395635
H  H9  1  0.16243000  0.35739000  0.97906000  1.0 0.1184395635
H  H10  1  0.20704000  0.58057000  0.90006000  1.0 0.1306036772
H  H11  1  0.98095000  0.64691000  0.51905000  1.0 0.1306036772
H  H12  1  0.85072000  0.64144000  0.58238000  1.0 0.1370615983
H  H13  1  0.97017000  0.83768000  0.70128000  1.0 0.1306036772
H  H14  1  0.09879000  0.72923000  0.68420000  1.0 0.1184395635
H  H15  1  0.58301000  0.53444000  0.59844000  1.0 0.1184395635
H  H16  1  0.39934000  0.50020000  0.56760000  1.0 0.1306036772
H  H17  1  0.48607000  0.05079000  0.38072000  1.0 0.3729464138
H  H18  1  0.19060000  0.56690000  0.89480000  1.0 0.1518661404
H  H19  1  0.19838000  0.37828000  0.99348000  1.0 0.1370615983
H  H20  1  0.45953000  0.11751000  0.86267000  1.0 0.113141911
H  H21  1  0.63249000  0.23460000  0.00035000  1.0 0.113141911
H  H22  1  0.64987000  0.55302000  0.88096000  1.0 0.113141911
H  H23  1  0.47580000  0.42567000  0.74307000  1.0 0.113141911
H  H24  1  0.19679000  0.93010000  0.25009000  1.0 0.1184395635
H  H25  1  0.02468000  0.81373000  0.11176000  1.0 0.113141911
H  H26  1  0.95214000  0.51951000  0.24735000  1.0 0.1184395635
H  H27  1  0.13169000  0.64297000  0.38338000  1.0 0.1184395635
H  H28  1  0.83757000  0.64261000  0.02094000  1.0 0.1184395635
H  H29  1  0.79296000  0.41943000  0.09994000  1.0 0.1306036772
H  H30  1  0.01905000  0.35309000  0.48095000  1.0 0.1306036772
H  H31  1  0.14928000  0.35856000  0.41762000  1.0 0.1370615983
H  H32  1  0.02983000  0.16232000  0.29872000  1.0 0.1306036772
H  H33  1  0.90121000  0.27077000  0.31580000  1.0 0.1184395635
H  H34  1  0.41699000  0.46556000  0.40156000  1.0 0.1184395635
H  H35  1  0.60066000  0.49980000  0.43240000  1.0 0.1306036772
H  H36  1  0.51393000  0.94921000  0.61928000  1.0 0.3729464138
H  H37  1  0.80940000  0.43310000  0.10520000  1.0 0.1518661404
H  H38  1  0.80162000  0.62172000  0.00652000  1.0 0.1370615983
C  C1  1  0.50070000  0.79340000  0.13440000  1.0 0.0589387739
C  C2  1  0.39680000  0.72340000  0.05120000  1.0 -0.2574433213
C  C3  1  0.33600000  0.59230000  0.04330000  1.0 0.113141911
C  C4  1  0.38650000  0.53690000  0.12140000  1.0 -0.2996836728
C  C5  1  0.49210000  0.61410000  0.20450000  1.0 0.0461420292
C  C6  1  0.85310000  0.15410000  0.75020000  1.0 0.0959806466
C  C7  1  0.95710000  0.22330000  0.83360000  1.0 -0.2404531291
C  C8  1  0.03450000  0.34670000  0.83720000  1.0 0.113141911
C  C9  1  0.99910000  0.39650000  0.75380000  1.0 -0.2902092574
C  C10  1  0.89110000  0.32140000  0.67180000  1.0 0.1184395635
C  C11  1  0.14590000  0.40690000  0.93100000  1.0 -0.0766289508
C  C12  1  0.22340000  0.53120000  0.94820000  1.0 -0.0709269973
C  C13  1  0.82040000  0.79380000  0.50840000  1.0 0.6496967399
C  C14  1  0.91970000  0.70360000  0.56280000  1.0 -0.2902092574
C  C15  1  0.03180000  0.79050000  0.65390000  1.0 -0.2902092574
C  C16  1  0.13500000  0.89720000  0.63030000  1.0 0.6496967399
C  C17  1  0.46590000  0.69400000  0.55780000  1.0 0.6251599514
C  C18  1  0.48990000  0.54160000  0.55040000  1.0 -0.2902092574
C  C19  1  0.15600000  0.47900000  0.89890000  1.0 -0.0709269973
C  C20  1  0.22200000  0.46130000  0.97990000  1.0 -0.0601756846
C  C21  1  0.49930000  0.20660000  0.86560000  1.0 0.0589387739
C  C22  1  0.60320000  0.27660000  0.94880000  1.0 -0.2574433213
C  C23  1  0.66400000  0.40770000  0.95670000  1.0 0.113141911
C  C24  1  0.61350000  0.46310000  0.87860000  1.0 -0.2996836728
C  C25  1  0.50790000  0.38590000  0.79550000  1.0 0.0461420292
C  C26  1  0.14690000  0.84590000  0.24980000  1.0 0.0959806466
C  C27  1  0.04290000  0.77670000  0.16640000  1.0 -0.2404531291
C  C28  1  0.96550000  0.65330000  0.16280000  1.0 0.113141911
C  C29  1  0.00090000  0.60350000  0.24620000  1.0 -0.2902092574
C  C30  1  0.10890000  0.67860000  0.32820000  1.0 0.1184395635
C  C31  1  0.85410000  0.59310000  0.06900000  1.0 -0.0766289508
C  C32  1  0.77660000  0.46880000  0.05180000  1.0 -0.0709269973
C  C33  1  0.17960000  0.20620000  0.49160000  1.0 0.6496967399
C  C34  1  0.08030000  0.29640000  0.43720000  1.0 -0.2902092574
C  C35  1  0.96820000  0.20950000  0.34610000  1.0 -0.2902092574
C  C36  1  0.86500000  0.10280000  0.36970000  1.0 0.6496967399
C  C37  1  0.53410000  0.30600000  0.44220000  1.0 0.6251599514
C  C38  1  0.51010000  0.45840000  0.44960000  1.0 -0.2902092574
C  C39  1  0.84400000  0.52100000  0.10110000  1.0 -0.0709269973
C  C40  1  0.77800000  0.53870000  0.02010000  1.0 -0.0601756846
N  N1  1  0.54800000  0.74140000  0.21140000  1.0 -0.2331366068
N  N2  1  0.81940000  0.20080000  0.66930000  1.0 -0.196580348
N  N3  1  0.45200000  0.25860000  0.78860000  1.0 -0.2331366068
N  N4  1  0.18060000  0.79920000  0.33070000  1.0 -0.196580348
O  O1  1  0.48910000  0.77640000  0.64252000  1.0 -0.5691006309
O  O2  1  0.42380000  0.72920000  0.47860000  1.0 -0.5616667843
O  O3  1  0.78200000  0.90500000  0.55707000  1.0 -0.5336976922
O  O4  1  0.78120000  0.74710000  0.41485000  1.0 -0.5616667843
O  O5  1  0.19730000  0.00120000  0.70183000  1.0 -0.5691006309
O  O6  1  0.15470000  0.87980000  0.54466000  1.0 -0.5382015383
O  O7  1  0.51660000  0.97410000  0.40184000  1.0 -0.8380759633
O  O8  1  0.51090000  0.22360000  0.35748000  1.0 -0.5691006309
O  O9  1  0.57620000  0.27080000  0.52140000  1.0 -0.5616667843
O  O10  1  0.21800000  0.09500000  0.44293000  1.0 -0.5336976922
O  O11  1  0.21880000  0.25290000  0.58515000  1.0 -0.5616667843
O  O12  1  0.80270000  0.99880000  0.29817000  1.0 -0.5691006309
O  O13  1  0.84530000  0.12020000  0.45534000  1.0 -0.5382015383
O  O14  1  0.48340000  0.02590000  0.59816000  1.0 -0.8380759633
