# DDEC6 charges by PACMAN v1.1 (https://github.com/mtap-research/PACMAN-charge/)
data_PUNDUY_ASR_pacman
_symmetry_space_group_name_H-M   'P 1'
_cell_length_a   12.91200000
_cell_length_b   12.91200000
_cell_length_c   17.42810000
_cell_angle_alpha   83.80870000
_cell_angle_beta   96.19130000
_cell_angle_gamma   46.65930000
_symmetry_Int_Tables_number   1
_chemical_formula_structural   Cd3H6C44(N8O7)2
_chemical_formula_sum   'Cd6 H12 C88 N32 O28'
_cell_volume   2033.33551038
_cell_formula_units_Z   2
loop_
 _symmetry_equiv_pos_site_id
 _symmetry_equiv_pos_as_xyz
  1  'x, y, z'
loop_
 _atom_site_type_symbol
 _atom_site_label
 _atom_site_symmetry_multiplicity
 _atom_site_fract_x
 _atom_site_fract_y
 _atom_site_fract_z
 _atom_site_occupancy
 _atom_site_charge
Cd  Cd1  1  0.47535000  0.47535000  0.25000000  1.0 1.0326983472
Cd  Cd2  1  0.52465000  0.52465000  0.75000000  1.0 1.0326983472
Cd  Cd3  1  0.00849000  0.23595000  0.82722000  1.0 0.7923801084
Cd  Cd4  1  0.23595000  0.00849000  0.67278000  1.0 0.7923801084
Cd  Cd5  1  0.99151000  0.76405000  0.17278000  1.0 0.7923801084
Cd  Cd6  1  0.76405000  0.99151000  0.32722000  1.0 0.7923801084
H  H1  1  0.72770000  0.39710000  0.03530000  1.0 0.1395723102
H  H2  1  0.39710000  0.72770000  0.46470000  1.0 0.1395723102
H  H3  1  0.27230000  0.60290000  0.96470000  1.0 0.1395723102
H  H4  1  0.60290000  0.27230000  0.53530000  1.0 0.1395723102
H  H5  1  0.53550000  0.71750000  0.83820000  1.0 0.1276786317
H  H6  1  0.71750000  0.53550000  0.66180000  1.0 0.1276786317
H  H7  1  0.46450000  0.28250000  0.16180000  1.0 0.1276786317
H  H8  1  0.28250000  0.46450000  0.33820000  1.0 0.1276786317
H  H9  1  0.35870000  0.81310000  0.02620000  1.0 0.1395723102
H  H10  1  0.81310000  0.35870000  0.47380000  1.0 0.1395723102
H  H11  1  0.64130000  0.18690000  0.97380000  1.0 0.1395723102
H  H12  1  0.18690000  0.64130000  0.52620000  1.0 0.1395723102
C  C1  1  0.77190000  0.99910000  0.74110000  1.0 -0.0026625819
C  C2  1  0.99910000  0.77190000  0.75890000  1.0 -0.0026625819
C  C3  1  0.22810000  0.00090000  0.25890000  1.0 -0.0026625819
C  C4  1  0.00090000  0.22810000  0.24110000  1.0 -0.0026625819
C  C5  1  0.95030000  0.94350000  0.89130000  1.0 -0.0895078751
C  C6  1  0.94350000  0.95030000  0.60870000  1.0 -0.0895078751
C  C7  1  0.04970000  0.05650000  0.10870000  1.0 -0.0895078751
C  C8  1  0.05650000  0.04970000  0.39130000  1.0 -0.0895078751
C  C9  1  0.01060000  0.99500000  0.90320000  1.0 0.0507763828
C  C10  1  0.99500000  0.01060000  0.59680000  1.0 0.0507763828
C  C11  1  0.98940000  0.00500000  0.09680000  1.0 0.0507763828
C  C12  1  0.00500000  0.98940000  0.40320000  1.0 0.0507763828
C  C13  1  0.86930000  0.11010000  0.78080000  1.0 0.0202276939
C  C14  1  0.11010000  0.86930000  0.71920000  1.0 0.0202276939
C  C15  1  0.13070000  0.88990000  0.21920000  1.0 0.0202276939
C  C16  1  0.88990000  0.13070000  0.28080000  1.0 0.0202276939
C  C17  1  0.84140000  0.86100000  0.77030000  1.0 0.0683991656
C  C18  1  0.86100000  0.84140000  0.72970000  1.0 0.0683991656
C  C19  1  0.15860000  0.13900000  0.22970000  1.0 0.0683991656
C  C20  1  0.13900000  0.15860000  0.27030000  1.0 0.0683991656
C  C21  1  0.88450000  0.74530000  0.80570000  1.0 0.0620009889
C  C22  1  0.74530000  0.88450000  0.69430000  1.0 0.0620009889
C  C23  1  0.11550000  0.25470000  0.19430000  1.0 0.0620009889
C  C24  1  0.25470000  0.11550000  0.30570000  1.0 0.0620009889
C  C25  1  0.92050000  0.53770000  0.80920000  1.0 -0.0999357096
C  C26  1  0.53770000  0.92050000  0.69080000  1.0 -0.0999357096
C  C27  1  0.07950000  0.46230000  0.19080000  1.0 -0.0999357096
C  C28  1  0.46230000  0.07950000  0.30920000  1.0 -0.0999357096
C  C29  1  0.13300000  0.47600000  0.82730000  1.0 -0.0411278303
C  C30  1  0.47600000  0.13300000  0.67270000  1.0 -0.0411278303
C  C31  1  0.86700000  0.52400000  0.17270000  1.0 -0.0411278303
C  C32  1  0.52400000  0.86700000  0.32730000  1.0 -0.0411278303
C  C33  1  0.16490000  0.35110000  0.83090000  1.0 0.0108026648
C  C34  1  0.35110000  0.16490000  0.66910000  1.0 0.0108026648
C  C35  1  0.83510000  0.64890000  0.16910000  1.0 0.0108026648
C  C36  1  0.64890000  0.83510000  0.33090000  1.0 0.0108026648
C  C37  1  0.52911000  0.54891000  0.12150000  1.0 0.5658095022
C  C38  1  0.54891000  0.52911000  0.37850000  1.0 0.5658095022
C  C39  1  0.47089000  0.45109000  0.87850000  1.0 0.5658095022
C  C40  1  0.45109000  0.47089000  0.62150000  1.0 0.5658095022
C  C41  1  0.54061000  0.59701000  0.04370000  1.0 0.0108026648
C  C42  1  0.59701000  0.54061000  0.45630000  1.0 0.0108026648
C  C43  1  0.45939000  0.40299000  0.95630000  1.0 0.0108026648
C  C44  1  0.40299000  0.45939000  0.54370000  1.0 0.0108026648
C  C45  1  0.65182000  0.49562000  0.00770000  1.0 -0.1423815909
C  C46  1  0.49562000  0.65182000  0.49230000  1.0 -0.1423815909
C  C47  1  0.34818000  0.50438000  0.99230000  1.0 -0.1423815909
C  C48  1  0.50438000  0.34818000  0.50770000  1.0 -0.1423815909
C  C49  1  0.64956000  0.54096000  0.93140000  1.0 -0.0026625819
C  C50  1  0.54096000  0.64956000  0.56860000  1.0 -0.0026625819
C  C51  1  0.35044000  0.45904000  0.06860000  1.0 -0.0026625819
C  C52  1  0.45904000  0.35044000  0.43140000  1.0 -0.0026625819
C  C53  1  0.76804000  0.43164000  0.89290000  1.0 0.5616783639
C  C54  1  0.43164000  0.76804000  0.60710000  1.0 0.5616783639
C  C55  1  0.23196000  0.56836000  0.10710000  1.0 0.5616783639
C  C56  1  0.56836000  0.23196000  0.39290000  1.0 0.5616783639
C  C57  1  0.53803000  0.68783000  0.89000000  1.0 -0.1601328498
C  C58  1  0.68783000  0.53803000  0.61000000  1.0 -0.1601328498
C  C59  1  0.46197000  0.31217000  0.11000000  1.0 -0.1601328498
C  C60  1  0.31217000  0.46197000  0.39000000  1.0 -0.1601328498
C  C61  1  0.42958000  0.79118000  0.92630000  1.0 -0.0164245805
C  C62  1  0.79118000  0.42958000  0.57370000  1.0 -0.0164245805
C  C63  1  0.57042000  0.20882000  0.07370000  1.0 -0.0164245805
C  C64  1  0.20882000  0.57042000  0.42630000  1.0 -0.0164245805
C  C65  1  0.43163000  0.74443000  0.00230000  1.0 -0.1098923022
C  C66  1  0.74443000  0.43163000  0.49770000  1.0 -0.1098923022
C  C67  1  0.56837000  0.25557000  0.99770000  1.0 -0.1098923022
C  C68  1  0.25557000  0.56837000  0.50230000  1.0 -0.1098923022
C  C69  1  0.30320000  0.95080000  0.88130000  1.0 0.5016322349
C  C70  1  0.95080000  0.30320000  0.61870000  1.0 0.5016322349
C  C71  1  0.69680000  0.04920000  0.11870000  1.0 0.5016322349
C  C72  1  0.04920000  0.69680000  0.38130000  1.0 0.5016322349
C  C73  1  0.23610000  0.98630000  0.21420000  1.0 0.0620009889
C  C74  1  0.98630000  0.23610000  0.28580000  1.0 0.0620009889
C  C75  1  0.76390000  0.01370000  0.78580000  1.0 0.0620009889
C  C76  1  0.01370000  0.76390000  0.71420000  1.0 0.0620009889
C  C77  1  0.14900000  0.22660000  0.15400000  1.0 -0.0799782649
C  C78  1  0.22660000  0.14900000  0.34600000  1.0 -0.0799782649
C  C79  1  0.85100000  0.77340000  0.84600000  1.0 -0.0799782649
C  C80  1  0.77340000  0.85100000  0.65400000  1.0 -0.0799782649
C  C81  1  0.90510000  0.49710000  0.10800000  1.0 -0.0799782649
C  C82  1  0.49710000  0.90510000  0.39200000  1.0 -0.0799782649
C  C83  1  0.09490000  0.50290000  0.89200000  1.0 -0.0799782649
C  C84  1  0.50290000  0.09490000  0.60800000  1.0 -0.0799782649
C  C85  1  0.86530000  0.62070000  0.11480000  1.0 0.0815684571
C  C86  1  0.62070000  0.86530000  0.38520000  1.0 0.0815684571
C  C87  1  0.13470000  0.37930000  0.88520000  1.0 0.0815684571
C  C88  1  0.37930000  0.13470000  0.61480000  1.0 0.0815684571
N  N1  1  0.85920000  0.01300000  0.79560000  1.0 0.0936795254
N  N2  1  0.01300000  0.85920000  0.70440000  1.0 0.0936795254
N  N3  1  0.14080000  0.98700000  0.20440000  1.0 0.0936795254
N  N4  1  0.98700000  0.14080000  0.29560000  1.0 0.0936795254
N  N5  1  0.94960000  0.10380000  0.82210000  1.0 -0.1098923022
N  N6  1  0.10380000  0.94960000  0.67790000  1.0 -0.1098923022
N  N7  1  0.05040000  0.89620000  0.17790000  1.0 -0.1098923022
N  N8  1  0.89620000  0.05040000  0.32210000  1.0 -0.1098923022
N  N9  1  0.03960000  0.37860000  0.81370000  1.0 -0.0411278303
N  N10  1  0.37860000  0.03960000  0.68630000  1.0 -0.0411278303
N  N11  1  0.96040000  0.62140000  0.18630000  1.0 -0.0411278303
N  N12  1  0.62140000  0.96040000  0.31370000  1.0 -0.0411278303
N  N13  1  0.97830000  0.59050000  0.80520000  1.0 0.0936795254
N  N14  1  0.59050000  0.97830000  0.69480000  1.0 0.0965717325
N  N15  1  0.02170000  0.40950000  0.19480000  1.0 0.0965717325
N  N16  1  0.40950000  0.02170000  0.30520000  1.0 0.0965717325
N  N17  1  0.14050000  0.97890000  0.16880000  1.0 0.1517260363
N  N18  1  0.97890000  0.14050000  0.33120000  1.0 0.1517260363
N  N19  1  0.85950000  0.02110000  0.83120000  1.0 0.1517260363
N  N20  1  0.02110000  0.85950000  0.66880000  1.0 0.1517260363
N  N21  1  0.03280000  0.90320000  0.15410000  1.0 -0.1193679395
N  N22  1  0.90320000  0.03280000  0.34590000  1.0 -0.1193679395
N  N23  1  0.96720000  0.09680000  0.84590000  1.0 -0.1193679395
N  N24  1  0.09680000  0.96720000  0.65410000  1.0 -0.1193679395
N  N25  1  0.97740000  0.59240000  0.16180000  1.0 0.0507763828
N  N26  1  0.59240000  0.97740000  0.33820000  1.0 0.0507763828
N  N27  1  0.02260000  0.40760000  0.83820000  1.0 0.0507763828
N  N28  1  0.40760000  0.02260000  0.66180000  1.0 0.0507763828
N  N29  1  0.05130000  0.38550000  0.15070000  1.0 0.0815684571
N  N30  1  0.38550000  0.05130000  0.34930000  1.0 0.0815684571
N  N31  1  0.94870000  0.61450000  0.84930000  1.0 0.0815684571
N  N32  1  0.61450000  0.94870000  0.65070000  1.0 0.0815684571
O  O1  1  0.42179000  0.64559000  0.14794000  1.0 -0.5404848615
O  O2  1  0.64559000  0.42179000  0.35206000  1.0 -0.5404848615
O  O3  1  0.57821000  0.35441000  0.85206000  1.0 -0.5404848615
O  O4  1  0.35441000  0.57821000  0.64794000  1.0 -0.5404848615
O  O5  1  0.62263000  0.41583000  0.15774000  1.0 -0.5613011579
O  O6  1  0.41583000  0.62263000  0.34226000  1.0 -0.5613011579
O  O7  1  0.37737000  0.58417000  0.84226000  1.0 -0.5613011579
O  O8  1  0.58417000  0.37737000  0.65774000  1.0 -0.5613011579
O  O9  1  0.89472000  0.32532000  0.93537000  1.0 -0.5132424096
O  O10  1  0.32532000  0.89472000  0.56463000  1.0 -0.5132424096
O  O11  1  0.10528000  0.67468000  0.06463000  1.0 -0.5132424096
O  O12  1  0.67468000  0.10528000  0.43537000  1.0 -0.5132424096
O  O13  1  0.73661000  0.45461000  0.81709000  1.0 -0.5906371633
O  O14  1  0.45461000  0.73661000  0.68291000  1.0 -0.5906371633
O  O15  1  0.26339000  0.54539000  0.18291000  1.0 -0.5906371633
O  O16  1  0.54539000  0.26339000  0.31709000  1.0 -0.5906371633
O  O17  1  0.22778000  0.04318000  0.92080000  1.0 -0.5295192014
O  O18  1  0.04318000  0.22778000  0.57920000  1.0 -0.5295192014
O  O19  1  0.77222000  0.95682000  0.07920000  1.0 -0.5295192014
O  O20  1  0.95682000  0.77222000  0.42080000  1.0 -0.5295192014
O  O21  1  0.29230000  0.98630000  0.80770000  1.0 -0.1945805113
O  O22  1  0.98630000  0.29230000  0.69230000  1.0 -0.1945805113
O  O23  1  0.70770000  0.01370000  0.19230000  1.0 -0.1973315487
O  O24  1  0.01370000  0.70770000  0.30770000  1.0 -0.1973315487
O  O25  1  0.74480000  0.01680000  0.19240000  1.0 -0.1601328498
O  O26  1  0.01680000  0.74480000  0.30760000  1.0 -0.1541510383
O  O27  1  0.25520000  0.98320000  0.80760000  1.0 -0.1601328498
O  O28  1  0.98320000  0.25520000  0.69240000  1.0 -0.1601328498
