# DDEC6 charges by PACMAN v1.1 (https://github.com/mtap-research/PACMAN-charge/)
data_PUPHUE_ASR_pacman
_symmetry_space_group_name_H-M   'P 1'
_cell_length_a   22.54750000
_cell_length_b   22.54750000
_cell_length_c   8.84600000
_cell_angle_alpha   83.99080000
_cell_angle_beta   96.00920000
_cell_angle_gamma   121.59800000
_symmetry_Int_Tables_number   1
_chemical_formula_structural   Na2H54Pb2(C19O6)3
_chemical_formula_sum   'Na4 H108 Pb4 C114 O36'
_cell_volume   3802.83518493
_cell_formula_units_Z   2
loop_
 _symmetry_equiv_pos_site_id
 _symmetry_equiv_pos_as_xyz
  1  'x, y, z'
loop_
 _atom_site_type_symbol
 _atom_site_label
 _atom_site_symmetry_multiplicity
 _atom_site_fract_x
 _atom_site_fract_y
 _atom_site_fract_z
 _atom_site_occupancy
 _atom_site_charge
Na  Na1  1  0.09121000  0.68017000  0.64370000  1.0 0.8539926715
Na  Na2  1  0.68017000  0.09121000  0.85630000  1.0 0.8539926715
Na  Na3  1  0.90879000  0.31983000  0.35630000  1.0 0.8539926715
Na  Na4  1  0.31983000  0.90879000  0.14370000  1.0 0.8539926715
H  H1  1  0.32790000  0.76950000  0.39470000  1.0 0.1305461051
H  H2  1  0.76950000  0.32790000  0.10530000  1.0 0.1305461051
H  H3  1  0.67210000  0.23050000  0.60530000  1.0 0.1305461051
H  H4  1  0.23050000  0.67210000  0.89470000  1.0 0.1305461051
H  H5  1  0.27460000  0.74480000  0.25270000  1.0 0.1305461051
H  H6  1  0.74480000  0.27460000  0.24730000  1.0 0.1305461051
H  H7  1  0.72540000  0.25520000  0.74730000  1.0 0.1305461051
H  H8  1  0.25520000  0.72540000  0.75270000  1.0 0.1305461051
H  H9  1  0.20760000  0.54600000  0.47920000  1.0 0.1305461051
H  H10  1  0.54600000  0.20760000  0.02080000  1.0 0.1305461051
H  H11  1  0.79240000  0.45400000  0.52080000  1.0 0.1305461051
H  H12  1  0.45400000  0.79240000  0.97920000  1.0 0.1305461051
H  H13  1  0.23840000  0.47540000  0.38370000  1.0 0.1119657268
H  H14  1  0.47540000  0.23840000  0.11630000  1.0 0.1119657268
H  H15  1  0.76160000  0.52460000  0.61630000  1.0 0.1119657268
H  H16  1  0.52460000  0.76160000  0.88370000  1.0 0.1119657268
H  H17  1  0.38020000  0.63760000  0.13850000  1.0 0.1119657268
H  H18  1  0.63760000  0.38020000  0.36150000  1.0 0.1119657268
H  H19  1  0.61980000  0.36240000  0.86150000  1.0 0.1119657268
H  H20  1  0.36240000  0.61980000  0.63850000  1.0 0.1119657268
H  H21  1  0.34950000  0.70890000  0.22970000  1.0 0.1178755494
H  H22  1  0.70890000  0.34950000  0.27030000  1.0 0.1178755494
H  H23  1  0.65050000  0.29110000  0.77030000  1.0 0.1178755494
H  H24  1  0.29110000  0.65050000  0.72970000  1.0 0.1178755494
H  H25  1  0.29680000  0.42600000  0.35960000  1.0 0.1119657268
H  H26  1  0.42600000  0.29680000  0.14040000  1.0 0.1119657268
H  H27  1  0.70320000  0.57400000  0.64040000  1.0 0.1119657268
H  H28  1  0.57400000  0.70320000  0.85960000  1.0 0.1119657268
H  H29  1  0.34210000  0.41750000  0.25110000  1.0 0.1305461051
H  H30  1  0.41750000  0.34210000  0.24890000  1.0 0.1305461051
H  H31  1  0.65790000  0.58250000  0.74890000  1.0 0.1305461051
H  H32  1  0.58250000  0.65790000  0.75110000  1.0 0.1305461051
H  H33  1  0.37750000  0.47850000  0.36180000  1.0 0.1359204558
H  H34  1  0.47850000  0.37750000  0.13820000  1.0 0.1359204558
H  H35  1  0.62250000  0.52150000  0.63820000  1.0 0.1359204558
H  H36  1  0.52150000  0.62250000  0.86180000  1.0 0.1359204558
H  H37  1  0.40280000  0.50460000  0.05340000  1.0 0.1305461051
H  H38  1  0.50460000  0.40280000  0.44660000  1.0 0.1305461051
H  H39  1  0.59720000  0.49540000  0.94660000  1.0 0.1305461051
H  H40  1  0.49540000  0.59720000  0.55340000  1.0 0.1305461051
H  H41  1  0.38630000  0.56330000  0.00130000  1.0 0.1119657268
H  H42  1  0.56330000  0.38630000  0.49870000  1.0 0.1119657268
H  H43  1  0.61370000  0.43670000  0.99870000  1.0 0.1119657268
H  H44  1  0.43670000  0.61370000  0.50130000  1.0 0.1119657268
H  H45  1  0.43100000  0.56860000  0.15330000  1.0 0.1305461051
H  H46  1  0.56860000  0.43100000  0.34670000  1.0 0.1305461051
H  H47  1  0.56900000  0.43140000  0.84670000  1.0 0.1305461051
H  H48  1  0.43140000  0.56900000  0.65330000  1.0 0.1305461051
H  H49  1  0.21200000  0.36680000  0.19680000  1.0 0.1119657268
H  H50  1  0.36680000  0.21200000  0.30320000  1.0 0.1119657268
H  H51  1  0.78800000  0.63320000  0.80320000  1.0 0.1119657268
H  H52  1  0.63320000  0.78800000  0.69680000  1.0 0.1119657268
H  H53  1  0.10910000  0.31250000  0.05270000  1.0 0.1178755494
H  H54  1  0.31250000  0.10910000  0.44730000  1.0 0.1178755494
H  H55  1  0.89090000  0.68750000  0.94730000  1.0 0.1178755494
H  H56  1  0.68750000  0.89090000  0.55270000  1.0 0.1178755494
H  H57  1  0.18430000  0.47850000  0.75680000  1.0 0.1305461051
H  H58  1  0.47850000  0.18430000  0.74320000  1.0 0.1305461051
H  H59  1  0.81570000  0.52150000  0.24320000  1.0 0.1305461051
H  H60  1  0.52150000  0.81570000  0.25680000  1.0 0.1305461051
H  H61  1  0.28580000  0.53280000  0.90390000  1.0 0.1119657268
H  H62  1  0.53280000  0.28580000  0.59610000  1.0 0.1119657268
H  H63  1  0.71420000  0.46720000  0.09610000  1.0 0.1119657268
H  H64  1  0.46720000  0.71420000  0.40390000  1.0 0.1119657268
H  H65  1  0.24900000  0.02640000  0.01610000  1.0 0.1305461051
H  H66  1  0.02640000  0.24900000  0.48390000  1.0 0.1305461051
H  H67  1  0.75100000  0.97360000  0.98390000  1.0 0.1305461051
H  H68  1  0.97360000  0.75100000  0.51610000  1.0 0.1305461051
H  H69  1  0.31480000  0.05980000  0.13060000  1.0 0.1305461051
H  H70  1  0.05980000  0.31480000  0.36940000  1.0 0.1305461051
H  H71  1  0.68520000  0.94020000  0.86940000  1.0 0.1305461051
H  H72  1  0.94020000  0.68520000  0.63060000  1.0 0.1305461051
H  H73  1  0.21960000  0.18240000  0.13740000  1.0 0.1305461051
H  H74  1  0.18240000  0.21960000  0.36260000  1.0 0.1305461051
H  H75  1  0.78040000  0.81760000  0.86260000  1.0 0.1305461051
H  H76  1  0.81760000  0.78040000  0.63740000  1.0 0.1305461051
H  H77  1  0.25320000  0.28140000  0.98090000  1.0 0.1119657268
H  H78  1  0.28140000  0.25320000  0.51910000  1.0 0.1119657268
H  H79  1  0.74680000  0.71860000  0.01910000  1.0 0.1119657268
H  H80  1  0.71860000  0.74680000  0.48090000  1.0 0.1119657268
H  H81  1  0.37570000  0.24010000  0.77420000  1.0 0.1119657268
H  H82  1  0.24010000  0.37570000  0.72580000  1.0 0.1119657268
H  H83  1  0.62430000  0.75990000  0.22580000  1.0 0.1119657268
H  H84  1  0.75990000  0.62430000  0.27420000  1.0 0.1119657268
H  H85  1  0.34060000  0.14020000  0.92890000  1.0 0.1178755494
H  H86  1  0.14020000  0.34060000  0.57110000  1.0 0.1178755494
H  H87  1  0.65940000  0.85980000  0.07110000  1.0 0.1178755494
H  H88  1  0.85980000  0.65940000  0.42890000  1.0 0.1178755494
H  H89  1  0.32110000  0.38830000  0.90690000  1.0 0.1119657268
H  H90  1  0.38830000  0.32110000  0.59310000  1.0 0.1119657268
H  H91  1  0.67890000  0.61170000  0.09310000  1.0 0.1119657268
H  H92  1  0.61170000  0.67890000  0.40690000  1.0 0.1119657268
H  H93  1  0.39980000  0.41160000  0.90460000  1.0 0.1359204558
H  H94  1  0.41160000  0.39980000  0.59540000  1.0 0.1359204558
H  H95  1  0.60020000  0.58840000  0.09540000  1.0 0.1305461051
H  H96  1  0.58840000  0.60020000  0.40460000  1.0 0.1305461051
H  H97  1  0.36580000  0.43920000  0.77470000  1.0 0.1305461051
H  H98  1  0.43920000  0.36580000  0.72530000  1.0 0.1305461051
H  H99  1  0.63420000  0.56080000  0.22530000  1.0 0.1305461051
H  H100  1  0.56080000  0.63420000  0.27470000  1.0 0.1305461051
H  H101  1  0.02160000  0.27060000  0.89310000  1.0 0.1305461051
H  H102  1  0.27060000  0.02160000  0.60690000  1.0 0.1305461051
H  H103  1  0.97840000  0.72940000  0.10690000  1.0 0.1305461051
H  H104  1  0.72940000  0.97840000  0.39310000  1.0 0.1305461051
H  H105  1  0.00080000  0.32140000  0.94550000  1.0 0.1305461051
H  H106  1  0.32140000  0.00080000  0.55450000  1.0 0.1305461051
H  H107  1  0.99920000  0.67860000  0.05450000  1.0 0.1305461051
H  H108  1  0.67860000  0.99920000  0.44550000  1.0 0.1305461051
Pb  Pb1  1  0.16401000  0.84689000  0.41756000  1.0 1.0087774701
Pb  Pb2  1  0.84689000  0.16401000  0.08244000  1.0 1.0087774701
Pb  Pb3  1  0.83599000  0.15311000  0.58244000  1.0 1.0087774701
Pb  Pb4  1  0.15311000  0.83599000  0.91756000  1.0 1.0087774701
C  C1  1  0.24199000  0.77441000  0.42070000  1.0 0.6140992351
C  C2  1  0.77441000  0.24199000  0.07930000  1.0 0.6140992351
C  C3  1  0.75801000  0.22559000  0.57930000  1.0 0.6140992351
C  C4  1  0.22559000  0.75801000  0.92070000  1.0 0.6140992351
C  C5  1  0.27877000  0.74283000  0.36310000  1.0 -0.1858475499
C  C6  1  0.74283000  0.27877000  0.13690000  1.0 -0.1858475499
C  C7  1  0.72123000  0.25717000  0.63690000  1.0 -0.1858475499
C  C8  1  0.25717000  0.72123000  0.86310000  1.0 -0.1858475499
C  C9  1  0.27398000  0.63522000  0.36150000  1.0 0.2373928845
C  C10  1  0.63522000  0.27398000  0.13850000  1.0 0.2373928845
C  C11  1  0.72602000  0.36478000  0.63850000  1.0 0.2373928845
C  C12  1  0.36478000  0.72602000  0.86150000  1.0 0.2373928845
C  C13  1  0.24191000  0.56469000  0.40900000  1.0 -0.2174108859
C  C14  1  0.56469000  0.24191000  0.09100000  1.0 -0.2174108859
C  C15  1  0.75809000  0.43531000  0.59100000  1.0 -0.2174108859
C  C16  1  0.43531000  0.75809000  0.90900000  1.0 -0.2174108859
C  C17  1  0.26095000  0.52245000  0.35200000  1.0 -0.1315200471
C  C18  1  0.52245000  0.26095000  0.14800000  1.0 -0.1315200471
C  C19  1  0.73905000  0.47755000  0.64800000  1.0 -0.1315200471
C  C20  1  0.47755000  0.73905000  0.85200000  1.0 -0.1315200471
C  C21  1  0.31235000  0.54805000  0.24960000  1.0 0.0425362483
C  C22  1  0.54805000  0.31235000  0.25040000  1.0 0.0425362483
C  C23  1  0.68765000  0.45195000  0.75040000  1.0 0.0425362483
C  C24  1  0.45195000  0.68765000  0.74960000  1.0 0.0425362483
C  C25  1  0.34490000  0.61870000  0.20630000  1.0 -0.1424714899
C  C26  1  0.61870000  0.34490000  0.29370000  1.0 -0.1424714899
C  C27  1  0.65510000  0.38130000  0.79370000  1.0 -0.1424714899
C  C28  1  0.38130000  0.65510000  0.70630000  1.0 -0.1424714899
C  C29  1  0.32645000  0.66175000  0.26090000  1.0 -0.2282904435
C  C30  1  0.66175000  0.32645000  0.23910000  1.0 -0.2282904435
C  C31  1  0.67355000  0.33825000  0.73910000  1.0 -0.2282904435
C  C32  1  0.33825000  0.67355000  0.76090000  1.0 -0.2282904435
C  C33  1  0.32560000  0.49740000  0.17590000  1.0 0.1755221196
C  C34  1  0.49740000  0.32560000  0.32410000  1.0 0.1755221196
C  C35  1  0.67440000  0.50260000  0.82410000  1.0 0.1755221196
C  C36  1  0.50260000  0.67440000  0.67590000  1.0 0.1755221196
C  C37  1  0.33650000  0.45050000  0.29850000  1.0 -0.4794875376
C  C38  1  0.45050000  0.33650000  0.20150000  1.0 -0.4794875376
C  C39  1  0.66350000  0.54950000  0.70150000  1.0 -0.4794875376
C  C40  1  0.54950000  0.66350000  0.79850000  1.0 -0.4794875376
C  C41  1  0.39277000  0.53723000  0.08760000  1.0 -0.4794875376
C  C42  1  0.53723000  0.39277000  0.41240000  1.0 -0.4794875376
C  C43  1  0.60723000  0.46277000  0.91240000  1.0 -0.4794875376
C  C44  1  0.46277000  0.60723000  0.58760000  1.0 -0.4794875376
C  C45  1  0.26074000  0.45606000  0.06970000  1.0 0.0462434336
C  C46  1  0.45606000  0.26074000  0.43030000  1.0 0.0462434336
C  C47  1  0.73926000  0.54394000  0.93030000  1.0 0.0462434336
C  C48  1  0.54394000  0.73926000  0.56970000  1.0 0.0462434336
C  C49  1  0.20645000  0.39015000  0.10850000  1.0 -0.150305521
C  C50  1  0.39015000  0.20645000  0.39150000  1.0 -0.150305521
C  C51  1  0.79355000  0.60985000  0.89150000  1.0 -0.1424714899
C  C52  1  0.60985000  0.79355000  0.60850000  1.0 -0.150305521
C  C53  1  0.14425000  0.35715000  0.02300000  1.0 -0.2174108859
C  C54  1  0.35715000  0.14425000  0.47700000  1.0 -0.2174108859
C  C55  1  0.85575000  0.64285000  0.97700000  1.0 -0.2174108859
C  C56  1  0.64285000  0.85575000  0.52300000  1.0 -0.2174108859
C  C57  1  0.13505000  0.39155000  0.89240000  1.0 0.225711406
C  C58  1  0.39155000  0.13505000  0.60760000  1.0 0.225711406
C  C59  1  0.86495000  0.60845000  0.10760000  1.0 0.225711406
C  C60  1  0.60845000  0.86495000  0.39240000  1.0 0.225711406
C  C61  1  0.18929000  0.45631000  0.84760000  1.0 -0.2024850056
C  C62  1  0.45631000  0.18929000  0.65240000  1.0 -0.2024850056
C  C63  1  0.81071000  0.54369000  0.15240000  1.0 -0.2024850056
C  C64  1  0.54369000  0.81071000  0.34760000  1.0 -0.2024850056
C  C65  1  0.25040000  0.48840000  0.93500000  1.0 -0.1315200471
C  C66  1  0.48840000  0.25040000  0.56500000  1.0 -0.1315200471
C  C67  1  0.74960000  0.51160000  0.06500000  1.0 -0.1315200471
C  C68  1  0.51160000  0.74960000  0.43500000  1.0 -0.1315200471
C  C69  1  0.22871000  0.97969000  0.22960000  1.0 0.5999109752
C  C70  1  0.97969000  0.22871000  0.27040000  1.0 0.5999109752
C  C71  1  0.77129000  0.02031000  0.77040000  1.0 0.5999109752
C  C72  1  0.02031000  0.77129000  0.72960000  1.0 0.5999109752
C  C73  1  0.26484000  0.04096000  0.11930000  1.0 -0.1810823448
C  C74  1  0.04096000  0.26484000  0.38070000  1.0 -0.1810823448
C  C75  1  0.73516000  0.95904000  0.88070000  1.0 -0.1810823448
C  C76  1  0.95904000  0.73516000  0.61930000  1.0 -0.1810823448
C  C77  1  0.27617000  0.15143000  0.04800000  1.0 0.2225740858
C  C78  1  0.15143000  0.27617000  0.45200000  1.0 0.2225740858
C  C79  1  0.72383000  0.84857000  0.95200000  1.0 0.2225740858
C  C80  1  0.84857000  0.72383000  0.54800000  1.0 0.2225740858
C  C81  1  0.25077000  0.19383000  0.06320000  1.0 -0.2073224775
C  C82  1  0.19383000  0.25077000  0.43680000  1.0 -0.2073224775
C  C83  1  0.74923000  0.80617000  0.93680000  1.0 -0.2073224775
C  C84  1  0.80617000  0.74923000  0.56320000  1.0 -0.2073224775
C  C85  1  0.27133000  0.25347000  0.96930000  1.0 -0.1315200471
C  C86  1  0.25347000  0.27133000  0.53070000  1.0 -0.1315200471
C  C87  1  0.72867000  0.74653000  0.03070000  1.0 -0.1315200471
C  C88  1  0.74653000  0.72867000  0.46930000  1.0 -0.1315200471
C  C89  1  0.31879000  0.27281000  0.85670000  1.0 0.0462434336
C  C90  1  0.27281000  0.31879000  0.64330000  1.0 0.0462434336
C  C91  1  0.68121000  0.72719000  0.14330000  1.0 0.0462434336
C  C92  1  0.72719000  0.68121000  0.35670000  1.0 0.0462434336
C  C93  1  0.34367000  0.22873000  0.84660000  1.0 -0.1424714899
C  C94  1  0.22873000  0.34367000  0.65340000  1.0 -0.1424714899
C  C95  1  0.65633000  0.77127000  0.15340000  1.0 -0.1424714899
C  C96  1  0.77127000  0.65633000  0.34660000  1.0 -0.1424714899
C  C97  1  0.32300000  0.16860000  0.93960000  1.0 -0.2282904435
C  C98  1  0.16860000  0.32300000  0.56040000  1.0 -0.2282904435
C  C99  1  0.67700000  0.83140000  0.06040000  1.0 -0.2282904435
C  C100  1  0.83140000  0.67700000  0.43960000  1.0 -0.2282904435
C  C101  1  0.33730000  0.33730000  0.75000000  1.0 0.164281518
C  C102  1  0.66270000  0.66270000  0.25000000  1.0 0.164281518
C  C103  1  0.35799000  0.40001000  0.84280000  1.0 -0.4746950559
C  C104  1  0.40001000  0.35799000  0.65720000  1.0 -0.4746950559
C  C105  1  0.64201000  0.59999000  0.15720000  1.0 -0.4746950559
C  C106  1  0.59999000  0.64201000  0.34280000  1.0 -0.4746950559
C  C107  1  0.95341000  0.28219000  0.73890000  1.0 0.6140992351
C  C108  1  0.28219000  0.95341000  0.76110000  1.0 0.6140992351
C  C109  1  0.04659000  0.71781000  0.26110000  1.0 0.6140992351
C  C110  1  0.71781000  0.04659000  0.23890000  1.0 0.6140992351
C  C111  1  0.01310000  0.30790000  0.85860000  1.0 -0.174212455
C  C112  1  0.30790000  0.01310000  0.64140000  1.0 -0.174212455
C  C113  1  0.98690000  0.69210000  0.14140000  1.0 -0.174212455
C  C114  1  0.69210000  0.98690000  0.35860000  1.0 -0.174212455
O  O1  1  0.19422000  0.74054000  0.50830000  1.0 -0.5907018401
O  O2  1  0.74054000  0.19422000  0.99170000  1.0 -0.5907018401
O  O3  1  0.80578000  0.25946000  0.49170000  1.0 -0.5907018401
O  O4  1  0.25946000  0.80578000  0.00830000  1.0 -0.5907018401
O  O5  1  0.26258000  0.83636000  0.36850000  1.0 -0.6012133948
O  O6  1  0.83636000  0.26258000  0.13150000  1.0 -0.6012133948
O  O7  1  0.73742000  0.16364000  0.63150000  1.0 -0.6012133948
O  O8  1  0.16364000  0.73742000  0.86850000  1.0 -0.6012133948
O  O9  1  0.22298000  0.92326000  0.19760000  1.0 -0.6378979825
O  O10  1  0.92326000  0.22298000  0.30240000  1.0 -0.6378979825
O  O11  1  0.77702000  0.07674000  0.80240000  1.0 -0.6378979825
O  O12  1  0.07674000  0.77702000  0.69760000  1.0 -0.6378979825
O  O13  1  0.20638000  0.98522000  0.34640000  1.0 -0.5293187492
O  O14  1  0.98522000  0.20638000  0.15360000  1.0 -0.5293187492
O  O15  1  0.79362000  0.01478000  0.65360000  1.0 -0.5293187492
O  O16  1  0.01478000  0.79362000  0.84640000  1.0 -0.5293187492
O  O17  1  0.25029000  0.67235000  0.41950000  1.0 -0.150305521
O  O18  1  0.67235000  0.25029000  0.08050000  1.0 -0.150305521
O  O19  1  0.74971000  0.32765000  0.58050000  1.0 -0.150305521
O  O20  1  0.32765000  0.74971000  0.91950000  1.0 -0.150305521
O  O21  1  0.07420000  0.36562000  0.79940000  1.0 -0.1619398363
O  O22  1  0.36562000  0.07420000  0.70060000  1.0 -0.1619398363
O  O23  1  0.92580000  0.63438000  0.20060000  1.0 -0.1619398363
O  O24  1  0.63438000  0.92580000  0.29940000  1.0 -0.1619398363
O  O25  1  0.25051000  0.09289000  0.14590000  1.0 -0.150305521
O  O26  1  0.09289000  0.25051000  0.35410000  1.0 -0.150305521
O  O27  1  0.74949000  0.90711000  0.85410000  1.0 -0.150305521
O  O28  1  0.90711000  0.74949000  0.64590000  1.0 -0.150305521
O  O29  1  0.96244000  0.30800000  0.60800000  1.0 -0.5805578076
O  O30  1  0.30800000  0.96244000  0.89200000  1.0 -0.5805578076
O  O31  1  0.03756000  0.69200000  0.39200000  1.0 -0.5805578076
O  O32  1  0.69200000  0.03756000  0.10800000  1.0 -0.5805578076
O  O33  1  0.89620000  0.23166000  0.78750000  1.0 -0.5907018401
O  O34  1  0.23166000  0.89620000  0.71250000  1.0 -0.5907018401
O  O35  1  0.10380000  0.76834000  0.21250000  1.0 -0.5907018401
O  O36  1  0.76834000  0.10380000  0.28750000  1.0 -0.5907018401
