# DDEC6 charges by PACMAN v1.1 (https://github.com/mtap-research/PACMAN-charge/)
data_PUPJER_ASR_pacman
_symmetry_space_group_name_H-M   'P 1'
_cell_length_a   16.78600000
_cell_length_b   16.78600000
_cell_length_c   16.78600000
_cell_angle_alpha   66.99470000
_cell_angle_beta   66.99470000
_cell_angle_gamma   66.99470000
_symmetry_Int_Tables_number   1
_chemical_formula_structural   CuH4C13(O2F3)2
_chemical_formula_sum   'Cu6 H24 C78 O24 F36'
_cell_volume   3845.90911917
_cell_formula_units_Z   6
loop_
 _symmetry_equiv_pos_site_id
 _symmetry_equiv_pos_as_xyz
  1  'x, y, z'
loop_
 _atom_site_type_symbol
 _atom_site_label
 _atom_site_symmetry_multiplicity
 _atom_site_fract_x
 _atom_site_fract_y
 _atom_site_fract_z
 _atom_site_occupancy
 _atom_site_charge
Cu  Cu1  1  0.50373000  0.07597000  0.50373000  1.0 0.8544955176
Cu  Cu2  1  0.07597000  0.50373000  0.50373000  1.0 0.8544955176
Cu  Cu3  1  0.50373000  0.50373000  0.07597000  1.0 0.8544955176
Cu  Cu4  1  0.92403000  0.49627000  0.49627000  1.0 0.8544955176
Cu  Cu5  1  0.49627000  0.92403000  0.49627000  1.0 0.8544955176
Cu  Cu6  1  0.49627000  0.49627000  0.92403000  1.0 0.8544955176
H  H1  1  0.52870000  0.22790000  0.22790000  1.0 0.1185907719
H  H2  1  0.22790000  0.22790000  0.52870000  1.0 0.1185907719
H  H3  1  0.22790000  0.52870000  0.22790000  1.0 0.1185907719
H  H4  1  0.77210000  0.47130000  0.77210000  1.0 0.1185907719
H  H5  1  0.77210000  0.77210000  0.47130000  1.0 0.1185907719
H  H6  1  0.47130000  0.77210000  0.77210000  1.0 0.1185907719
H  H7  1  0.52280000  0.99610000  0.21210000  1.0 0.1054105036
H  H8  1  0.99610000  0.21210000  0.52280000  1.0 0.1043370418
H  H9  1  0.21210000  0.52280000  0.99610000  1.0 0.1043370418
H  H10  1  0.00390000  0.47720000  0.78790000  1.0 0.1043370418
H  H11  1  0.78790000  0.00390000  0.47720000  1.0 0.1043370418
H  H12  1  0.47720000  0.78790000  0.00390000  1.0 0.1043370418
H  H13  1  0.47720000  0.00390000  0.78790000  1.0 0.1043370418
H  H14  1  0.00390000  0.78790000  0.47720000  1.0 0.1043370418
H  H15  1  0.78790000  0.47720000  0.00390000  1.0 0.1043370418
H  H16  1  0.99610000  0.52280000  0.21210000  1.0 0.1043370418
H  H17  1  0.21210000  0.99610000  0.52280000  1.0 0.1043370418
H  H18  1  0.52280000  0.21210000  0.99610000  1.0 0.1054105036
H  H19  1  0.38220000  0.08560000  0.08560000  1.0 0.0501842682
H  H20  1  0.08560000  0.08560000  0.38220000  1.0 0.0501842682
H  H21  1  0.08560000  0.38220000  0.08560000  1.0 0.0501842682
H  H22  1  0.91440000  0.61780000  0.91440000  1.0 0.0501842682
H  H23  1  0.91440000  0.91440000  0.61780000  1.0 0.0501842682
H  H24  1  0.61780000  0.91440000  0.91440000  1.0 0.0501842682
C  C1  1  0.52738000  0.19502000  0.19502000  1.0 -0.1091614667
C  C2  1  0.19502000  0.19502000  0.52738000  1.0 -0.1091614667
C  C3  1  0.19502000  0.52738000  0.19502000  1.0 -0.1091614667
C  C4  1  0.80498000  0.47262000  0.80498000  1.0 -0.1091614667
C  C5  1  0.80498000  0.80498000  0.47262000  1.0 -0.1091614667
C  C6  1  0.47262000  0.80498000  0.80498000  1.0 -0.1091614667
C  C7  1  0.52639000  0.10520000  0.23501000  1.0 -0.0205567183
C  C8  1  0.10520000  0.23501000  0.52639000  1.0 -0.0205567183
C  C9  1  0.23501000  0.52639000  0.10520000  1.0 -0.0205567183
C  C10  1  0.89480000  0.47361000  0.76499000  1.0 -0.0205567183
C  C11  1  0.76499000  0.89480000  0.47361000  1.0 -0.0205567183
C  C12  1  0.47361000  0.76499000  0.89480000  1.0 -0.0205567183
C  C13  1  0.47361000  0.89480000  0.76499000  1.0 -0.0205567183
C  C14  1  0.89480000  0.76499000  0.47361000  1.0 -0.0205567183
C  C15  1  0.76499000  0.47361000  0.89480000  1.0 -0.0205567183
C  C16  1  0.10520000  0.52639000  0.23501000  1.0 -0.0205567183
C  C17  1  0.23501000  0.10520000  0.52639000  1.0 -0.0205567183
C  C18  1  0.52639000  0.23501000  0.10520000  1.0 -0.0205567183
C  C19  1  0.52091000  0.06395000  0.33286000  1.0 0.5736980609
C  C20  1  0.06395000  0.33286000  0.52091000  1.0 0.5736980609
C  C21  1  0.33286000  0.52091000  0.06395000  1.0 0.5736980609
C  C22  1  0.93605000  0.47909000  0.66714000  1.0 0.5736980609
C  C23  1  0.66714000  0.93605000  0.47909000  1.0 0.5736980609
C  C24  1  0.47909000  0.66714000  0.93605000  1.0 0.5736980609
C  C25  1  0.47909000  0.93605000  0.66714000  1.0 0.5736980609
C  C26  1  0.93605000  0.66714000  0.47909000  1.0 0.5736980609
C  C27  1  0.66714000  0.47909000  0.93605000  1.0 0.5736980609
C  C28  1  0.06395000  0.52091000  0.33286000  1.0 0.5736980609
C  C29  1  0.33286000  0.06395000  0.52091000  1.0 0.5736980609
C  C30  1  0.52091000  0.33286000  0.06395000  1.0 0.5736980609
C  C31  1  0.52434000  0.05580000  0.18503000  1.0 -0.164042262
C  C32  1  0.05580000  0.18503000  0.52434000  1.0 -0.1657838055
C  C33  1  0.18503000  0.52434000  0.05580000  1.0 -0.164042262
C  C34  1  0.94420000  0.47566000  0.81497000  1.0 -0.164042262
C  C35  1  0.81497000  0.94420000  0.47566000  1.0 -0.1657838055
C  C36  1  0.47566000  0.81497000  0.94420000  1.0 -0.1657838055
C  C37  1  0.47566000  0.94420000  0.81497000  1.0 -0.1657838055
C  C38  1  0.94420000  0.81497000  0.47566000  1.0 -0.1657838055
C  C39  1  0.81497000  0.47566000  0.94420000  1.0 -0.164042262
C  C40  1  0.05580000  0.52434000  0.18503000  1.0 -0.164042262
C  C41  1  0.18503000  0.05580000  0.52434000  1.0 -0.1657838055
C  C42  1  0.52434000  0.18503000  0.05580000  1.0 -0.164042262
C  C43  1  0.52456000  0.09581000  0.09581000  1.0 0.0166049091
C  C44  1  0.09581000  0.09581000  0.52456000  1.0 0.0166049091
C  C45  1  0.09581000  0.52456000  0.09581000  1.0 0.0166049091
C  C46  1  0.90419000  0.47544000  0.90419000  1.0 0.0166049091
C  C47  1  0.90419000  0.90419000  0.47544000  1.0 0.0166049091
C  C48  1  0.47544000  0.90419000  0.90419000  1.0 0.0166049091
C  C49  1  0.43090000  0.05090000  0.05090000  1.0 -0.1911964991
C  C50  1  0.05090000  0.05090000  0.43090000  1.0 -0.1911964991
C  C51  1  0.05090000  0.43090000  0.05090000  1.0 -0.1911964991
C  C52  1  0.94910000  0.56910000  0.94910000  1.0 -0.1911964991
C  C53  1  0.94910000  0.94910000  0.56910000  1.0 -0.1911964991
C  C54  1  0.56910000  0.94910000  0.94910000  1.0 -0.1911964991
C  C55  1  0.51521000  0.04524000  0.04524000  1.0 0.0359517963
C  C56  1  0.04524000  0.04524000  0.51521000  1.0 0.0346842654
C  C57  1  0.04524000  0.51521000  0.04524000  1.0 0.0359517963
C  C58  1  0.95476000  0.48479000  0.95476000  1.0 0.0359517963
C  C59  1  0.95476000  0.95476000  0.48479000  1.0 0.0359517963
C  C60  1  0.48479000  0.95476000  0.95476000  1.0 0.0346842654
C  C61  1  0.58591000  0.99381000  0.99381000  1.0 -0.131965907
C  C62  1  0.99381000  0.99381000  0.58591000  1.0 -0.131965907
C  C63  1  0.99381000  0.58591000  0.99381000  1.0 -0.131965907
C  C64  1  0.00619000  0.41409000  0.00619000  1.0 -0.131965907
C  C65  1  0.00619000  0.00619000  0.41409000  1.0 -0.131965907
C  C66  1  0.41409000  0.00619000  0.00619000  1.0 -0.131965907
C  C67  1  0.67950000  0.98750000  0.98750000  1.0 0.3797412139
C  C68  1  0.98750000  0.98750000  0.67950000  1.0 0.3868226133
C  C69  1  0.98750000  0.67950000  0.98750000  1.0 0.3797412139
C  C70  1  0.01250000  0.32050000  0.01250000  1.0 0.3868226133
C  C71  1  0.01250000  0.01250000  0.32050000  1.0 0.3868226133
C  C72  1  0.32050000  0.01250000  0.01250000  1.0 0.3868226133
C  C73  1  0.68620000  0.97320000  0.97320000  1.0 0.3797412139
C  C74  1  0.97320000  0.97320000  0.68620000  1.0 0.3797412139
C  C75  1  0.97320000  0.68620000  0.97320000  1.0 0.3797412139
C  C76  1  0.02680000  0.31380000  0.02680000  1.0 0.3797412139
C  C77  1  0.02680000  0.02680000  0.31380000  1.0 0.3735431753
C  C78  1  0.31380000  0.02680000  0.02680000  1.0 0.3735431753
O  O1  1  0.51474000  0.98470000  0.36692000  1.0 -0.5304518395
O  O2  1  0.98470000  0.36692000  0.51474000  1.0 -0.5304518395
O  O3  1  0.36692000  0.51474000  0.98470000  1.0 -0.5304518395
O  O4  1  0.01530000  0.48526000  0.63308000  1.0 -0.5304518395
O  O5  1  0.63308000  0.01530000  0.48526000  1.0 -0.5304518395
O  O6  1  0.48526000  0.63308000  0.01530000  1.0 -0.5304518395
O  O7  1  0.48526000  0.01530000  0.63308000  1.0 -0.5304518395
O  O8  1  0.01530000  0.63308000  0.48526000  1.0 -0.5304518395
O  O9  1  0.63308000  0.48526000  0.01530000  1.0 -0.5304518395
O  O10  1  0.98470000  0.51474000  0.36692000  1.0 -0.5304518395
O  O11  1  0.36692000  0.98470000  0.51474000  1.0 -0.5304518395
O  O12  1  0.51474000  0.36692000  0.98470000  1.0 -0.5304518395
O  O13  1  0.52118000  0.11247000  0.37341000  1.0 -0.5304518395
O  O14  1  0.11247000  0.37341000  0.52118000  1.0 -0.5304518395
O  O15  1  0.37341000  0.52118000  0.11247000  1.0 -0.5304518395
O  O16  1  0.88753000  0.47882000  0.62659000  1.0 -0.5304518395
O  O17  1  0.62659000  0.88753000  0.47882000  1.0 -0.5304518395
O  O18  1  0.47882000  0.62659000  0.88753000  1.0 -0.5304518395
O  O19  1  0.47882000  0.88753000  0.62659000  1.0 -0.5304518395
O  O20  1  0.88753000  0.62659000  0.47882000  1.0 -0.5304518395
O  O21  1  0.62659000  0.47882000  0.88753000  1.0 -0.5304518395
O  O22  1  0.11247000  0.52118000  0.37341000  1.0 -0.5304518395
O  O23  1  0.37341000  0.11247000  0.52118000  1.0 -0.5304518395
O  O24  1  0.52118000  0.37341000  0.11247000  1.0 -0.5304518395
F  F1  1  0.74210000  0.93280000  0.93280000  1.0 0.0501842682
F  F2  1  0.93280000  0.93280000  0.74210000  1.0 0.0501842682
F  F3  1  0.93280000  0.74210000  0.93280000  1.0 0.0501842682
F  F4  1  0.06720000  0.25790000  0.06720000  1.0 0.0501842682
F  F5  1  0.06720000  0.06720000  0.25790000  1.0 0.0501842682
F  F6  1  0.25790000  0.06720000  0.06720000  1.0 0.0501842682
F  F7  1  0.69510000  0.06940000  0.94970000  1.0 -0.0900816598
F  F8  1  0.06940000  0.94970000  0.69510000  1.0 -0.0900816598
F  F9  1  0.94970000  0.69510000  0.06940000  1.0 -0.0900816598
F  F10  1  0.93060000  0.30490000  0.05030000  1.0 -0.0900816598
F  F11  1  0.05030000  0.93060000  0.30490000  1.0 -0.0900816598
F  F12  1  0.30490000  0.05030000  0.93060000  1.0 -0.0900816598
F  F13  1  0.30490000  0.93060000  0.05030000  1.0 -0.0900816598
F  F14  1  0.93060000  0.05030000  0.30490000  1.0 -0.0900816598
F  F15  1  0.05030000  0.30490000  0.93060000  1.0 -0.0900816598
F  F16  1  0.06940000  0.69510000  0.94970000  1.0 -0.0900816598
F  F17  1  0.94970000  0.06940000  0.69510000  1.0 -0.0900816598
F  F18  1  0.69510000  0.94970000  0.06940000  1.0 -0.0900816598
F  F19  1  0.70640000  0.01500000  0.01500000  1.0 0.0166049091
F  F20  1  0.01500000  0.01500000  0.70640000  1.0 0.0166049091
F  F21  1  0.01500000  0.70640000  0.01500000  1.0 0.0133345782
F  F22  1  0.98500000  0.29360000  0.98500000  1.0 0.0133345782
F  F23  1  0.98500000  0.98500000  0.29360000  1.0 0.0133345782
F  F24  1  0.29360000  0.98500000  0.98500000  1.0 0.0133345782
F  F25  1  0.72990000  0.99810000  0.88120000  1.0 -0.0768498245
F  F26  1  0.99810000  0.88120000  0.72990000  1.0 -0.0747221053
F  F27  1  0.88120000  0.72990000  0.99810000  1.0 -0.0768498245
F  F28  1  0.00190000  0.27010000  0.11880000  1.0 -0.0768498245
F  F29  1  0.11880000  0.00190000  0.27010000  1.0 -0.0768498245
F  F30  1  0.27010000  0.11880000  0.00190000  1.0 -0.0768498245
F  F31  1  0.27010000  0.00190000  0.11880000  1.0 -0.0768498245
F  F32  1  0.00190000  0.11880000  0.27010000  1.0 -0.0768498245
F  F33  1  0.11880000  0.27010000  0.00190000  1.0 -0.0768498245
F  F34  1  0.99810000  0.72990000  0.88120000  1.0 -0.0768498245
F  F35  1  0.88120000  0.99810000  0.72990000  1.0 -0.0768498245
F  F36  1  0.72990000  0.88120000  0.99810000  1.0 -0.0768498245
