# DDEC6 charges by PACMAN v1.1 (https://github.com/mtap-research/PACMAN-charge/)
data_PURRIE_ASR_pacman
_symmetry_space_group_name_H-M   'P 1'
_cell_length_a   18.70770000
_cell_length_b   21.52640000
_cell_length_c   24.81140000
_cell_angle_alpha   90.00000000
_cell_angle_beta   90.00000000
_cell_angle_gamma   90.00000000
_symmetry_Int_Tables_number   1
_chemical_formula_structural   Zn2H47C50(NO)8
_chemical_formula_sum   'Zn16 H376 C400 N64 O64'
_cell_volume   9991.78483288
_cell_formula_units_Z   8
loop_
 _symmetry_equiv_pos_site_id
 _symmetry_equiv_pos_as_xyz
  1  'x, y, z'
loop_
 _atom_site_type_symbol
 _atom_site_label
 _atom_site_symmetry_multiplicity
 _atom_site_fract_x
 _atom_site_fract_y
 _atom_site_fract_z
 _atom_site_occupancy
 _atom_site_charge
Zn  Zn1  1  0.72819000  0.15602000  0.75000000  1.0 0.7614705378
Zn  Zn2  1  0.77181000  0.65602000  0.25000000  1.0 0.7614705378
Zn  Zn3  1  0.27181000  0.84398000  0.25000000  1.0 0.7614705378
Zn  Zn4  1  0.22819000  0.34398000  0.75000000  1.0 0.7614705378
Zn  Zn5  1  0.22939000  0.97055000  0.75000000  1.0 0.775865894
Zn  Zn6  1  0.27061000  0.47055000  0.25000000  1.0 0.775865894
Zn  Zn7  1  0.77061000  0.02945000  0.25000000  1.0 0.775865894
Zn  Zn8  1  0.72939000  0.52945000  0.75000000  1.0 0.775865894
Zn  Zn9  1  0.23872000  0.14411000  0.03558000  1.0 0.7697793061
Zn  Zn10  1  0.26128000  0.64411000  0.96442000  1.0 0.7697793061
Zn  Zn11  1  0.76128000  0.85589000  0.53558000  1.0 0.7697793061
Zn  Zn12  1  0.73872000  0.35589000  0.46442000  1.0 0.7697793061
Zn  Zn13  1  0.76128000  0.85589000  0.96442000  1.0 0.7697793061
Zn  Zn14  1  0.73872000  0.35589000  0.03558000  1.0 0.7697793061
Zn  Zn15  1  0.23872000  0.14411000  0.46442000  1.0 0.7697793061
Zn  Zn16  1  0.26128000  0.64411000  0.53558000  1.0 0.7697793061
H  H1  1  0.84460000  0.19030000  0.97750000  1.0 0.1203885589
H  H2  1  0.65540000  0.69030000  0.02250000  1.0 0.1203885589
H  H3  1  0.15540000  0.80970000  0.47750000  1.0 0.1203885589
H  H4  1  0.34460000  0.30970000  0.52250000  1.0 0.1203885589
H  H5  1  0.15540000  0.80970000  0.02250000  1.0 0.1203885589
H  H6  1  0.34460000  0.30970000  0.97750000  1.0 0.1203885589
H  H7  1  0.84460000  0.19030000  0.52250000  1.0 0.1203885589
H  H8  1  0.65540000  0.69030000  0.47750000  1.0 0.1203885589
H  H9  1  0.89280000  0.23110000  0.93980000  1.0 0.1203885589
H  H10  1  0.60720000  0.73110000  0.06020000  1.0 0.1203885589
H  H11  1  0.10720000  0.76890000  0.43980000  1.0 0.1203885589
H  H12  1  0.39280000  0.26890000  0.56020000  1.0 0.1203885589
H  H13  1  0.10720000  0.76890000  0.06020000  1.0 0.1203885589
H  H14  1  0.39280000  0.26890000  0.93980000  1.0 0.1203885589
H  H15  1  0.89280000  0.23110000  0.56020000  1.0 0.1203885589
H  H16  1  0.60720000  0.73110000  0.43980000  1.0 0.1203885589
H  H17  1  0.92580000  0.99120000  0.95540000  1.0 0.1320556821
H  H18  1  0.57420000  0.49120000  0.04460000  1.0 0.1320556821
H  H19  1  0.07420000  0.00880000  0.45540000  1.0 0.1320556821
H  H20  1  0.42580000  0.50880000  0.54460000  1.0 0.1320556821
H  H21  1  0.07420000  0.00880000  0.04460000  1.0 0.1320556821
H  H22  1  0.42580000  0.50880000  0.95540000  1.0 0.1320556821
H  H23  1  0.92580000  0.99120000  0.54460000  1.0 0.1320556821
H  H24  1  0.57420000  0.49120000  0.45540000  1.0 0.1320556821
H  H25  1  0.08850000  0.06400000  0.83230000  1.0 0.1203885589
H  H26  1  0.41150000  0.56400000  0.16770000  1.0 0.1203885589
H  H27  1  0.91150000  0.93600000  0.33230000  1.0 0.1203885589
H  H28  1  0.58850000  0.43600000  0.66770000  1.0 0.1203885589
H  H29  1  0.91150000  0.93600000  0.16770000  1.0 0.1203885589
H  H30  1  0.58850000  0.43600000  0.83230000  1.0 0.1203885589
H  H31  1  0.08850000  0.06400000  0.66770000  1.0 0.1203885589
H  H32  1  0.41150000  0.56400000  0.33230000  1.0 0.1203885589
H  H33  1  0.08030000  0.13660000  0.83280000  1.0 0.1203885589
H  H34  1  0.41970000  0.63660000  0.16720000  1.0 0.1203885589
H  H35  1  0.91970000  0.86340000  0.33280000  1.0 0.1203885589
H  H36  1  0.58030000  0.36340000  0.66720000  1.0 0.1203885589
H  H37  1  0.91970000  0.86340000  0.16720000  1.0 0.1203885589
H  H38  1  0.58030000  0.36340000  0.83280000  1.0 0.1203885589
H  H39  1  0.08030000  0.13660000  0.66720000  1.0 0.1203885589
H  H40  1  0.41970000  0.63660000  0.33280000  1.0 0.1203885589
H  H41  1  0.72140000  0.23680000  0.94050000  1.0 0.1399775488
H  H42  1  0.77860000  0.73680000  0.05950000  1.0 0.1399775488
H  H43  1  0.27860000  0.76320000  0.44050000  1.0 0.1399775488
H  H44  1  0.22140000  0.26320000  0.55950000  1.0 0.1399775488
H  H45  1  0.27860000  0.76320000  0.05950000  1.0 0.1399775488
H  H46  1  0.22140000  0.26320000  0.94050000  1.0 0.1399775488
H  H47  1  0.72140000  0.23680000  0.55950000  1.0 0.1399775488
H  H48  1  0.77860000  0.73680000  0.44050000  1.0 0.1399775488
H  H49  1  0.65980000  0.22810000  0.85430000  1.0 0.1399775488
H  H50  1  0.84020000  0.72810000  0.14570000  1.0 0.1399775488
H  H51  1  0.34020000  0.77190000  0.35430000  1.0 0.1399775488
H  H52  1  0.15980000  0.27190000  0.64570000  1.0 0.1399775488
H  H53  1  0.34020000  0.77190000  0.14570000  1.0 0.1399775488
H  H54  1  0.15980000  0.27190000  0.85430000  1.0 0.1399775488
H  H55  1  0.65980000  0.22810000  0.64570000  1.0 0.1399775488
H  H56  1  0.84020000  0.72810000  0.35430000  1.0 0.1399775488
H  H57  1  0.11240000  0.12310000  0.96320000  1.0 0.1203885589
H  H58  1  0.38760000  0.62310000  0.03680000  1.0 0.1203885589
H  H59  1  0.88760000  0.87690000  0.46320000  1.0 0.1203885589
H  H60  1  0.61240000  0.37690000  0.53680000  1.0 0.1203885589
H  H61  1  0.88760000  0.87690000  0.03680000  1.0 0.1203885589
H  H62  1  0.61240000  0.37690000  0.96320000  1.0 0.1203885589
H  H63  1  0.11240000  0.12310000  0.53680000  1.0 0.1203885589
H  H64  1  0.38760000  0.62310000  0.46320000  1.0 0.1203885589
H  H65  1  0.23530000  0.09180000  0.83730000  1.0 0.1399775488
H  H66  1  0.26470000  0.59180000  0.16270000  1.0 0.1399775488
H  H67  1  0.76470000  0.90820000  0.33730000  1.0 0.1399775488
H  H68  1  0.73530000  0.40820000  0.66270000  1.0 0.1399775488
H  H69  1  0.76470000  0.90820000  0.16270000  1.0 0.1399775488
H  H70  1  0.73530000  0.40820000  0.83730000  1.0 0.1399775488
H  H71  1  0.23530000  0.09180000  0.66270000  1.0 0.1399775488
H  H72  1  0.26470000  0.59180000  0.33730000  1.0 0.1399775488
H  H73  1  0.31110000  0.11080000  0.91520000  1.0 0.1399775488
H  H74  1  0.18890000  0.61080000  0.08480000  1.0 0.1399775488
H  H75  1  0.68890000  0.88920000  0.41520000  1.0 0.1399775488
H  H76  1  0.81110000  0.38920000  0.58480000  1.0 0.1399775488
H  H77  1  0.68890000  0.88920000  0.08480000  1.0 0.1399775488
H  H78  1  0.81110000  0.38920000  0.91520000  1.0 0.1399775488
H  H79  1  0.31110000  0.11080000  0.58480000  1.0 0.1399775488
H  H80  1  0.18890000  0.61080000  0.41520000  1.0 0.1399775488
H  H81  1  0.62420000  0.91980000  0.58340000  1.0 0.1203885589
H  H82  1  0.87580000  0.41980000  0.41660000  1.0 0.1203885589
H  H83  1  0.37580000  0.08020000  0.08340000  1.0 0.1203885589
H  H84  1  0.12420000  0.58020000  0.91660000  1.0 0.1203885589
H  H85  1  0.37580000  0.08020000  0.41660000  1.0 0.1203885589
H  H86  1  0.12420000  0.58020000  0.58340000  1.0 0.1203885589
H  H87  1  0.62420000  0.91980000  0.91660000  1.0 0.1203885589
H  H88  1  0.87580000  0.41980000  0.08340000  1.0 0.1203885589
H  H89  1  0.74430000  0.02470000  0.67610000  1.0 0.1399775488
H  H90  1  0.75570000  0.52470000  0.32390000  1.0 0.1399775488
H  H91  1  0.25570000  0.97530000  0.17610000  1.0 0.1399775488
H  H92  1  0.24430000  0.47530000  0.82390000  1.0 0.1399775488
H  H93  1  0.25570000  0.97530000  0.32390000  1.0 0.1399775488
H  H94  1  0.24430000  0.47530000  0.67610000  1.0 0.1399775488
H  H95  1  0.74430000  0.02470000  0.82390000  1.0 0.1399775488
H  H96  1  0.75570000  0.52470000  0.17610000  1.0 0.1399775488
H  H97  1  0.82130000  0.96110000  0.61930000  1.0 0.1320556821
H  H98  1  0.67870000  0.46110000  0.38070000  1.0 0.1320556821
H  H99  1  0.17870000  0.03890000  0.11930000  1.0 0.1320556821
H  H100  1  0.32130000  0.53890000  0.88070000  1.0 0.1320556821
H  H101  1  0.17870000  0.03890000  0.38070000  1.0 0.1320556821
H  H102  1  0.32130000  0.53890000  0.61930000  1.0 0.1320556821
H  H103  1  0.82130000  0.96110000  0.88070000  1.0 0.1320556821
H  H104  1  0.67870000  0.46110000  0.11930000  1.0 0.1320556821
H  H105  1  0.60110000  0.04510000  0.67600000  1.0 0.1203885589
H  H106  1  0.89890000  0.54510000  0.32400000  1.0 0.1203885589
H  H107  1  0.39890000  0.95490000  0.17600000  1.0 0.1203885589
H  H108  1  0.10110000  0.45490000  0.82400000  1.0 0.1203885589
H  H109  1  0.39890000  0.95490000  0.32400000  1.0 0.1203885589
H  H110  1  0.10110000  0.45490000  0.67600000  1.0 0.1203885589
H  H111  1  0.60110000  0.04510000  0.82400000  1.0 0.1203885589
H  H112  1  0.89890000  0.54510000  0.17600000  1.0 0.1203885589
H  H113  1  0.58750000  0.97760000  0.69770000  1.0 0.1203885589
H  H114  1  0.91250000  0.47760000  0.30230000  1.0 0.1203885589
H  H115  1  0.41250000  0.02240000  0.19770000  1.0 0.1203885589
H  H116  1  0.08750000  0.52240000  0.80230000  1.0 0.1203885589
H  H117  1  0.41250000  0.02240000  0.30230000  1.0 0.1203885589
H  H118  1  0.08750000  0.52240000  0.69770000  1.0 0.1203885589
H  H119  1  0.58750000  0.97760000  0.80230000  1.0 0.1203885589
H  H120  1  0.91250000  0.47760000  0.19770000  1.0 0.1203885589
H  H121  1  0.17350000  0.86730000  0.66060000  1.0 0.1203885589
H  H122  1  0.32650000  0.36730000  0.33940000  1.0 0.1203885589
H  H123  1  0.82650000  0.13270000  0.16060000  1.0 0.1203885589
H  H124  1  0.67350000  0.63270000  0.83940000  1.0 0.1203885589
H  H125  1  0.82650000  0.13270000  0.33940000  1.0 0.1203885589
H  H126  1  0.67350000  0.63270000  0.66060000  1.0 0.1203885589
H  H127  1  0.17350000  0.86730000  0.83940000  1.0 0.1203885589
H  H128  1  0.32650000  0.36730000  0.16060000  1.0 0.1203885589
H  H129  1  0.37950000  0.86630000  0.55260000  1.0 0.1203885589
H  H130  1  0.12050000  0.36630000  0.44740000  1.0 0.1203885589
H  H131  1  0.62050000  0.13370000  0.05260000  1.0 0.1203885589
H  H132  1  0.87950000  0.63370000  0.94740000  1.0 0.1203885589
H  H133  1  0.62050000  0.13370000  0.44740000  1.0 0.1203885589
H  H134  1  0.87950000  0.63370000  0.55260000  1.0 0.1203885589
H  H135  1  0.37950000  0.86630000  0.94740000  1.0 0.1203885589
H  H136  1  0.12050000  0.36630000  0.05260000  1.0 0.1203885589
H  H137  1  0.41940000  0.84220000  0.60430000  1.0 0.1203885589
H  H138  1  0.08060000  0.34220000  0.39570000  1.0 0.1203885589
H  H139  1  0.58060000  0.15780000  0.10430000  1.0 0.1203885589
H  H140  1  0.91940000  0.65780000  0.89570000  1.0 0.1203885589
H  H141  1  0.58060000  0.15780000  0.39570000  1.0 0.1203885589
H  H142  1  0.91940000  0.65780000  0.60430000  1.0 0.1203885589
H  H143  1  0.41940000  0.84220000  0.89570000  1.0 0.1203885589
H  H144  1  0.08060000  0.34220000  0.10430000  1.0 0.1203885589
H  H145  1  0.44520000  0.32030000  0.17920000  1.0 0.1203885589
H  H146  1  0.05480000  0.82030000  0.82080000  1.0 0.1203885589
H  H147  1  0.55480000  0.67970000  0.67920000  1.0 0.1203885589
H  H148  1  0.94520000  0.17970000  0.32080000  1.0 0.1203885589
H  H149  1  0.55480000  0.67970000  0.82080000  1.0 0.1203885589
H  H150  1  0.94520000  0.17970000  0.17920000  1.0 0.1203885589
H  H151  1  0.44520000  0.32030000  0.32080000  1.0 0.1203885589
H  H152  1  0.05480000  0.82030000  0.67920000  1.0 0.1203885589
H  H153  1  0.04300000  0.20560000  0.86260000  1.0 0.1320556821
H  H154  1  0.45700000  0.70560000  0.13740000  1.0 0.1320556821
H  H155  1  0.95700000  0.79440000  0.36260000  1.0 0.1320556821
H  H156  1  0.54300000  0.29440000  0.63740000  1.0 0.1320556821
H  H157  1  0.95700000  0.79440000  0.13740000  1.0 0.1320556821
H  H158  1  0.54300000  0.29440000  0.86260000  1.0 0.1320556821
H  H159  1  0.04300000  0.20560000  0.63740000  1.0 0.1320556821
H  H160  1  0.45700000  0.70560000  0.36260000  1.0 0.1320556821
H  H161  1  0.00620000  0.23600000  0.91290000  1.0 0.1399775488
H  H162  1  0.49380000  0.73600000  0.08710000  1.0 0.1399775488
H  H163  1  0.99380000  0.76400000  0.41290000  1.0 0.1399775488
H  H164  1  0.50620000  0.26400000  0.58710000  1.0 0.1399775488
H  H165  1  0.99380000  0.76400000  0.08710000  1.0 0.1399775488
H  H166  1  0.50620000  0.26400000  0.91290000  1.0 0.1399775488
H  H167  1  0.00620000  0.23600000  0.58710000  1.0 0.1399775488
H  H168  1  0.49380000  0.73600000  0.41290000  1.0 0.1399775488
H  H169  1  0.96280000  0.22630000  0.85950000  1.0 0.1399775488
H  H170  1  0.53720000  0.72630000  0.14050000  1.0 0.1399775488
H  H171  1  0.03720000  0.77370000  0.35950000  1.0 0.1399775488
H  H172  1  0.46280000  0.27370000  0.64050000  1.0 0.1399775488
H  H173  1  0.03720000  0.77370000  0.14050000  1.0 0.1399775488
H  H174  1  0.46280000  0.27370000  0.85950000  1.0 0.1399775488
H  H175  1  0.96280000  0.22630000  0.64050000  1.0 0.1399775488
H  H176  1  0.53720000  0.72630000  0.35950000  1.0 0.1399775488
H  H177  1  0.08500000  0.98740000  0.87870000  1.0 0.1320556821
H  H178  1  0.41500000  0.48740000  0.12130000  1.0 0.1320556821
H  H179  1  0.91500000  0.01260000  0.37870000  1.0 0.1320556821
H  H180  1  0.58500000  0.51260000  0.62130000  1.0 0.1320556821
H  H181  1  0.91500000  0.01260000  0.12130000  1.0 0.1320556821
H  H182  1  0.58500000  0.51260000  0.87870000  1.0 0.1320556821
H  H183  1  0.08500000  0.98740000  0.62130000  1.0 0.1320556821
H  H184  1  0.41500000  0.48740000  0.37870000  1.0 0.1320556821
H  H185  1  0.01600000  0.94640000  0.88270000  1.0 0.1399775488
H  H186  1  0.48400000  0.44640000  0.11730000  1.0 0.1399775488
H  H187  1  0.98400000  0.05360000  0.38270000  1.0 0.1399775488
H  H188  1  0.51600000  0.55360000  0.61730000  1.0 0.1399775488
H  H189  1  0.98400000  0.05360000  0.11730000  1.0 0.1399775488
H  H190  1  0.51600000  0.55360000  0.88270000  1.0 0.1399775488
H  H191  1  0.01600000  0.94640000  0.61730000  1.0 0.1399775488
H  H192  1  0.48400000  0.44640000  0.38270000  1.0 0.1399775488
H  H193  1  0.06080000  0.96080000  0.93460000  1.0 0.1399775488
H  H194  1  0.43920000  0.46080000  0.06540000  1.0 0.1399775488
H  H195  1  0.93920000  0.03920000  0.43460000  1.0 0.1399775488
H  H196  1  0.56080000  0.53920000  0.56540000  1.0 0.1399775488
H  H197  1  0.93920000  0.03920000  0.06540000  1.0 0.1399775488
H  H198  1  0.56080000  0.53920000  0.93460000  1.0 0.1399775488
H  H199  1  0.06080000  0.96080000  0.56540000  1.0 0.1399775488
H  H200  1  0.43920000  0.46080000  0.43460000  1.0 0.1399775488
H  H201  1  0.80110000  0.10900000  0.98660000  1.0 0.1320556821
H  H202  1  0.69890000  0.60900000  0.01340000  1.0 0.1320556821
H  H203  1  0.19890000  0.89100000  0.48660000  1.0 0.1320556821
H  H204  1  0.30110000  0.39100000  0.51340000  1.0 0.1320556821
H  H205  1  0.19890000  0.89100000  0.01340000  1.0 0.1320556821
H  H206  1  0.30110000  0.39100000  0.98660000  1.0 0.1320556821
H  H207  1  0.80110000  0.10900000  0.51340000  1.0 0.1320556821
H  H208  1  0.69890000  0.60900000  0.48660000  1.0 0.1320556821
H  H209  1  0.83750000  0.05450000  0.01820000  1.0 0.1399775488
H  H210  1  0.66250000  0.55450000  0.98180000  1.0 0.1399775488
H  H211  1  0.16250000  0.94550000  0.51820000  1.0 0.1399775488
H  H212  1  0.33750000  0.44550000  0.48180000  1.0 0.1399775488
H  H213  1  0.16250000  0.94550000  0.98180000  1.0 0.1399775488
H  H214  1  0.33750000  0.44550000  0.01820000  1.0 0.1399775488
H  H215  1  0.83750000  0.05450000  0.48180000  1.0 0.1399775488
H  H216  1  0.66250000  0.55450000  0.51820000  1.0 0.1399775488
H  H217  1  0.79650000  0.04100000  0.96440000  1.0 0.1399775488
H  H218  1  0.70350000  0.54100000  0.03560000  1.0 0.1399775488
H  H219  1  0.20350000  0.95900000  0.46440000  1.0 0.1399775488
H  H220  1  0.29650000  0.45900000  0.53560000  1.0 0.1399775488
H  H221  1  0.20350000  0.95900000  0.03560000  1.0 0.1399775488
H  H222  1  0.29650000  0.45900000  0.96440000  1.0 0.1399775488
H  H223  1  0.79650000  0.04100000  0.53560000  1.0 0.1399775488
H  H224  1  0.70350000  0.54100000  0.46440000  1.0 0.1399775488
H  H225  1  0.59010000  0.10480000  0.62300000  1.0 0.1203885589
H  H226  1  0.90990000  0.60480000  0.37700000  1.0 0.1203885589
H  H227  1  0.40990000  0.89520000  0.12300000  1.0 0.1203885589
H  H228  1  0.09010000  0.39520000  0.87700000  1.0 0.1203885589
H  H229  1  0.40990000  0.89520000  0.37700000  1.0 0.1203885589
H  H230  1  0.09010000  0.39520000  0.62300000  1.0 0.1203885589
H  H231  1  0.59010000  0.10480000  0.87700000  1.0 0.1203885589
H  H232  1  0.90990000  0.60480000  0.12300000  1.0 0.1203885589
H  H233  1  0.51970000  0.13980000  0.60720000  1.0 0.1468609959
H  H234  1  0.98030000  0.63980000  0.39280000  1.0 0.1468609959
H  H235  1  0.48030000  0.86020000  0.10720000  1.0 0.1468609959
H  H236  1  0.01970000  0.36020000  0.89280000  1.0 0.1468609959
H  H237  1  0.48030000  0.86020000  0.39280000  1.0 0.1468609959
H  H238  1  0.01970000  0.36020000  0.60720000  1.0 0.1468609959
H  H239  1  0.51970000  0.13980000  0.89280000  1.0 0.1468609959
H  H240  1  0.98030000  0.63980000  0.10720000  1.0 0.1468609959
H  H241  1  0.57210000  0.11660000  0.56210000  1.0 0.1399775488
H  H242  1  0.92790000  0.61660000  0.43790000  1.0 0.1399775488
H  H243  1  0.42790000  0.88340000  0.06210000  1.0 0.1399775488
H  H244  1  0.07210000  0.38340000  0.93790000  1.0 0.1399775488
H  H245  1  0.42790000  0.88340000  0.43790000  1.0 0.1399775488
H  H246  1  0.07210000  0.38340000  0.56210000  1.0 0.1399775488
H  H247  1  0.57210000  0.11660000  0.93790000  1.0 0.1399775488
H  H248  1  0.92790000  0.61660000  0.06210000  1.0 0.1399775488
H  H249  1  0.55010000  0.90030000  0.68800000  1.0 0.1320556821
H  H250  1  0.94990000  0.40030000  0.31200000  1.0 0.1320556821
H  H251  1  0.44990000  0.09970000  0.18800000  1.0 0.1320556821
H  H252  1  0.05010000  0.59970000  0.81200000  1.0 0.1320556821
H  H253  1  0.44990000  0.09970000  0.31200000  1.0 0.1320556821
H  H254  1  0.05010000  0.59970000  0.68800000  1.0 0.1320556821
H  H255  1  0.55010000  0.90030000  0.81200000  1.0 0.1320556821
H  H256  1  0.94990000  0.40030000  0.18800000  1.0 0.1320556821
H  H257  1  0.52210000  0.85190000  0.64580000  1.0 0.1320556821
H  H258  1  0.97790000  0.35190000  0.35420000  1.0 0.1320556821
H  H259  1  0.47790000  0.14810000  0.14580000  1.0 0.1320556821
H  H260  1  0.02210000  0.64810000  0.85420000  1.0 0.1320556821
H  H261  1  0.47790000  0.14810000  0.35420000  1.0 0.1320556821
H  H262  1  0.02210000  0.64810000  0.64580000  1.0 0.1320556821
H  H263  1  0.52210000  0.85190000  0.85420000  1.0 0.1320556821
H  H264  1  0.97790000  0.35190000  0.14580000  1.0 0.1320556821
H  H265  1  0.46950000  0.88040000  0.68820000  1.0 0.1468609959
H  H266  1  0.03050000  0.38040000  0.31180000  1.0 0.1468609959
H  H267  1  0.53050000  0.11960000  0.18820000  1.0 0.1468609959
H  H268  1  0.96950000  0.61960000  0.81180000  1.0 0.1468609959
H  H269  1  0.53050000  0.11960000  0.31180000  1.0 0.1468609959
H  H270  1  0.96950000  0.61960000  0.68820000  1.0 0.1468609959
H  H271  1  0.46950000  0.88040000  0.81180000  1.0 0.1468609959
H  H272  1  0.03050000  0.38040000  0.18820000  1.0 0.1468609959
H  H273  1  0.35080000  0.01820000  0.50010000  1.0 0.1399775488
H  H274  1  0.14920000  0.51820000  0.49990000  1.0 0.1399775488
H  H275  1  0.64920000  0.98180000  0.00010000  1.0 0.1399775488
H  H276  1  0.85080000  0.48180000  0.99990000  1.0 0.1399775488
H  H277  1  0.64920000  0.98180000  0.49990000  1.0 0.1399775488
H  H278  1  0.85080000  0.48180000  0.50010000  1.0 0.1399775488
H  H279  1  0.35080000  0.01820000  0.99990000  1.0 0.1399775488
H  H280  1  0.14920000  0.51820000  0.00010000  1.0 0.1399775488
H  H281  1  0.31290000  0.97250000  0.54010000  1.0 0.1320556821
H  H282  1  0.18710000  0.47250000  0.45990000  1.0 0.1320556821
H  H283  1  0.68710000  0.02750000  0.04010000  1.0 0.1320556821
H  H284  1  0.81290000  0.52750000  0.95990000  1.0 0.1320556821
H  H285  1  0.68710000  0.02750000  0.45990000  1.0 0.1320556821
H  H286  1  0.81290000  0.52750000  0.54010000  1.0 0.1320556821
H  H287  1  0.31290000  0.97250000  0.95990000  1.0 0.1320556821
H  H288  1  0.18710000  0.47250000  0.04010000  1.0 0.1320556821
H  H289  1  0.36290000  0.94650000  0.49480000  1.0 0.1399775488
H  H290  1  0.13710000  0.44650000  0.50520000  1.0 0.1399775488
H  H291  1  0.63710000  0.05350000  0.99480000  1.0 0.1399775488
H  H292  1  0.86290000  0.55350000  0.00520000  1.0 0.1399775488
H  H293  1  0.63710000  0.05350000  0.50520000  1.0 0.1399775488
H  H294  1  0.86290000  0.55350000  0.49480000  1.0 0.1399775488
H  H295  1  0.36290000  0.94650000  0.00520000  1.0 0.1399775488
H  H296  1  0.13710000  0.44650000  0.99480000  1.0 0.1399775488
H  H297  1  0.31200000  0.15800000  0.75000000  1.0 0.1203885589
H  H298  1  0.18800000  0.65800000  0.25000000  1.0 0.1203885589
H  H299  1  0.68800000  0.84200000  0.25000000  1.0 0.1203885589
H  H300  1  0.81200000  0.34200000  0.75000000  1.0 0.1203885589
H  H301  1  0.36200000  0.95300000  0.67090000  1.0 0.1102897821
H  H302  1  0.13800000  0.45300000  0.32910000  1.0 0.1102897821
H  H303  1  0.63800000  0.04700000  0.17090000  1.0 0.1102897821
H  H304  1  0.86200000  0.54700000  0.82910000  1.0 0.1102897821
H  H305  1  0.63800000  0.04700000  0.32910000  1.0 0.1102897821
H  H306  1  0.86200000  0.54700000  0.67090000  1.0 0.1102897821
H  H307  1  0.36200000  0.95300000  0.82910000  1.0 0.1102897821
H  H308  1  0.13800000  0.45300000  0.17090000  1.0 0.1102897821
H  H309  1  0.88000000  0.87800000  0.75000000  1.0 0.1203885589
H  H310  1  0.62000000  0.37800000  0.25000000  1.0 0.1203885589
H  H311  1  0.12000000  0.12200000  0.25000000  1.0 0.1203885589
H  H312  1  0.38000000  0.62200000  0.75000000  1.0 0.1203885589
H  H313  1  0.99300000  0.86800000  0.75000000  1.0 0.1102897821
H  H314  1  0.50700000  0.36800000  0.25000000  1.0 0.1102897821
H  H315  1  0.00700000  0.13200000  0.25000000  1.0 0.1102897821
H  H316  1  0.49300000  0.63200000  0.75000000  1.0 0.1102897821
H  H317  1  0.81300000  0.96700000  0.75000000  1.0 0.1102897821
H  H318  1  0.68700000  0.46700000  0.25000000  1.0 0.1102897821
H  H319  1  0.18700000  0.03300000  0.25000000  1.0 0.1102897821
H  H320  1  0.31300000  0.53300000  0.75000000  1.0 0.1102897821
H  H321  1  0.49780000  0.22790000  0.01860000  1.0 0.1320556821
H  H322  1  0.00220000  0.72790000  0.98140000  1.0 0.1320556821
H  H323  1  0.50220000  0.77210000  0.51860000  1.0 0.1320556821
H  H324  1  0.99780000  0.27210000  0.48140000  1.0 0.1320556821
H  H325  1  0.50220000  0.77210000  0.98140000  1.0 0.1320556821
H  H326  1  0.99780000  0.27210000  0.01860000  1.0 0.1320556821
H  H327  1  0.49780000  0.22790000  0.48140000  1.0 0.1320556821
H  H328  1  0.00220000  0.72790000  0.51860000  1.0 0.1320556821
H  H329  1  0.00500000  0.05700000  0.75000000  1.0 0.1320556821
H  H330  1  0.49500000  0.55700000  0.25000000  1.0 0.1320556821
H  H331  1  0.99500000  0.94300000  0.25000000  1.0 0.1320556821
H  H332  1  0.50500000  0.44300000  0.75000000  1.0 0.1320556821
H  H333  1  0.36000000  0.26070000  0.13340000  1.0 0.1203885589
H  H334  1  0.14000000  0.76070000  0.86660000  1.0 0.1203885589
H  H335  1  0.64000000  0.73930000  0.63340000  1.0 0.1203885589
H  H336  1  0.86000000  0.23930000  0.36660000  1.0 0.1203885589
H  H337  1  0.64000000  0.73930000  0.86660000  1.0 0.1203885589
H  H338  1  0.86000000  0.23930000  0.13340000  1.0 0.1203885589
H  H339  1  0.36000000  0.26070000  0.36660000  1.0 0.1203885589
H  H340  1  0.14000000  0.76070000  0.63340000  1.0 0.1203885589
H  H341  1  0.55700000  0.33000000  0.14510000  1.0 0.1203885589
H  H342  1  0.94300000  0.83000000  0.85490000  1.0 0.1203885589
H  H343  1  0.44300000  0.67000000  0.64510000  1.0 0.1203885589
H  H344  1  0.05700000  0.17000000  0.35490000  1.0 0.1203885589
H  H345  1  0.44300000  0.67000000  0.85490000  1.0 0.1203885589
H  H346  1  0.05700000  0.17000000  0.14510000  1.0 0.1203885589
H  H347  1  0.55700000  0.33000000  0.35490000  1.0 0.1203885589
H  H348  1  0.94300000  0.83000000  0.64510000  1.0 0.1203885589
H  H349  1  0.36600000  0.25800000  0.75000000  1.0 0.0994767959
H  H350  1  0.13400000  0.75800000  0.25000000  1.0 0.0994767959
H  H351  1  0.63400000  0.74200000  0.25000000  1.0 0.0994767959
H  H352  1  0.86600000  0.24200000  0.75000000  1.0 0.0994767959
H  H353  1  0.26900000  0.82700000  0.59200000  1.0 0.1468609959
H  H354  1  0.23100000  0.32700000  0.40800000  1.0 0.1468609959
H  H355  1  0.73100000  0.17300000  0.09200000  1.0 0.1468609959
H  H356  1  0.76900000  0.67300000  0.90800000  1.0 0.1468609959
H  H357  1  0.73100000  0.17300000  0.40800000  1.0 0.1468609959
H  H358  1  0.76900000  0.67300000  0.59200000  1.0 0.1468609959
H  H359  1  0.26900000  0.82700000  0.90800000  1.0 0.1468609959
H  H360  1  0.23100000  0.32700000  0.09200000  1.0 0.1468609959
H  H361  1  0.49400000  0.07300000  0.75000000  1.0 0.1320556821
H  H362  1  0.00600000  0.57300000  0.25000000  1.0 0.1320556821
H  H363  1  0.50600000  0.92700000  0.25000000  1.0 0.1320556821
H  H364  1  0.99400000  0.42700000  0.75000000  1.0 0.1320556821
H  H365  1  0.49200000  0.26400000  0.75000000  1.0 0.1203885589
H  H366  1  0.00800000  0.76400000  0.25000000  1.0 0.1203885589
H  H367  1  0.50800000  0.73600000  0.25000000  1.0 0.1203885589
H  H368  1  0.99200000  0.23600000  0.75000000  1.0 0.1203885589
H  H369  1  0.84700000  0.16100000  0.83730000  1.0 0.1203885589
H  H370  1  0.65300000  0.66100000  0.16270000  1.0 0.1203885589
H  H371  1  0.15300000  0.83900000  0.33730000  1.0 0.1203885589
H  H372  1  0.34700000  0.33900000  0.66270000  1.0 0.1203885589
H  H373  1  0.15300000  0.83900000  0.16270000  1.0 0.1203885589
H  H374  1  0.34700000  0.33900000  0.83730000  1.0 0.1203885589
H  H375  1  0.84700000  0.16100000  0.66270000  1.0 0.1203885589
H  H376  1  0.65300000  0.66100000  0.33730000  1.0 0.1203885589
C  C1  1  0.09010000  0.95520000  0.75000000  1.0 0.5398483291
C  C2  1  0.40990000  0.45520000  0.25000000  1.0 0.5398483291
C  C3  1  0.90990000  0.04480000  0.25000000  1.0 0.5398483291
C  C4  1  0.59010000  0.54480000  0.75000000  1.0 0.5398483291
C  C5  1  0.01060000  0.96220000  0.75000000  1.0 -0.0219427231
C  C6  1  0.48940000  0.46220000  0.25000000  1.0 -0.0219427231
C  C7  1  0.98940000  0.03780000  0.25000000  1.0 -0.0219427231
C  C8  1  0.51060000  0.53780000  0.75000000  1.0 -0.0219427231
C  C9  1  0.96950000  0.90820000  0.75000000  1.0 -0.1323752885
C  C10  1  0.53050000  0.40820000  0.25000000  1.0 -0.1323752885
C  C11  1  0.03050000  0.09180000  0.25000000  1.0 -0.1323752885
C  C12  1  0.46950000  0.59180000  0.75000000  1.0 -0.1323752885
C  C13  1  0.89630000  0.91110000  0.75000000  1.0 -0.100701173
C  C14  1  0.60370000  0.41110000  0.25000000  1.0 -0.100701173
C  C15  1  0.10370000  0.08890000  0.25000000  1.0 -0.100701173
C  C16  1  0.39630000  0.58890000  0.75000000  1.0 -0.100701173
C  C17  1  0.86190000  0.96660000  0.75000000  1.0 -0.1120899903
C  C18  1  0.63810000  0.46660000  0.25000000  1.0 -0.1120899903
C  C19  1  0.13810000  0.03340000  0.25000000  1.0 -0.1120899903
C  C20  1  0.36190000  0.53340000  0.75000000  1.0 -0.1120899903
C  C21  1  0.90030000  0.02180000  0.75000000  1.0 -0.0296573169
C  C22  1  0.59970000  0.52180000  0.25000000  1.0 -0.0296573169
C  C23  1  0.09970000  0.97820000  0.25000000  1.0 -0.0296573169
C  C24  1  0.40030000  0.47820000  0.75000000  1.0 -0.0296573169
C  C25  1  0.97540000  0.01920000  0.75000000  1.0 -0.1120899903
C  C26  1  0.52460000  0.51920000  0.25000000  1.0 -0.1120899903
C  C27  1  0.02460000  0.98080000  0.25000000  1.0 -0.1120899903
C  C28  1  0.47540000  0.48080000  0.75000000  1.0 -0.1120899903
C  C29  1  0.86240000  0.08340000  0.75000000  1.0 0.5279454256
C  C30  1  0.63760000  0.58340000  0.25000000  1.0 0.5279454256
C  C31  1  0.13760000  0.91660000  0.25000000  1.0 0.5279454256
C  C32  1  0.36240000  0.41660000  0.75000000  1.0 0.5279454256
C  C33  1  0.36150000  0.04410000  0.75000000  1.0 0.5475105459
C  C34  1  0.13850000  0.54410000  0.25000000  1.0 0.5475105459
C  C35  1  0.63850000  0.95590000  0.25000000  1.0 0.5475105459
C  C36  1  0.86150000  0.45590000  0.75000000  1.0 0.5475105459
C  C37  1  0.39790000  0.10600000  0.75000000  1.0 -0.0378589516
C  C38  1  0.10210000  0.60600000  0.25000000  1.0 -0.0378589516
C  C39  1  0.60210000  0.89400000  0.25000000  1.0 -0.0378589516
C  C40  1  0.89790000  0.39400000  0.75000000  1.0 -0.0378589516
C  C41  1  0.36050000  0.16010000  0.75000000  1.0 -0.100701173
C  C42  1  0.13950000  0.66010000  0.25000000  1.0 -0.100701173
C  C43  1  0.63950000  0.83990000  0.25000000  1.0 -0.100701173
C  C44  1  0.86050000  0.33990000  0.75000000  1.0 -0.100701173
C  C45  1  0.39550000  0.21690000  0.75000000  1.0 -0.0924282854
C  C46  1  0.10450000  0.71690000  0.25000000  1.0 -0.0924282854
C  C47  1  0.60450000  0.78310000  0.25000000  1.0 -0.0924282854
C  C48  1  0.89550000  0.28310000  0.75000000  1.0 -0.0924282854
C  C49  1  0.46870000  0.21840000  0.75000000  1.0 -0.0924282854
C  C50  1  0.03130000  0.71840000  0.25000000  1.0 -0.0924282854
C  C51  1  0.53130000  0.78160000  0.25000000  1.0 -0.0924282854
C  C52  1  0.96870000  0.28160000  0.75000000  1.0 -0.0924282854
C  C53  1  0.50930000  0.16440000  0.75000000  1.0 -0.0219427231
C  C54  1  0.99070000  0.66440000  0.25000000  1.0 -0.0219427231
C  C55  1  0.49070000  0.83560000  0.25000000  1.0 -0.0219427231
C  C56  1  0.00930000  0.33560000  0.75000000  1.0 -0.0219427231
C  C57  1  0.47270000  0.10790000  0.75000000  1.0 -0.100701173
C  C58  1  0.02730000  0.60790000  0.25000000  1.0 -0.100701173
C  C59  1  0.52730000  0.89210000  0.25000000  1.0 -0.100701173
C  C60  1  0.97270000  0.39210000  0.75000000  1.0 -0.100701173
C  C61  1  0.59030000  0.16990000  0.75000000  1.0 0.5279454256
C  C62  1  0.90970000  0.66990000  0.25000000  1.0 0.5279454256
C  C63  1  0.40970000  0.83010000  0.25000000  1.0 0.5279454256
C  C64  1  0.09030000  0.33010000  0.75000000  1.0 0.5279454256
C  C65  1  0.86500000  0.19320000  0.94160000  1.0 -0.1561972534
C  C66  1  0.63500000  0.69320000  0.05840000  1.0 -0.1561972534
C  C67  1  0.13500000  0.80680000  0.44160000  1.0 -0.1561972534
C  C68  1  0.36500000  0.30680000  0.55840000  1.0 -0.1561972534
C  C69  1  0.13500000  0.80680000  0.05840000  1.0 -0.1561972534
C  C70  1  0.36500000  0.30680000  0.94160000  1.0 -0.1561972534
C  C71  1  0.86500000  0.19320000  0.55840000  1.0 -0.1561972534
C  C72  1  0.63500000  0.69320000  0.44160000  1.0 -0.1561972534
C  C73  1  0.91290000  0.13860000  0.93205000  1.0 -0.0505036197
C  C74  1  0.58710000  0.63860000  0.06795000  1.0 -0.0505036197
C  C75  1  0.08710000  0.86140000  0.43205000  1.0 -0.0505036197
C  C76  1  0.41290000  0.36140000  0.56795000  1.0 -0.0505036197
C  C77  1  0.08710000  0.86140000  0.06795000  1.0 -0.0505036197
C  C78  1  0.41290000  0.36140000  0.93205000  1.0 -0.0505036197
C  C79  1  0.91290000  0.13860000  0.56795000  1.0 -0.0505036197
C  C80  1  0.58710000  0.63860000  0.43205000  1.0 -0.0505036197
C  C81  1  0.89390000  0.08040000  0.95170000  1.0 0.1320556821
C  C82  1  0.60610000  0.58040000  0.04830000  1.0 0.1320556821
C  C83  1  0.10610000  0.91960000  0.45170000  1.0 0.1320556821
C  C84  1  0.39390000  0.41960000  0.54830000  1.0 0.1320556821
C  C85  1  0.10610000  0.91960000  0.04830000  1.0 0.1320556821
C  C86  1  0.39390000  0.41960000  0.95170000  1.0 0.1320556821
C  C87  1  0.89390000  0.08040000  0.54830000  1.0 0.1320556821
C  C88  1  0.60610000  0.58040000  0.45170000  1.0 0.1320556821
C  C89  1  0.93790000  0.02990000  0.94140000  1.0 -0.2541760986
C  C90  1  0.56210000  0.52990000  0.05860000  1.0 -0.2541760986
C  C91  1  0.06210000  0.97010000  0.44140000  1.0 -0.2541760986
C  C92  1  0.43790000  0.47010000  0.55860000  1.0 -0.2541760986
C  C93  1  0.06210000  0.97010000  0.05860000  1.0 -0.2541760986
C  C94  1  0.43790000  0.47010000  0.94140000  1.0 -0.2541760986
C  C95  1  0.93790000  0.02990000  0.55860000  1.0 -0.2541760986
C  C96  1  0.56210000  0.52990000  0.44140000  1.0 -0.2541760986
C  C97  1  0.99940000  0.03580000  0.91060000  1.0 0.1399775488
C  C98  1  0.50060000  0.53580000  0.08940000  1.0 0.1399775488
C  C99  1  0.00060000  0.96420000  0.41060000  1.0 0.1399775488
C  C100  1  0.49940000  0.46420000  0.58940000  1.0 0.1399775488
C  C101  1  0.00060000  0.96420000  0.08940000  1.0 0.1399775488
C  C102  1  0.49940000  0.46420000  0.91060000  1.0 0.1399775488
C  C103  1  0.99940000  0.03580000  0.58940000  1.0 0.1399775488
C  C104  1  0.50060000  0.53580000  0.41060000  1.0 0.1399775488
C  C105  1  0.01850000  0.09410000  0.88990000  1.0 -0.0505036197
C  C106  1  0.48150000  0.59410000  0.11010000  1.0 -0.0505036197
C  C107  1  0.98150000  0.90590000  0.38990000  1.0 -0.0505036197
C  C108  1  0.51850000  0.40590000  0.61010000  1.0 -0.0505036197
C  C109  1  0.98150000  0.90590000  0.11010000  1.0 -0.0505036197
C  C110  1  0.51850000  0.40590000  0.88990000  1.0 -0.0505036197
C  C111  1  0.01850000  0.09410000  0.61010000  1.0 -0.0505036197
C  C112  1  0.48150000  0.59410000  0.38990000  1.0 -0.0505036197
C  C113  1  0.97610000  0.14570000  0.90171000  1.0 0.0783340262
C  C114  1  0.52390000  0.64570000  0.09829000  1.0 0.0783340262
C  C115  1  0.02390000  0.85430000  0.40171000  1.0 0.0783340262
C  C116  1  0.47610000  0.35430000  0.59829000  1.0 0.0783340262
C  C117  1  0.02390000  0.85430000  0.09829000  1.0 0.0783340262
C  C118  1  0.47610000  0.35430000  0.90171000  1.0 0.0783340262
C  C119  1  0.97610000  0.14570000  0.59829000  1.0 0.0783340262
C  C120  1  0.52390000  0.64570000  0.40171000  1.0 0.0783340262
C  C121  1  0.08450000  0.10010000  0.85550000  1.0 -0.148289088
C  C122  1  0.41550000  0.60010000  0.14450000  1.0 -0.148289088
C  C123  1  0.91550000  0.89990000  0.35550000  1.0 -0.148289088
C  C124  1  0.58450000  0.39990000  0.64450000  1.0 -0.148289088
C  C125  1  0.91550000  0.89990000  0.14450000  1.0 -0.148289088
C  C126  1  0.58450000  0.39990000  0.85550000  1.0 -0.148289088
C  C127  1  0.08450000  0.10010000  0.64450000  1.0 -0.148289088
C  C128  1  0.41550000  0.60010000  0.35550000  1.0 -0.148289088
C  C129  1  0.81020000  0.17840000  0.85020000  1.0 0.0994767959
C  C130  1  0.68980000  0.67840000  0.14980000  1.0 0.0994767959
C  C131  1  0.18980000  0.82160000  0.35020000  1.0 0.0994767959
C  C132  1  0.31020000  0.32160000  0.64980000  1.0 0.0994767959
C  C133  1  0.18980000  0.82160000  0.14980000  1.0 0.0994767959
C  C134  1  0.31020000  0.32160000  0.85020000  1.0 0.0994767959
C  C135  1  0.81020000  0.17840000  0.64980000  1.0 0.0994767959
C  C136  1  0.68980000  0.67840000  0.35020000  1.0 0.0994767959
C  C137  1  0.73990000  0.22030000  0.90880000  1.0 -0.100701173
C  C138  1  0.76010000  0.72030000  0.09120000  1.0 -0.100701173
C  C139  1  0.26010000  0.77970000  0.40880000  1.0 -0.100701173
C  C140  1  0.23990000  0.27970000  0.59120000  1.0 -0.100701173
C  C141  1  0.26010000  0.77970000  0.09120000  1.0 -0.100701173
C  C142  1  0.23990000  0.27970000  0.90880000  1.0 -0.100701173
C  C143  1  0.73990000  0.22030000  0.59120000  1.0 -0.100701173
C  C144  1  0.76010000  0.72030000  0.40880000  1.0 -0.100701173
C  C145  1  0.70650000  0.21550000  0.86100000  1.0 -0.0296573169
C  C146  1  0.79350000  0.71550000  0.13900000  1.0 -0.0296573169
C  C147  1  0.29350000  0.78450000  0.36100000  1.0 -0.0296573169
C  C148  1  0.20650000  0.28450000  0.63900000  1.0 -0.0296573169
C  C149  1  0.29350000  0.78450000  0.13900000  1.0 -0.0296573169
C  C150  1  0.20650000  0.28450000  0.86100000  1.0 -0.0296573169
C  C151  1  0.70650000  0.21550000  0.63900000  1.0 -0.0296573169
C  C152  1  0.79350000  0.71550000  0.36100000  1.0 -0.0296573169
C  C153  1  0.15250000  0.11760000  0.94160000  1.0 0.0898094072
C  C154  1  0.34750000  0.61760000  0.05840000  1.0 0.0898094072
C  C155  1  0.84750000  0.88240000  0.44160000  1.0 0.0898094072
C  C156  1  0.65250000  0.38240000  0.55840000  1.0 0.0898094072
C  C157  1  0.84750000  0.88240000  0.05840000  1.0 0.0898094072
C  C158  1  0.65250000  0.38240000  0.94160000  1.0 0.0898094072
C  C159  1  0.15250000  0.11760000  0.55840000  1.0 0.0898094072
C  C160  1  0.34750000  0.61760000  0.44160000  1.0 0.0898094072
C  C161  1  0.21980000  0.10050000  0.87210000  1.0 -0.1120899903
C  C162  1  0.28020000  0.60050000  0.12790000  1.0 -0.1120899903
C  C163  1  0.78020000  0.89950000  0.37210000  1.0 -0.1120899903
C  C164  1  0.71980000  0.39950000  0.62790000  1.0 -0.1120899903
C  C165  1  0.78020000  0.89950000  0.12790000  1.0 -0.1120899903
C  C166  1  0.71980000  0.39950000  0.87210000  1.0 -0.1120899903
C  C167  1  0.21980000  0.10050000  0.62790000  1.0 -0.1120899903
C  C168  1  0.28020000  0.60050000  0.37210000  1.0 -0.1120899903
C  C169  1  0.26140000  0.11070000  0.91530000  1.0 -0.0296573169
C  C170  1  0.23860000  0.61070000  0.08470000  1.0 -0.0296573169
C  C171  1  0.73860000  0.88930000  0.41530000  1.0 -0.0296573169
C  C172  1  0.76140000  0.38930000  0.58470000  1.0 -0.0296573169
C  C173  1  0.73860000  0.88930000  0.08470000  1.0 -0.0296573169
C  C174  1  0.76140000  0.38930000  0.91530000  1.0 -0.0296573169
C  C175  1  0.26140000  0.11070000  0.58470000  1.0 -0.0296573169
C  C176  1  0.23860000  0.61070000  0.41530000  1.0 -0.0296573169
C  C177  1  0.66410000  0.93800000  0.59905000  1.0 0.0994767959
C  C178  1  0.83590000  0.43800000  0.40095000  1.0 0.0994767959
C  C179  1  0.33590000  0.06200000  0.09905000  1.0 0.0994767959
C  C180  1  0.16410000  0.56200000  0.90095000  1.0 0.0994767959
C  C181  1  0.33590000  0.06200000  0.40095000  1.0 0.0994767959
C  C182  1  0.16410000  0.56200000  0.59905000  1.0 0.0994767959
C  C183  1  0.66410000  0.93800000  0.90095000  1.0 0.0994767959
C  C184  1  0.83590000  0.43800000  0.09905000  1.0 0.0994767959
C  C185  1  0.72950000  0.99570000  0.65060000  1.0 -0.100701173
C  C186  1  0.77050000  0.49570000  0.34940000  1.0 -0.100701173
C  C187  1  0.27050000  0.00430000  0.15060000  1.0 -0.100701173
C  C188  1  0.22950000  0.50430000  0.84940000  1.0 -0.100701173
C  C189  1  0.27050000  0.00430000  0.34940000  1.0 -0.100701173
C  C190  1  0.22950000  0.50430000  0.65060000  1.0 -0.100701173
C  C191  1  0.72950000  0.99570000  0.84940000  1.0 -0.100701173
C  C192  1  0.77050000  0.49570000  0.15060000  1.0 -0.100701173
C  C193  1  0.77160000  0.96090000  0.61870000  1.0 -0.0378589516
C  C194  1  0.72840000  0.46090000  0.38130000  1.0 -0.0378589516
C  C195  1  0.22840000  0.03910000  0.11870000  1.0 -0.0378589516
C  C196  1  0.27160000  0.53910000  0.88130000  1.0 -0.0378589516
C  C197  1  0.22840000  0.03910000  0.38130000  1.0 -0.0378589516
C  C198  1  0.27160000  0.53910000  0.61870000  1.0 -0.0378589516
C  C199  1  0.77160000  0.96090000  0.88130000  1.0 -0.0378589516
C  C200  1  0.72840000  0.46090000  0.11870000  1.0 -0.0378589516
C  C201  1  0.59530000  0.00200000  0.66540000  1.0 -0.148289088
C  C202  1  0.90470000  0.50200000  0.33460000  1.0 -0.148289088
C  C203  1  0.40470000  0.99800000  0.16540000  1.0 -0.148289088
C  C204  1  0.09530000  0.49800000  0.83460000  1.0 -0.148289088
C  C205  1  0.40470000  0.99800000  0.33460000  1.0 -0.148289088
C  C206  1  0.09530000  0.49800000  0.66540000  1.0 -0.148289088
C  C207  1  0.59530000  0.00200000  0.83460000  1.0 -0.148289088
C  C208  1  0.90470000  0.50200000  0.16540000  1.0 -0.148289088
C  C209  1  0.53150000  0.99600000  0.62854000  1.0 -0.0296573169
C  C210  1  0.96850000  0.49600000  0.37146000  1.0 -0.0296573169
C  C211  1  0.46850000  0.00400000  0.12854000  1.0 -0.0296573169
C  C212  1  0.03150000  0.50400000  0.87146000  1.0 -0.0296573169
C  C213  1  0.46850000  0.00400000  0.37146000  1.0 -0.0296573169
C  C214  1  0.03150000  0.50400000  0.62854000  1.0 -0.0296573169
C  C215  1  0.53150000  0.99600000  0.87146000  1.0 -0.0296573169
C  C216  1  0.96850000  0.49600000  0.12854000  1.0 -0.0296573169
C  C217  1  0.51240000  0.04550000  0.59460000  1.0 0.1102897821
C  C218  1  0.98760000  0.54550000  0.40540000  1.0 0.1102897821
C  C219  1  0.48760000  0.95450000  0.09460000  1.0 0.1102897821
C  C220  1  0.01240000  0.45450000  0.90540000  1.0 0.1102897821
C  C221  1  0.48760000  0.95450000  0.40540000  1.0 0.1102897821
C  C222  1  0.01240000  0.45450000  0.59460000  1.0 0.1102897821
C  C223  1  0.51240000  0.04550000  0.90540000  1.0 0.1102897821
C  C224  1  0.98760000  0.54550000  0.09460000  1.0 0.1102897821
C  C225  1  0.41840000  0.98430000  0.55720000  1.0 0.1102897821
C  C226  1  0.08160000  0.48430000  0.44280000  1.0 0.1102897821
C  C227  1  0.58160000  0.01570000  0.05720000  1.0 0.1102897821
C  C228  1  0.91840000  0.51570000  0.94280000  1.0 0.1102897821
C  C229  1  0.58160000  0.01570000  0.44280000  1.0 0.1102897821
C  C230  1  0.91840000  0.51570000  0.55720000  1.0 0.1102897821
C  C231  1  0.41840000  0.98430000  0.94280000  1.0 0.1102897821
C  C232  1  0.08160000  0.48430000  0.05720000  1.0 0.1102897821
C  C233  1  0.45620000  0.03920000  0.55980000  1.0 -0.1909878923
C  C234  1  0.04380000  0.53920000  0.44020000  1.0 -0.1909878923
C  C235  1  0.54380000  0.96080000  0.05980000  1.0 -0.1909878923
C  C236  1  0.95620000  0.46080000  0.94020000  1.0 -0.1909878923
C  C237  1  0.54380000  0.96080000  0.44020000  1.0 -0.1909878923
C  C238  1  0.95620000  0.46080000  0.55980000  1.0 -0.1909878923
C  C239  1  0.45620000  0.03920000  0.94020000  1.0 -0.1909878923
C  C240  1  0.04380000  0.53920000  0.05980000  1.0 -0.1909878923
C  C241  1  0.43690000  0.93480000  0.59030000  1.0 -0.0296573169
C  C242  1  0.06310000  0.43480000  0.40970000  1.0 -0.0296573169
C  C243  1  0.56310000  0.06520000  0.09030000  1.0 -0.0296573169
C  C244  1  0.93690000  0.56520000  0.90970000  1.0 -0.0296573169
C  C245  1  0.56310000  0.06520000  0.40970000  1.0 -0.0296573169
C  C246  1  0.93690000  0.56520000  0.59030000  1.0 -0.0296573169
C  C247  1  0.43690000  0.93480000  0.90970000  1.0 -0.0296573169
C  C248  1  0.06310000  0.43480000  0.09030000  1.0 -0.0296573169
C  C249  1  0.49300000  0.94060000  0.62736000  1.0 0.0783340262
C  C250  1  0.00700000  0.44060000  0.37264000  1.0 0.0783340262
C  C251  1  0.50700000  0.05940000  0.12736000  1.0 0.0783340262
C  C252  1  0.99300000  0.55940000  0.87264000  1.0 0.0783340262
C  C253  1  0.50700000  0.05940000  0.37264000  1.0 0.0783340262
C  C254  1  0.99300000  0.55940000  0.62736000  1.0 0.0783340262
C  C255  1  0.49300000  0.94060000  0.87264000  1.0 0.0783340262
C  C256  1  0.00700000  0.44060000  0.12736000  1.0 0.0783340262
C  C257  1  0.22050000  0.87940000  0.65450000  1.0 -0.0296573169
C  C258  1  0.27950000  0.37940000  0.34550000  1.0 -0.0296573169
C  C259  1  0.77950000  0.12060000  0.15450000  1.0 -0.0296573169
C  C260  1  0.72050000  0.62060000  0.84550000  1.0 -0.0296573169
C  C261  1  0.77950000  0.12060000  0.34550000  1.0 -0.0296573169
C  C262  1  0.72050000  0.62060000  0.65450000  1.0 -0.0296573169
C  C263  1  0.22050000  0.87940000  0.84550000  1.0 -0.0296573169
C  C264  1  0.27950000  0.37940000  0.15450000  1.0 -0.0296573169
C  C265  1  0.26330000  0.85580000  0.61620000  1.0 -0.100701173
C  C266  1  0.23670000  0.35580000  0.38380000  1.0 -0.100701173
C  C267  1  0.73670000  0.14420000  0.11620000  1.0 -0.100701173
C  C268  1  0.76330000  0.64420000  0.88380000  1.0 -0.100701173
C  C269  1  0.73670000  0.14420000  0.38380000  1.0 -0.100701173
C  C270  1  0.76330000  0.64420000  0.61620000  1.0 -0.100701173
C  C271  1  0.26330000  0.85580000  0.88380000  1.0 -0.100701173
C  C272  1  0.23670000  0.35580000  0.11620000  1.0 -0.100701173
C  C273  1  0.31980000  0.92570000  0.66160000  1.0 0.0898094072
C  C274  1  0.18020000  0.42570000  0.33840000  1.0 0.0898094072
C  C275  1  0.68020000  0.07430000  0.16160000  1.0 0.0898094072
C  C276  1  0.81980000  0.57430000  0.83840000  1.0 0.0898094072
C  C277  1  0.68020000  0.07430000  0.33840000  1.0 0.0898094072
C  C278  1  0.81980000  0.57430000  0.66160000  1.0 0.0898094072
C  C279  1  0.31980000  0.92570000  0.83840000  1.0 0.0898094072
C  C280  1  0.18020000  0.42570000  0.16160000  1.0 0.0898094072
C  C281  1  0.39210000  0.87660000  0.58950000  1.0 -0.1561972534
C  C282  1  0.10790000  0.37660000  0.41050000  1.0 -0.1561972534
C  C283  1  0.60790000  0.12340000  0.08950000  1.0 -0.1561972534
C  C284  1  0.89210000  0.62340000  0.91050000  1.0 -0.1561972534
C  C285  1  0.60790000  0.12340000  0.41050000  1.0 -0.1561972534
C  C286  1  0.89210000  0.62340000  0.58950000  1.0 -0.1561972534
C  C287  1  0.39210000  0.87660000  0.91050000  1.0 -0.1561972534
C  C288  1  0.10790000  0.37660000  0.08950000  1.0 -0.1561972534
C  C289  1  0.36540000  0.20110000  0.04130000  1.0 0.5279454256
C  C290  1  0.13460000  0.70110000  0.95870000  1.0 0.5279454256
C  C291  1  0.63460000  0.79890000  0.54130000  1.0 0.5279454256
C  C292  1  0.86540000  0.29890000  0.45870000  1.0 0.5279454256
C  C293  1  0.63460000  0.79890000  0.95870000  1.0 0.5279454256
C  C294  1  0.86540000  0.29890000  0.04130000  1.0 0.5279454256
C  C295  1  0.36540000  0.20110000  0.45870000  1.0 0.5279454256
C  C296  1  0.13460000  0.70110000  0.54130000  1.0 0.5279454256
C  C297  1  0.42040000  0.24015000  0.06966000  1.0 -0.0296573169
C  C298  1  0.07960000  0.74015000  0.93034000  1.0 -0.0296573169
C  C299  1  0.57960000  0.75985000  0.56966000  1.0 -0.0296573169
C  C300  1  0.92040000  0.25985000  0.43034000  1.0 -0.0296573169
C  C301  1  0.57960000  0.75985000  0.93034000  1.0 -0.0296573169
C  C302  1  0.92040000  0.25985000  0.06966000  1.0 -0.0296573169
C  C303  1  0.42040000  0.24015000  0.43034000  1.0 -0.0296573169
C  C304  1  0.07960000  0.74015000  0.56966000  1.0 -0.0296573169
C  C305  1  0.40470000  0.26810000  0.11840000  1.0 -0.1120899903
C  C306  1  0.09530000  0.76810000  0.88160000  1.0 -0.1120899903
C  C307  1  0.59530000  0.73190000  0.61840000  1.0 -0.1120899903
C  C308  1  0.90470000  0.23190000  0.38160000  1.0 -0.1120899903
C  C309  1  0.59530000  0.73190000  0.88160000  1.0 -0.1120899903
C  C310  1  0.90470000  0.23190000  0.11840000  1.0 -0.1120899903
C  C311  1  0.40470000  0.26810000  0.38160000  1.0 -0.1120899903
C  C312  1  0.09530000  0.76810000  0.61840000  1.0 -0.1120899903
C  C313  1  0.45560000  0.30300000  0.14580000  1.0 -0.100701173
C  C314  1  0.04440000  0.80300000  0.85420000  1.0 -0.100701173
C  C315  1  0.54440000  0.69700000  0.64580000  1.0 -0.100701173
C  C316  1  0.95560000  0.19700000  0.35420000  1.0 -0.100701173
C  C317  1  0.54440000  0.69700000  0.85420000  1.0 -0.100701173
C  C318  1  0.95560000  0.19700000  0.14580000  1.0 -0.100701173
C  C319  1  0.45560000  0.30300000  0.35420000  1.0 -0.100701173
C  C320  1  0.04440000  0.80300000  0.64580000  1.0 -0.100701173
C  C321  1  0.61130000  0.29370000  0.04950000  1.0 0.5398483291
C  C322  1  0.88870000  0.79370000  0.95050000  1.0 0.5398483291
C  C323  1  0.38870000  0.70630000  0.54950000  1.0 0.5398483291
C  C324  1  0.11130000  0.20630000  0.45050000  1.0 0.5398483291
C  C325  1  0.38870000  0.70630000  0.95050000  1.0 0.5398483291
C  C326  1  0.11130000  0.20630000  0.04950000  1.0 0.5398483291
C  C327  1  0.61130000  0.29370000  0.45050000  1.0 0.5398483291
C  C328  1  0.88870000  0.79370000  0.54950000  1.0 0.5398483291
C  C329  1  0.53860000  0.28402000  0.07409000  1.0 -0.0219427231
C  C330  1  0.96140000  0.78402000  0.92591000  1.0 -0.0219427231
C  C331  1  0.46140000  0.71598000  0.57409000  1.0 -0.0219427231
C  C332  1  0.03860000  0.21598000  0.42591000  1.0 -0.0219427231
C  C333  1  0.46140000  0.71598000  0.92591000  1.0 -0.0219427231
C  C334  1  0.03860000  0.21598000  0.07409000  1.0 -0.0219427231
C  C335  1  0.53860000  0.28402000  0.42591000  1.0 -0.0219427231
C  C336  1  0.96140000  0.78402000  0.57409000  1.0 -0.0219427231
C  C337  1  0.48880000  0.24750000  0.04850000  1.0 -0.1120899903
C  C338  1  0.01120000  0.74750000  0.95150000  1.0 -0.1120899903
C  C339  1  0.51120000  0.75250000  0.54850000  1.0 -0.1120899903
C  C340  1  0.98880000  0.25250000  0.45150000  1.0 -0.1120899903
C  C341  1  0.51120000  0.75250000  0.95150000  1.0 -0.1120899903
C  C342  1  0.98880000  0.25250000  0.04850000  1.0 -0.1120899903
C  C343  1  0.48880000  0.24750000  0.45150000  1.0 -0.1120899903
C  C344  1  0.01120000  0.74750000  0.54850000  1.0 -0.1120899903
C  C345  1  0.52220000  0.31160000  0.12240000  1.0 -0.1120899903
C  C346  1  0.97780000  0.81160000  0.87760000  1.0 -0.1120899903
C  C347  1  0.47780000  0.68840000  0.62240000  1.0 -0.1120899903
C  C348  1  0.02220000  0.18840000  0.37760000  1.0 -0.1120899903
C  C349  1  0.47780000  0.68840000  0.87760000  1.0 -0.1120899903
C  C350  1  0.02220000  0.18840000  0.12240000  1.0 -0.1120899903
C  C351  1  0.52220000  0.31160000  0.37760000  1.0 -0.1120899903
C  C352  1  0.97780000  0.81160000  0.62240000  1.0 -0.1120899903
C  C353  1  0.99910000  0.20920000  0.88240000  1.0 -0.4593397861
C  C354  1  0.50090000  0.70920000  0.11760000  1.0 -0.4593397861
C  C355  1  0.00090000  0.79080000  0.38240000  1.0 -0.4593397861
C  C356  1  0.49910000  0.29080000  0.61760000  1.0 -0.4593397861
C  C357  1  0.00090000  0.79080000  0.11760000  1.0 -0.4593397861
C  C358  1  0.49910000  0.29080000  0.88240000  1.0 -0.4593397861
C  C359  1  0.99910000  0.20920000  0.61760000  1.0 -0.4593397861
C  C360  1  0.50090000  0.70920000  0.38240000  1.0 -0.4593397861
C  C361  1  0.04450000  0.97710000  0.90070000  1.0 -0.4593397861
C  C362  1  0.45550000  0.47710000  0.09930000  1.0 -0.4593397861
C  C363  1  0.95550000  0.02290000  0.40070000  1.0 -0.4593397861
C  C364  1  0.54450000  0.52290000  0.59930000  1.0 -0.4593397861
C  C365  1  0.95550000  0.02290000  0.09930000  1.0 -0.4593397861
C  C366  1  0.54450000  0.52290000  0.90070000  1.0 -0.4593397861
C  C367  1  0.04450000  0.97710000  0.59930000  1.0 -0.4593397861
C  C368  1  0.45550000  0.47710000  0.40070000  1.0 -0.4593397861
C  C369  1  0.82610000  0.07030000  0.98300000  1.0 -0.4665153807
C  C370  1  0.67390000  0.57030000  0.01700000  1.0 -0.4665153807
C  C371  1  0.17390000  0.92970000  0.48300000  1.0 -0.4665153807
C  C372  1  0.32610000  0.42970000  0.51700000  1.0 -0.4665153807
C  C373  1  0.17390000  0.92970000  0.01700000  1.0 -0.4665153807
C  C374  1  0.32610000  0.42970000  0.98300000  1.0 -0.4665153807
C  C375  1  0.82610000  0.07030000  0.51700000  1.0 -0.4665153807
C  C376  1  0.67390000  0.57030000  0.48300000  1.0 -0.4665153807
C  C377  1  0.55230000  0.10740000  0.59690000  1.0 -0.439080823
C  C378  1  0.94770000  0.60740000  0.40310000  1.0 -0.439080823
C  C379  1  0.44770000  0.89260000  0.09690000  1.0 -0.439080823
C  C380  1  0.05230000  0.39260000  0.90310000  1.0 -0.439080823
C  C381  1  0.44770000  0.89260000  0.40310000  1.0 -0.439080823
C  C382  1  0.05230000  0.39260000  0.59690000  1.0 -0.439080823
C  C383  1  0.55230000  0.10740000  0.90310000  1.0 -0.439080823
C  C384  1  0.94770000  0.60740000  0.09690000  1.0 -0.439080823
C  C385  1  0.51020000  0.88860000  0.66580000  1.0 -0.4512288233
C  C386  1  0.98980000  0.38860000  0.33420000  1.0 -0.4512288233
C  C387  1  0.48980000  0.11140000  0.16580000  1.0 -0.4512288233
C  C388  1  0.01020000  0.61140000  0.83420000  1.0 -0.4512288233
C  C389  1  0.48980000  0.11140000  0.33420000  1.0 -0.4512288233
C  C390  1  0.01020000  0.61140000  0.66580000  1.0 -0.4512288233
C  C391  1  0.51020000  0.88860000  0.83420000  1.0 -0.4512288233
C  C392  1  0.98980000  0.38860000  0.16580000  1.0 -0.4512288233
C  C393  1  0.35560000  0.98000000  0.51970000  1.0 -0.4512288233
C  C394  1  0.14440000  0.48000000  0.48030000  1.0 -0.4512288233
C  C395  1  0.64440000  0.02000000  0.01970000  1.0 -0.4512288233
C  C396  1  0.85560000  0.52000000  0.98030000  1.0 -0.4512288233
C  C397  1  0.64440000  0.02000000  0.48030000  1.0 -0.4512288233
C  C398  1  0.85560000  0.52000000  0.51970000  1.0 -0.4512288233
C  C399  1  0.35560000  0.98000000  0.98030000  1.0 -0.4512288233
C  C400  1  0.14440000  0.48000000  0.01970000  1.0 -0.4512288233
N  N1  1  0.75070000  0.18970000  0.82397000  1.0 -0.288039332
N  N2  1  0.74930000  0.68970000  0.17603000  1.0 -0.288039332
N  N3  1  0.24930000  0.81030000  0.32397000  1.0 -0.288039332
N  N4  1  0.25070000  0.31030000  0.67603000  1.0 -0.288039332
N  N5  1  0.24930000  0.81030000  0.17603000  1.0 -0.288039332
N  N6  1  0.25070000  0.31030000  0.82397000  1.0 -0.288039332
N  N7  1  0.75070000  0.18970000  0.67603000  1.0 -0.288039332
N  N8  1  0.74930000  0.68970000  0.32397000  1.0 -0.288039332
N  N9  1  0.21909000  0.12088000  0.95933000  1.0 -0.2959341591
N  N10  1  0.28091000  0.62088000  0.04067000  1.0 -0.2959341591
N  N11  1  0.78091000  0.87912000  0.45933000  1.0 -0.2959341591
N  N12  1  0.71909000  0.37912000  0.54067000  1.0 -0.2959341591
N  N13  1  0.78091000  0.87912000  0.04067000  1.0 -0.2959341591
N  N14  1  0.71909000  0.37912000  0.95933000  1.0 -0.2959341591
N  N15  1  0.21909000  0.12088000  0.54067000  1.0 -0.2959341591
N  N16  1  0.28091000  0.62088000  0.45933000  1.0 -0.2959341591
N  N17  1  0.25590000  0.92340000  0.68292000  1.0 -0.288039332
N  N18  1  0.24410000  0.42340000  0.31708000  1.0 -0.288039332
N  N19  1  0.74410000  0.07660000  0.18292000  1.0 -0.288039332
N  N20  1  0.75590000  0.57660000  0.81708000  1.0 -0.288039332
N  N21  1  0.74410000  0.07660000  0.31708000  1.0 -0.288039332
N  N22  1  0.75590000  0.57660000  0.68292000  1.0 -0.288039332
N  N23  1  0.25590000  0.92340000  0.81708000  1.0 -0.288039332
N  N24  1  0.24410000  0.42340000  0.18292000  1.0 -0.288039332
N  N25  1  0.73053000  0.92512000  0.58526000  1.0 -0.2959341591
N  N26  1  0.76947000  0.42512000  0.41474000  1.0 -0.2959341591
N  N27  1  0.26947000  0.07488000  0.08526000  1.0 -0.2959341591
N  N28  1  0.23053000  0.57488000  0.91474000  1.0 -0.2959341591
N  N29  1  0.26947000  0.07488000  0.41474000  1.0 -0.2959341591
N  N30  1  0.23053000  0.57488000  0.58526000  1.0 -0.2959341591
N  N31  1  0.73053000  0.92512000  0.91474000  1.0 -0.2959341591
N  N32  1  0.76947000  0.42512000  0.08526000  1.0 -0.2959341591
N  N33  1  0.80640000  0.19600000  0.90144000  1.0 0.0519014659
N  N34  1  0.69360000  0.69600000  0.09856000  1.0 0.0519014659
N  N35  1  0.19360000  0.80400000  0.40144000  1.0 0.0519014659
N  N36  1  0.30640000  0.30400000  0.59856000  1.0 0.0519014659
N  N37  1  0.19360000  0.80400000  0.09856000  1.0 0.0519014659
N  N38  1  0.30640000  0.30400000  0.90144000  1.0 0.0519014659
N  N39  1  0.80640000  0.19600000  0.59856000  1.0 0.0519014659
N  N40  1  0.69360000  0.69600000  0.40144000  1.0 0.0519014659
N  N41  1  0.14990000  0.10530000  0.88910000  1.0 0.0519014659
N  N42  1  0.35010000  0.60530000  0.11090000  1.0 0.0519014659
N  N43  1  0.85010000  0.89470000  0.38910000  1.0 0.0519014659
N  N44  1  0.64990000  0.39470000  0.61090000  1.0 0.0519014659
N  N45  1  0.85010000  0.89470000  0.11090000  1.0 0.0519014659
N  N46  1  0.64990000  0.39470000  0.88910000  1.0 0.0519014659
N  N47  1  0.14990000  0.10530000  0.61090000  1.0 0.0519014659
N  N48  1  0.35010000  0.60530000  0.38910000  1.0 0.0519014659
N  N49  1  0.66114000  0.98030000  0.63805000  1.0 0.0519014659
N  N50  1  0.83886000  0.48030000  0.36195000  1.0 0.0519014659
N  N51  1  0.33886000  0.01970000  0.13805000  1.0 0.0519014659
N  N52  1  0.16114000  0.51970000  0.86195000  1.0 0.0519014659
N  N53  1  0.33886000  0.01970000  0.36195000  1.0 0.0519014659
N  N54  1  0.16114000  0.51970000  0.63805000  1.0 0.0519014659
N  N55  1  0.66114000  0.98030000  0.86195000  1.0 0.0519014659
N  N56  1  0.83886000  0.48030000  0.13805000  1.0 0.0519014659
N  N57  1  0.32680000  0.88581000  0.62140000  1.0 0.0519014659
N  N58  1  0.17320000  0.38581000  0.37860000  1.0 0.0519014659
N  N59  1  0.67320000  0.11419000  0.12140000  1.0 0.0519014659
N  N60  1  0.82680000  0.61419000  0.87860000  1.0 0.0519014659
N  N61  1  0.67320000  0.11419000  0.37860000  1.0 0.0519014659
N  N62  1  0.82680000  0.61419000  0.62140000  1.0 0.0519014659
N  N63  1  0.32680000  0.88581000  0.87860000  1.0 0.0519014659
N  N64  1  0.17320000  0.38581000  0.12140000  1.0 0.0519014659
O  O1  1  0.11610000  0.90220000  0.75000000  1.0 -0.5492909526
O  O2  1  0.38390000  0.40220000  0.25000000  1.0 -0.5492909526
O  O3  1  0.88390000  0.09780000  0.25000000  1.0 -0.5492909526
O  O4  1  0.61610000  0.59780000  0.75000000  1.0 -0.5492909526
O  O5  1  0.12900000  0.00466000  0.75000000  1.0 -0.5492909526
O  O6  1  0.37100000  0.50466000  0.25000000  1.0 -0.5492909526
O  O7  1  0.87100000  0.99534000  0.25000000  1.0 -0.5492909526
O  O8  1  0.62900000  0.49534000  0.75000000  1.0 -0.5492909526
O  O9  1  0.89770000  0.13153000  0.75000000  1.0 -0.5408767974
O  O10  1  0.60230000  0.63153000  0.25000000  1.0 -0.5408767974
O  O11  1  0.10230000  0.86847000  0.25000000  1.0 -0.5408767974
O  O12  1  0.39770000  0.36847000  0.75000000  1.0 -0.5408767974
O  O13  1  0.79370000  0.08114000  0.75000000  1.0 -0.5811485087
O  O14  1  0.70630000  0.58114000  0.25000000  1.0 -0.5811485087
O  O15  1  0.20630000  0.91886000  0.25000000  1.0 -0.5811485087
O  O16  1  0.29370000  0.41886000  0.75000000  1.0 -0.5811485087
O  O17  1  0.29170000  0.04564000  0.75000000  1.0 -0.5811485087
O  O18  1  0.20830000  0.54564000  0.25000000  1.0 -0.5811485087
O  O19  1  0.70830000  0.95436000  0.25000000  1.0 -0.5811485087
O  O20  1  0.79170000  0.45436000  0.75000000  1.0 -0.5811485087
O  O21  1  0.39660000  0.99556000  0.75000000  1.0 -0.5408767974
O  O22  1  0.10340000  0.49556000  0.25000000  1.0 -0.5408767974
O  O23  1  0.60340000  0.00444000  0.25000000  1.0 -0.5408767974
O  O24  1  0.89660000  0.50444000  0.75000000  1.0 -0.5408767974
O  O25  1  0.62730000  0.12034000  0.75000000  1.0 -0.5492909526
O  O26  1  0.87270000  0.62034000  0.25000000  1.0 -0.5492909526
O  O27  1  0.37270000  0.87966000  0.25000000  1.0 -0.5492909526
O  O28  1  0.12730000  0.37966000  0.75000000  1.0 -0.5492909526
O  O29  1  0.61640000  0.22210000  0.75000000  1.0 -0.5408767974
O  O30  1  0.88360000  0.72210000  0.25000000  1.0 -0.5408767974
O  O31  1  0.38360000  0.77790000  0.25000000  1.0 -0.5408767974
O  O32  1  0.11640000  0.27790000  0.75000000  1.0 -0.5408767974
O  O33  1  0.30125000  0.21198000  0.05619000  1.0 -0.5492909526
O  O34  1  0.19875000  0.71198000  0.94381000  1.0 -0.5492909526
O  O35  1  0.69875000  0.78802000  0.55619000  1.0 -0.5492909526
O  O36  1  0.80125000  0.28802000  0.44381000  1.0 -0.5492909526
O  O37  1  0.69875000  0.78802000  0.94381000  1.0 -0.5492909526
O  O38  1  0.80125000  0.28802000  0.05619000  1.0 -0.5492909526
O  O39  1  0.30125000  0.21198000  0.44381000  1.0 -0.5492909526
O  O40  1  0.19875000  0.71198000  0.55619000  1.0 -0.5492909526
O  O41  1  0.38322000  0.16211000  0.00824000  1.0 -0.5330670809
O  O42  1  0.11678000  0.66211000  0.99176000  1.0 -0.5330670809
O  O43  1  0.61678000  0.83789000  0.50824000  1.0 -0.5330670809
O  O44  1  0.88322000  0.33789000  0.49176000  1.0 -0.5330670809
O  O45  1  0.61678000  0.83789000  0.99176000  1.0 -0.5330670809
O  O46  1  0.88322000  0.33789000  0.00824000  1.0 -0.5330670809
O  O47  1  0.38322000  0.16211000  0.49176000  1.0 -0.5330670809
O  O48  1  0.11678000  0.66211000  0.50824000  1.0 -0.5330670809
O  O49  1  0.64455000  0.34196000  0.06701000  1.0 -0.5554404443
O  O50  1  0.85545000  0.84196000  0.93299000  1.0 -0.5554404443
O  O51  1  0.35545000  0.65804000  0.56701000  1.0 -0.5554404443
O  O52  1  0.14455000  0.15804000  0.43299000  1.0 -0.5554404443
O  O53  1  0.35545000  0.65804000  0.93299000  1.0 -0.5554404443
O  O54  1  0.14455000  0.15804000  0.06701000  1.0 -0.5554404443
O  O55  1  0.64455000  0.34196000  0.43299000  1.0 -0.5554404443
O  O56  1  0.85545000  0.84196000  0.56701000  1.0 -0.5554404443
O  O57  1  0.63393000  0.25763000  0.01533000  1.0 -0.5408767974
O  O58  1  0.86607000  0.75763000  0.98467000  1.0 -0.5408767974
O  O59  1  0.36607000  0.74237000  0.51533000  1.0 -0.5408767974
O  O60  1  0.13393000  0.24237000  0.48467000  1.0 -0.5408767974
O  O61  1  0.36607000  0.74237000  0.98467000  1.0 -0.5408767974
O  O62  1  0.13393000  0.24237000  0.01533000  1.0 -0.5408767974
O  O63  1  0.63393000  0.25763000  0.48467000  1.0 -0.5408767974
O  O64  1  0.86607000  0.75763000  0.51533000  1.0 -0.5408767974
