# DDEC6 charges by PACMAN v1.1 (https://github.com/mtap-research/PACMAN-charge/)
data_PUWDOA_FSR_pacman
_symmetry_space_group_name_H-M   'P 1'
_cell_length_a   17.15800000
_cell_length_b   21.59100000
_cell_length_c   25.30800000
_cell_angle_alpha   90.00000000
_cell_angle_beta   90.00000000
_cell_angle_gamma   90.00000000
_symmetry_Int_Tables_number   1
_chemical_formula_structural   Zn3H34(C27O7)2
_chemical_formula_sum   'Zn12 H136 C216 O56'
_cell_volume   9375.56063042
_cell_formula_units_Z   4
loop_
 _symmetry_equiv_pos_site_id
 _symmetry_equiv_pos_as_xyz
  1  'x, y, z'
loop_
 _atom_site_type_symbol
 _atom_site_label
 _atom_site_symmetry_multiplicity
 _atom_site_fract_x
 _atom_site_fract_y
 _atom_site_fract_z
 _atom_site_occupancy
 _atom_site_charge
Zn  Zn1  1  0.00500000  0.16500000  0.11310000  1.0 0.9162761642
Zn  Zn2  1  0.49500000  0.83500000  0.61310000  1.0 0.9162761642
Zn  Zn3  1  0.49500000  0.66500000  0.61310000  1.0 0.9162761642
Zn  Zn4  1  0.00500000  0.33500000  0.11310000  1.0 0.9162761642
Zn  Zn5  1  0.11680000  0.25000000  0.18290000  1.0 1.0076962485
Zn  Zn6  1  0.38320000  0.75000000  0.68290000  1.0 1.0076962485
Zn  Zn7  1  0.50500000  0.33500000  0.38690000  1.0 0.9142940614
Zn  Zn8  1  0.99500000  0.66500000  0.88690000  1.0 0.9162761642
Zn  Zn9  1  0.99500000  0.83500000  0.88690000  1.0 0.9162761642
Zn  Zn10  1  0.50500000  0.16500000  0.38690000  1.0 0.9142940614
Zn  Zn11  1  0.61680000  0.25000000  0.31710000  1.0 1.0076962485
Zn  Zn12  1  0.88320000  0.75000000  0.81710000  1.0 1.0027381751
H  H1  1  0.53420000  0.93490000  0.53330000  1.0 0.3310148391
H  H2  1  0.96580000  0.06510000  0.03330000  1.0 0.3310148391
H  H3  1  0.96580000  0.43490000  0.03330000  1.0 0.3310148391
H  H4  1  0.53420000  0.56510000  0.53330000  1.0 0.3310148391
H  H5  1  0.10950000  0.12860000  0.31220000  1.0 0.1100653372
H  H6  1  0.39050000  0.87140000  0.81220000  1.0 0.1100653372
H  H7  1  0.39050000  0.62860000  0.81220000  1.0 0.1100653372
H  H8  1  0.10950000  0.37140000  0.31220000  1.0 0.1100653372
H  H9  1  0.09870000  0.06230000  0.38370000  1.0 0.1100653372
H  H10  1  0.40130000  0.93770000  0.88370000  1.0 0.1100653372
H  H11  1  0.40130000  0.56230000  0.88370000  1.0 0.1100653372
H  H12  1  0.09870000  0.43770000  0.38370000  1.0 0.1100653372
H  H13  1  0.92800000  0.96810000  0.30850000  1.0 0.1100653372
H  H14  1  0.57200000  0.03190000  0.80850000  1.0 0.1100653372
H  H15  1  0.57200000  0.46810000  0.80850000  1.0 0.1100653372
H  H16  1  0.92800000  0.53190000  0.30850000  1.0 0.1100653372
H  H17  1  0.94400000  0.03220000  0.23550000  1.0 0.1214862864
H  H18  1  0.55600000  0.96780000  0.73550000  1.0 0.1214862864
H  H19  1  0.55600000  0.53220000  0.73550000  1.0 0.1214862864
H  H20  1  0.94400000  0.46780000  0.23550000  1.0 0.1214862864
H  H21  1  0.11760000  0.95920000  0.41790000  1.0 0.1100653372
H  H22  1  0.38240000  0.04080000  0.91790000  1.0 0.1100653372
H  H23  1  0.38240000  0.45920000  0.91790000  1.0 0.1100653372
H  H24  1  0.11760000  0.54080000  0.41790000  1.0 0.1100653372
H  H25  1  0.97950000  0.87410000  0.52510000  1.0 0.1100653372
H  H26  1  0.52050000  0.12590000  0.02510000  1.0 0.1100653372
H  H27  1  0.52050000  0.37410000  0.02510000  1.0 0.1100653372
H  H28  1  0.97950000  0.62590000  0.52510000  1.0 0.1100653372
H  H29  1  0.88360000  0.96400000  0.40110000  1.0 0.1100653372
H  H30  1  0.61640000  0.03600000  0.90110000  1.0 0.1100653372
H  H31  1  0.61640000  0.46400000  0.90110000  1.0 0.1100653372
H  H32  1  0.88360000  0.53600000  0.40110000  1.0 0.1100653372
H  H33  1  0.20360000  0.89340000  0.44490000  1.0 0.1100653372
H  H34  1  0.29640000  0.10660000  0.94490000  1.0 0.1100653372
H  H35  1  0.29640000  0.39340000  0.94490000  1.0 0.1100653372
H  H36  1  0.20360000  0.60660000  0.44490000  1.0 0.1100653372
H  H37  1  0.31540000  0.86320000  0.48890000  1.0 0.1214862864
H  H38  1  0.18460000  0.13680000  0.98890000  1.0 0.1214862864
H  H39  1  0.18460000  0.36320000  0.98890000  1.0 0.1214862864
H  H40  1  0.31540000  0.63680000  0.48890000  1.0 0.1214862864
H  H41  1  0.19320000  0.86180000  0.62540000  1.0 0.1214862864
H  H42  1  0.30680000  0.13820000  0.12540000  1.0 0.1214862864
H  H43  1  0.30680000  0.36180000  0.12540000  1.0 0.1214862864
H  H44  1  0.19320000  0.63820000  0.62540000  1.0 0.1214862864
H  H45  1  0.08230000  0.89450000  0.57970000  1.0 0.1100653372
H  H46  1  0.41770000  0.10550000  0.07970000  1.0 0.1100653372
H  H47  1  0.41770000  0.39450000  0.07970000  1.0 0.1100653372
H  H48  1  0.08230000  0.60550000  0.57970000  1.0 0.1100653372
H  H49  1  0.85810000  0.82670000  0.52210000  1.0 0.1100653372
H  H50  1  0.64190000  0.17330000  0.02210000  1.0 0.1100653372
H  H51  1  0.64190000  0.32670000  0.02210000  1.0 0.1100653372
H  H52  1  0.85810000  0.67330000  0.52210000  1.0 0.1100653372
H  H53  1  0.72590000  0.81550000  0.56070000  1.0 0.1250516299
H  H54  1  0.77410000  0.18450000  0.06070000  1.0 0.1214862864
H  H55  1  0.77410000  0.31550000  0.06070000  1.0 0.1214862864
H  H56  1  0.72590000  0.68450000  0.56070000  1.0 0.1250516299
H  H57  1  0.67400000  0.98350000  0.50800000  1.0 0.1100653372
H  H58  1  0.82600000  0.01650000  0.00800000  1.0 0.1100653372
H  H59  1  0.82600000  0.48350000  0.00800000  1.0 0.1100653372
H  H60  1  0.67400000  0.51650000  0.50800000  1.0 0.1100653372
H  H61  1  0.79580000  0.99400000  0.47080000  1.0 0.1100653372
H  H62  1  0.70420000  0.00600000  0.97080000  1.0 0.1100653372
H  H63  1  0.70420000  0.49400000  0.97080000  1.0 0.1100653372
H  H64  1  0.79580000  0.50600000  0.47080000  1.0 0.1100653372
H  H65  1  0.20340000  0.23160000  0.25940000  1.0 0.3034303311
H  H66  1  0.29660000  0.76840000  0.75940000  1.0 0.3034303311
H  H67  1  0.29660000  0.73160000  0.75940000  1.0 0.3034303311
H  H68  1  0.20340000  0.26840000  0.25940000  1.0 0.3034303311
H  H69  1  0.03420000  0.56510000  0.96670000  1.0 0.3310148391
H  H70  1  0.46580000  0.43490000  0.46670000  1.0 0.3310148391
H  H71  1  0.46580000  0.06510000  0.46670000  1.0 0.3310148391
H  H72  1  0.03420000  0.93490000  0.96670000  1.0 0.3310148391
H  H73  1  0.60950000  0.37140000  0.18780000  1.0 0.1100653372
H  H74  1  0.89050000  0.62860000  0.68780000  1.0 0.1100653372
H  H75  1  0.89050000  0.87140000  0.68780000  1.0 0.1100653372
H  H76  1  0.60950000  0.12860000  0.18780000  1.0 0.1100653372
H  H77  1  0.59870000  0.43770000  0.11630000  1.0 0.1100653372
H  H78  1  0.90130000  0.56230000  0.61630000  1.0 0.1100653372
H  H79  1  0.90130000  0.93770000  0.61630000  1.0 0.1100653372
H  H80  1  0.59870000  0.06230000  0.11630000  1.0 0.1100653372
H  H81  1  0.42800000  0.53190000  0.19150000  1.0 0.1100653372
H  H82  1  0.07200000  0.46810000  0.69150000  1.0 0.1100653372
H  H83  1  0.07200000  0.03190000  0.69150000  1.0 0.1100653372
H  H84  1  0.42800000  0.96810000  0.19150000  1.0 0.1100653372
H  H85  1  0.44400000  0.46780000  0.26450000  1.0 0.1214862864
H  H86  1  0.05600000  0.53220000  0.76450000  1.0 0.1214862864
H  H87  1  0.05600000  0.96780000  0.76450000  1.0 0.1214862864
H  H88  1  0.44400000  0.03220000  0.26450000  1.0 0.1214862864
H  H89  1  0.61760000  0.54080000  0.08210000  1.0 0.1100653372
H  H90  1  0.88240000  0.45920000  0.58210000  1.0 0.1100653372
H  H91  1  0.88240000  0.04080000  0.58210000  1.0 0.1100653372
H  H92  1  0.61760000  0.95920000  0.08210000  1.0 0.1100653372
H  H93  1  0.47950000  0.62590000  0.97490000  1.0 0.1100653372
H  H94  1  0.02050000  0.37410000  0.47490000  1.0 0.1100653372
H  H95  1  0.02050000  0.12590000  0.47490000  1.0 0.1100653372
H  H96  1  0.47950000  0.87410000  0.97490000  1.0 0.1100653372
H  H97  1  0.38360000  0.53600000  0.09890000  1.0 0.1100653372
H  H98  1  0.11640000  0.46400000  0.59890000  1.0 0.1100653372
H  H99  1  0.11640000  0.03600000  0.59890000  1.0 0.1100653372
H  H100  1  0.38360000  0.96400000  0.09890000  1.0 0.1100653372
H  H101  1  0.70360000  0.60660000  0.05510000  1.0 0.1100653372
H  H102  1  0.79640000  0.39340000  0.55510000  1.0 0.1100653372
H  H103  1  0.79640000  0.10660000  0.55510000  1.0 0.1100653372
H  H104  1  0.70360000  0.89340000  0.05510000  1.0 0.1100653372
H  H105  1  0.81540000  0.63680000  0.01110000  1.0 0.1214862864
H  H106  1  0.68460000  0.36320000  0.51110000  1.0 0.1214862864
H  H107  1  0.68460000  0.13680000  0.51110000  1.0 0.1214862864
H  H108  1  0.81540000  0.86320000  0.01110000  1.0 0.1214862864
H  H109  1  0.69320000  0.63820000  0.87460000  1.0 0.1214862864
H  H110  1  0.80680000  0.36180000  0.37460000  1.0 0.1214862864
H  H111  1  0.80680000  0.13820000  0.37460000  1.0 0.1214862864
H  H112  1  0.69320000  0.86180000  0.87460000  1.0 0.1214862864
H  H113  1  0.58230000  0.60550000  0.92030000  1.0 0.1100653372
H  H114  1  0.91770000  0.39450000  0.42030000  1.0 0.1100653372
H  H115  1  0.91770000  0.10550000  0.42030000  1.0 0.1100653372
H  H116  1  0.58230000  0.89450000  0.92030000  1.0 0.1100653372
H  H117  1  0.35810000  0.67330000  0.97790000  1.0 0.1100653372
H  H118  1  0.14190000  0.32670000  0.47790000  1.0 0.1100653372
H  H119  1  0.14190000  0.17330000  0.47790000  1.0 0.1100653372
H  H120  1  0.35810000  0.82670000  0.97790000  1.0 0.1100653372
H  H121  1  0.22590000  0.68450000  0.93930000  1.0 0.1250516299
H  H122  1  0.27410000  0.31550000  0.43930000  1.0 0.1250516299
H  H123  1  0.27410000  0.18450000  0.43930000  1.0 0.1250516299
H  H124  1  0.22590000  0.81550000  0.93930000  1.0 0.1250516299
H  H125  1  0.17400000  0.51650000  0.99200000  1.0 0.1100653372
H  H126  1  0.32600000  0.48350000  0.49200000  1.0 0.1100653372
H  H127  1  0.32600000  0.01650000  0.49200000  1.0 0.1100653372
H  H128  1  0.17400000  0.98350000  0.99200000  1.0 0.1100653372
H  H129  1  0.29580000  0.50600000  0.02920000  1.0 0.1100653372
H  H130  1  0.20420000  0.49400000  0.52920000  1.0 0.1100653372
H  H131  1  0.20420000  0.00600000  0.52920000  1.0 0.1100653372
H  H132  1  0.29580000  0.99400000  0.02920000  1.0 0.1100653372
H  H133  1  0.70340000  0.26840000  0.24060000  1.0 0.3034303311
H  H134  1  0.79660000  0.73160000  0.74060000  1.0 0.3034303311
H  H135  1  0.79660000  0.76840000  0.74060000  1.0 0.3034303311
H  H136  1  0.70340000  0.23160000  0.24060000  1.0 0.3034303311
C  C1  1  0.03720000  0.13160000  0.22180000  1.0 0.5907222602
C  C2  1  0.46280000  0.86840000  0.72180000  1.0 0.5907222602
C  C3  1  0.46280000  0.63160000  0.72180000  1.0 0.5907222602
C  C4  1  0.03720000  0.36840000  0.22180000  1.0 0.5907222602
C  C5  1  0.02720000  0.08720000  0.26810000  1.0 -0.0275130033
C  C6  1  0.47280000  0.91280000  0.76810000  1.0 -0.0275130033
C  C7  1  0.47280000  0.58720000  0.76810000  1.0 -0.0275130033
C  C8  1  0.02720000  0.41280000  0.26810000  1.0 -0.0275130033
C  C9  1  0.07270000  0.09580000  0.31140000  1.0 -0.0996211142
C  C10  1  0.42730000  0.90420000  0.81140000  1.0 -0.0996211142
C  C11  1  0.42730000  0.59580000  0.81140000  1.0 -0.0996211142
C  C12  1  0.07270000  0.40420000  0.31140000  1.0 -0.0996211142
C  C13  1  0.06530000  0.05670000  0.35420000  1.0 -0.158090622
C  C14  1  0.43470000  0.94330000  0.85420000  1.0 -0.158090622
C  C15  1  0.43470000  0.55670000  0.85420000  1.0 -0.158090622
C  C16  1  0.06530000  0.44330000  0.35420000  1.0 -0.158090622
C  C17  1  0.01180000  0.01050000  0.35550000  1.0 0.0726335544
C  C18  1  0.48820000  0.98950000  0.85550000  1.0 0.0726335544
C  C19  1  0.48820000  0.51050000  0.85550000  1.0 0.0726335544
C  C20  1  0.01180000  0.48950000  0.35550000  1.0 0.0726335544
C  C21  1  0.96510000  0.00080000  0.30940000  1.0 -0.158090622
C  C22  1  0.53490000  0.99920000  0.80940000  1.0 -0.158090622
C  C23  1  0.53490000  0.50080000  0.80940000  1.0 -0.158090622
C  C24  1  0.96510000  0.49920000  0.30940000  1.0 -0.158090622
C  C25  1  0.97420000  0.03890000  0.26650000  1.0 -0.0928469336
C  C26  1  0.52580000  0.96110000  0.76650000  1.0 -0.0928469336
C  C27  1  0.52580000  0.53890000  0.76650000  1.0 -0.0928469336
C  C28  1  0.97420000  0.46110000  0.26650000  1.0 -0.0928469336
C  C29  1  0.00110000  0.97010000  0.40320000  1.0 0.0793123806
C  C30  1  0.49890000  0.02990000  0.90320000  1.0 0.0793123806
C  C31  1  0.49890000  0.47010000  0.90320000  1.0 0.0793123806
C  C32  1  0.00110000  0.52990000  0.40320000  1.0 0.0793123806
C  C33  1  0.06730000  0.94910000  0.43090000  1.0 -0.2067449878
C  C34  1  0.43270000  0.05090000  0.93090000  1.0 -0.2067449878
C  C35  1  0.43270000  0.44910000  0.93090000  1.0 -0.2067449878
C  C36  1  0.06730000  0.55090000  0.43090000  1.0 -0.2067449878
C  C37  1  0.06060000  0.91390000  0.47680000  1.0 0.0860327232
C  C38  1  0.43940000  0.08610000  0.97680000  1.0 0.0860327232
C  C39  1  0.43940000  0.41390000  0.97680000  1.0 0.0860327232
C  C40  1  0.06060000  0.58610000  0.47680000  1.0 0.0860327232
C  C41  1  0.98540000  0.89920000  0.49450000  1.0 -0.2067449878
C  C42  1  0.51460000  0.10080000  0.99450000  1.0 -0.2067449878
C  C43  1  0.51460000  0.39920000  0.99450000  1.0 -0.2067449878
C  C44  1  0.98540000  0.60080000  0.49450000  1.0 -0.2067449878
C  C45  1  0.91940000  0.92020000  0.46850000  1.0 0.0860327232
C  C46  1  0.58060000  0.07980000  0.96850000  1.0 0.0860327232
C  C47  1  0.58060000  0.42020000  0.96850000  1.0 0.0860327232
C  C48  1  0.91940000  0.57980000  0.46850000  1.0 0.0860327232
C  C49  1  0.92840000  0.95320000  0.42120000  1.0 -0.2067449878
C  C50  1  0.57160000  0.04680000  0.92120000  1.0 -0.2067449878
C  C51  1  0.57160000  0.45320000  0.92120000  1.0 -0.2067449878
C  C52  1  0.92840000  0.54680000  0.42120000  1.0 -0.2067449878
C  C53  1  0.13270000  0.89300000  0.50610000  1.0 0.0726335544
C  C54  1  0.36730000  0.10700000  0.00610000  1.0 0.0726335544
C  C55  1  0.36730000  0.39300000  0.00610000  1.0 0.0726335544
C  C56  1  0.13270000  0.60700000  0.50610000  1.0 0.0726335544
C  C57  1  0.20090000  0.88600000  0.48190000  1.0 -0.1477186929
C  C58  1  0.29910000  0.11400000  0.98190000  1.0 -0.1477186929
C  C59  1  0.29910000  0.38600000  0.98190000  1.0 -0.1477186929
C  C60  1  0.20090000  0.61400000  0.48190000  1.0 -0.1477186929
C  C61  1  0.26810000  0.86840000  0.50800000  1.0 -0.0996211142
C  C62  1  0.23190000  0.13160000  0.00800000  1.0 -0.0996211142
C  C63  1  0.23190000  0.36840000  0.00800000  1.0 -0.0996211142
C  C64  1  0.26810000  0.63160000  0.50800000  1.0 -0.0996211142
C  C65  1  0.26660000  0.85850000  0.56100000  1.0 -0.0221783811
C  C66  1  0.23340000  0.14150000  0.06100000  1.0 -0.0221783811
C  C67  1  0.23340000  0.35850000  0.06100000  1.0 -0.0221783811
C  C68  1  0.26660000  0.64150000  0.56100000  1.0 -0.0221783811
C  C69  1  0.19550000  0.86800000  0.58830000  1.0 -0.0996211142
C  C70  1  0.30450000  0.13200000  0.08830000  1.0 -0.0996211142
C  C71  1  0.30450000  0.36800000  0.08830000  1.0 -0.0996211142
C  C72  1  0.19550000  0.63200000  0.58830000  1.0 -0.0996211142
C  C73  1  0.12930000  0.88640000  0.56120000  1.0 -0.1672164079
C  C74  1  0.37070000  0.11360000  0.06120000  1.0 -0.1672164079
C  C75  1  0.37070000  0.38640000  0.06120000  1.0 -0.1672164079
C  C76  1  0.12930000  0.61360000  0.56120000  1.0 -0.1672164079
C  C77  1  0.33790000  0.83830000  0.59160000  1.0 0.5808803711
C  C78  1  0.16210000  0.16170000  0.09160000  1.0 0.5808803711
C  C79  1  0.16210000  0.33830000  0.09160000  1.0 0.5808803711
C  C80  1  0.33790000  0.66170000  0.59160000  1.0 0.5808803711
C  C81  1  0.83840000  0.90770000  0.48890000  1.0 0.0793123806
C  C82  1  0.66160000  0.09230000  0.98890000  1.0 0.0793123806
C  C83  1  0.66160000  0.40770000  0.98890000  1.0 0.0793123806
C  C84  1  0.83840000  0.59230000  0.48890000  1.0 0.0793123806
C  C85  1  0.82040000  0.85830000  0.51700000  1.0 -0.1477186929
C  C86  1  0.67960000  0.14170000  0.01700000  1.0 -0.1477186929
C  C87  1  0.67960000  0.35830000  0.01700000  1.0 -0.1477186929
C  C88  1  0.82040000  0.64170000  0.51700000  1.0 -0.1477186929
C  C89  1  0.73980000  0.85150000  0.54130000  1.0 -0.0996211142
C  C90  1  0.76020000  0.14850000  0.04130000  1.0 -0.0996211142
C  C91  1  0.76020000  0.35150000  0.04130000  1.0 -0.0996211142
C  C92  1  0.73980000  0.64850000  0.54130000  1.0 -0.0996211142
C  C93  1  0.68920000  0.89790000  0.53450000  1.0 -0.0221783811
C  C94  1  0.81080000  0.10210000  0.03450000  1.0 -0.0221783811
C  C95  1  0.81080000  0.39790000  0.03450000  1.0 -0.0221783811
C  C96  1  0.68920000  0.60210000  0.53450000  1.0 -0.0221783811
C  C97  1  0.70990000  0.95010000  0.51000000  1.0 -0.127712759
C  C98  1  0.79010000  0.04990000  0.01000000  1.0 -0.127712759
C  C99  1  0.79010000  0.45010000  0.01000000  1.0 -0.127712759
C  C100  1  0.70990000  0.54990000  0.51000000  1.0 -0.127712759
C  C101  1  0.78260000  0.95610000  0.48770000  1.0 -0.158090622
C  C102  1  0.71740000  0.04390000  0.98770000  1.0 -0.158090622
C  C103  1  0.71740000  0.45610000  0.98770000  1.0 -0.158090622
C  C104  1  0.78260000  0.54390000  0.48770000  1.0 -0.158090622
C  C105  1  0.60620000  0.89380000  0.56120000  1.0 0.5212252114
C  C106  1  0.89380000  0.10620000  0.06120000  1.0 0.5212252114
C  C107  1  0.89380000  0.39380000  0.06120000  1.0 0.5212252114
C  C108  1  0.60620000  0.60620000  0.56120000  1.0 0.5212252114
C  C109  1  0.53720000  0.36840000  0.27820000  1.0 0.5907222602
C  C110  1  0.96280000  0.63160000  0.77820000  1.0 0.5907222602
C  C111  1  0.96280000  0.86840000  0.77820000  1.0 0.5907222602
C  C112  1  0.53720000  0.13160000  0.27820000  1.0 0.5907222602
C  C113  1  0.52720000  0.41280000  0.23190000  1.0 -0.0275130033
C  C114  1  0.97280000  0.58720000  0.73190000  1.0 -0.0275130033
C  C115  1  0.97280000  0.91280000  0.73190000  1.0 -0.0275130033
C  C116  1  0.52720000  0.08720000  0.23190000  1.0 -0.0275130033
C  C117  1  0.57270000  0.40420000  0.18860000  1.0 -0.0996211142
C  C118  1  0.92730000  0.59580000  0.68860000  1.0 -0.0996211142
C  C119  1  0.92730000  0.90420000  0.68860000  1.0 -0.0996211142
C  C120  1  0.57270000  0.09580000  0.18860000  1.0 -0.0996211142
C  C121  1  0.56530000  0.44330000  0.14580000  1.0 -0.158090622
C  C122  1  0.93470000  0.55670000  0.64580000  1.0 -0.158090622
C  C123  1  0.93470000  0.94330000  0.64580000  1.0 -0.158090622
C  C124  1  0.56530000  0.05670000  0.14580000  1.0 -0.158090622
C  C125  1  0.51180000  0.48950000  0.14450000  1.0 0.0726335544
C  C126  1  0.98820000  0.51050000  0.64450000  1.0 0.0726335544
C  C127  1  0.98820000  0.98950000  0.64450000  1.0 0.0726335544
C  C128  1  0.51180000  0.01050000  0.14450000  1.0 0.0726335544
C  C129  1  0.46510000  0.49920000  0.19060000  1.0 -0.158090622
C  C130  1  0.03490000  0.50080000  0.69060000  1.0 -0.158090622
C  C131  1  0.03490000  0.99920000  0.69060000  1.0 -0.158090622
C  C132  1  0.46510000  0.00080000  0.19060000  1.0 -0.158090622
C  C133  1  0.47420000  0.46110000  0.23350000  1.0 -0.0928469336
C  C134  1  0.02580000  0.53890000  0.73350000  1.0 -0.0928469336
C  C135  1  0.02580000  0.96110000  0.73350000  1.0 -0.0928469336
C  C136  1  0.47420000  0.03890000  0.23350000  1.0 -0.0928469336
C  C137  1  0.50110000  0.52990000  0.09680000  1.0 0.0793123806
C  C138  1  0.99890000  0.47010000  0.59680000  1.0 0.0793123806
C  C139  1  0.99890000  0.02990000  0.59680000  1.0 0.0793123806
C  C140  1  0.50110000  0.97010000  0.09680000  1.0 0.0793123806
C  C141  1  0.56730000  0.55090000  0.06910000  1.0 -0.2067449878
C  C142  1  0.93270000  0.44910000  0.56910000  1.0 -0.2067449878
C  C143  1  0.93270000  0.05090000  0.56910000  1.0 -0.2067449878
C  C144  1  0.56730000  0.94910000  0.06910000  1.0 -0.2067449878
C  C145  1  0.56060000  0.58610000  0.02320000  1.0 0.0860327232
C  C146  1  0.93940000  0.41390000  0.52320000  1.0 0.0860327232
C  C147  1  0.93940000  0.08610000  0.52320000  1.0 0.0860327232
C  C148  1  0.56060000  0.91390000  0.02320000  1.0 0.0860327232
C  C149  1  0.48540000  0.60080000  0.00550000  1.0 -0.2067449878
C  C150  1  0.01460000  0.39920000  0.50550000  1.0 -0.2067449878
C  C151  1  0.01460000  0.10080000  0.50550000  1.0 -0.2067449878
C  C152  1  0.48540000  0.89920000  0.00550000  1.0 -0.2067449878
C  C153  1  0.41940000  0.57980000  0.03150000  1.0 0.0860327232
C  C154  1  0.08060000  0.42020000  0.53150000  1.0 0.0860327232
C  C155  1  0.08060000  0.07980000  0.53150000  1.0 0.0860327232
C  C156  1  0.41940000  0.92020000  0.03150000  1.0 0.0860327232
C  C157  1  0.42840000  0.54680000  0.07880000  1.0 -0.204967561
C  C158  1  0.07160000  0.45320000  0.57880000  1.0 -0.2067449878
C  C159  1  0.07160000  0.04680000  0.57880000  1.0 -0.2067449878
C  C160  1  0.42840000  0.95320000  0.07880000  1.0 -0.204967561
C  C161  1  0.63270000  0.60700000  0.99390000  1.0 0.0726335544
C  C162  1  0.86730000  0.39300000  0.49390000  1.0 0.0726335544
C  C163  1  0.86730000  0.10700000  0.49390000  1.0 0.0726335544
C  C164  1  0.63270000  0.89300000  0.99390000  1.0 0.0726335544
C  C165  1  0.70090000  0.61400000  0.01810000  1.0 -0.1477186929
C  C166  1  0.79910000  0.38600000  0.51810000  1.0 -0.1477186929
C  C167  1  0.79910000  0.11400000  0.51810000  1.0 -0.1477186929
C  C168  1  0.70090000  0.88600000  0.01810000  1.0 -0.1477186929
C  C169  1  0.76810000  0.63160000  0.99200000  1.0 -0.0996211142
C  C170  1  0.73190000  0.36840000  0.49200000  1.0 -0.0996211142
C  C171  1  0.73190000  0.13160000  0.49200000  1.0 -0.0996211142
C  C172  1  0.76810000  0.86840000  0.99200000  1.0 -0.0996211142
C  C173  1  0.76660000  0.64150000  0.93900000  1.0 -0.0221783811
C  C174  1  0.73340000  0.35850000  0.43900000  1.0 -0.0221783811
C  C175  1  0.73340000  0.14150000  0.43900000  1.0 -0.0221783811
C  C176  1  0.76660000  0.85850000  0.93900000  1.0 -0.0221783811
C  C177  1  0.69550000  0.63200000  0.91170000  1.0 -0.0996211142
C  C178  1  0.80450000  0.36800000  0.41170000  1.0 -0.0996211142
C  C179  1  0.80450000  0.13200000  0.41170000  1.0 -0.0996211142
C  C180  1  0.69550000  0.86800000  0.91170000  1.0 -0.0996211142
C  C181  1  0.62930000  0.61360000  0.93880000  1.0 -0.1672164079
C  C182  1  0.87070000  0.38640000  0.43880000  1.0 -0.1672164079
C  C183  1  0.87070000  0.11360000  0.43880000  1.0 -0.1672164079
C  C184  1  0.62930000  0.88640000  0.93880000  1.0 -0.1672164079
C  C185  1  0.83790000  0.66170000  0.90840000  1.0 0.5808803711
C  C186  1  0.66210000  0.33830000  0.40840000  1.0 0.5808803711
C  C187  1  0.66210000  0.16170000  0.40840000  1.0 0.5808803711
C  C188  1  0.83790000  0.83830000  0.90840000  1.0 0.5808803711
C  C189  1  0.33840000  0.59230000  0.01110000  1.0 0.0793123806
C  C190  1  0.16160000  0.40770000  0.51110000  1.0 0.0793123806
C  C191  1  0.16160000  0.09230000  0.51110000  1.0 0.0793123806
C  C192  1  0.33840000  0.90770000  0.01110000  1.0 0.0793123806
C  C193  1  0.32040000  0.64170000  0.98300000  1.0 -0.1477186929
C  C194  1  0.17960000  0.35830000  0.48300000  1.0 -0.1477186929
C  C195  1  0.17960000  0.14170000  0.48300000  1.0 -0.1477186929
C  C196  1  0.32040000  0.85830000  0.98300000  1.0 -0.1477186929
C  C197  1  0.23980000  0.64850000  0.95870000  1.0 -0.0996211142
C  C198  1  0.26020000  0.35150000  0.45870000  1.0 -0.0996211142
C  C199  1  0.26020000  0.14850000  0.45870000  1.0 -0.0996211142
C  C200  1  0.23980000  0.85150000  0.95870000  1.0 -0.0996211142
C  C201  1  0.18920000  0.60210000  0.96550000  1.0 -0.0221783811
C  C202  1  0.31080000  0.39790000  0.46550000  1.0 -0.0221783811
C  C203  1  0.31080000  0.10210000  0.46550000  1.0 -0.0221783811
C  C204  1  0.18920000  0.89790000  0.96550000  1.0 -0.0221783811
C  C205  1  0.20990000  0.54990000  0.99000000  1.0 -0.127712759
C  C206  1  0.29010000  0.45010000  0.49000000  1.0 -0.127712759
C  C207  1  0.29010000  0.04990000  0.49000000  1.0 -0.127712759
C  C208  1  0.20990000  0.95010000  0.99000000  1.0 -0.127712759
C  C209  1  0.28260000  0.54390000  0.01230000  1.0 -0.158090622
C  C210  1  0.21740000  0.45610000  0.51230000  1.0 -0.158090622
C  C211  1  0.21740000  0.04390000  0.51230000  1.0 -0.158090622
C  C212  1  0.28260000  0.95610000  0.01230000  1.0 -0.158090622
C  C213  1  0.10620000  0.60620000  0.93880000  1.0 0.5212252114
C  C214  1  0.39380000  0.39380000  0.43880000  1.0 0.5212252114
C  C215  1  0.39380000  0.10620000  0.43880000  1.0 0.5212252114
C  C216  1  0.10620000  0.89380000  0.93880000  1.0 0.5212252114
O  O1  1  0.07240000  0.18120000  0.23000000  1.0 -0.5514497585
O  O2  1  0.42760000  0.81880000  0.73000000  1.0 -0.5449284341
O  O3  1  0.42760000  0.68120000  0.73000000  1.0 -0.5514497585
O  O4  1  0.07240000  0.31880000  0.23000000  1.0 -0.5514497585
O  O5  1  0.00570000  0.11460000  0.17810000  1.0 -0.5514497585
O  O6  1  0.49430000  0.88540000  0.67810000  1.0 -0.5514497585
O  O7  1  0.49430000  0.61460000  0.67810000  1.0 -0.5514497585
O  O8  1  0.00570000  0.38540000  0.17810000  1.0 -0.5514497585
O  O9  1  0.40290000  0.84750000  0.56910000  1.0 -0.5578675147
O  O10  1  0.09710000  0.15250000  0.06910000  1.0 -0.5578675147
O  O11  1  0.09710000  0.34750000  0.06910000  1.0 -0.5578675147
O  O12  1  0.40290000  0.65250000  0.56910000  1.0 -0.5578675147
O  O13  1  0.32910000  0.81760000  0.63640000  1.0 -0.5282101956
O  O14  1  0.17090000  0.18240000  0.13640000  1.0 -0.5282101956
O  O15  1  0.17090000  0.31760000  0.13640000  1.0 -0.5282101956
O  O16  1  0.32910000  0.68240000  0.63640000  1.0 -0.5282101956
O  O17  1  0.59320000  0.84440000  0.57820000  1.0 -0.4101800796
O  O18  1  0.90680000  0.15560000  0.07820000  1.0 -0.4101800796
O  O19  1  0.90680000  0.34440000  0.07820000  1.0 -0.4101800796
O  O20  1  0.59320000  0.65560000  0.57820000  1.0 -0.4101800796
O  O21  1  0.56110000  0.93610000  0.56100000  1.0 -0.347448415
O  O22  1  0.93890000  0.06390000  0.06100000  1.0 -0.347448415
O  O23  1  0.93890000  0.43610000  0.06100000  1.0 -0.347448415
O  O24  1  0.56110000  0.56390000  0.56100000  1.0 -0.347448415
O  O25  1  0.21380000  0.25000000  0.23100000  1.0 -0.5822201546
O  O26  1  0.28620000  0.75000000  0.73100000  1.0 -0.5822201546
O  O27  1  0.01320000  0.25000000  0.14150000  1.0 -0.8789837536
O  O28  1  0.48680000  0.75000000  0.64150000  1.0 -0.8789837536
O  O29  1  0.57240000  0.31880000  0.27000000  1.0 -0.5449284341
O  O30  1  0.92760000  0.68120000  0.77000000  1.0 -0.5449284341
O  O31  1  0.92760000  0.81880000  0.77000000  1.0 -0.5449284341
O  O32  1  0.57240000  0.18120000  0.27000000  1.0 -0.5514497585
O  O33  1  0.50570000  0.38540000  0.32190000  1.0 -0.5514497585
O  O34  1  0.99430000  0.61460000  0.82190000  1.0 -0.5514497585
O  O35  1  0.99430000  0.88540000  0.82190000  1.0 -0.5514497585
O  O36  1  0.50570000  0.11460000  0.32190000  1.0 -0.5514497585
O  O37  1  0.90290000  0.65250000  0.93090000  1.0 -0.5578675147
O  O38  1  0.59710000  0.34750000  0.43090000  1.0 -0.5578675147
O  O39  1  0.59710000  0.15250000  0.43090000  1.0 -0.5578675147
O  O40  1  0.90290000  0.84750000  0.93090000  1.0 -0.5578675147
O  O41  1  0.82910000  0.68240000  0.86360000  1.0 -0.5282101956
O  O42  1  0.67090000  0.31760000  0.36360000  1.0 -0.5282101956
O  O43  1  0.67090000  0.18240000  0.36360000  1.0 -0.5282101956
O  O44  1  0.82910000  0.81760000  0.86360000  1.0 -0.5282101956
O  O45  1  0.09320000  0.65560000  0.92180000  1.0 -0.4101800796
O  O46  1  0.40680000  0.34440000  0.42180000  1.0 -0.4101800796
O  O47  1  0.40680000  0.15560000  0.42180000  1.0 -0.4101800796
O  O48  1  0.09320000  0.84440000  0.92180000  1.0 -0.4101800796
O  O49  1  0.06110000  0.56390000  0.93900000  1.0 -0.347448415
O  O50  1  0.43890000  0.43610000  0.43900000  1.0 -0.347448415
O  O51  1  0.43890000  0.06390000  0.43900000  1.0 -0.347448415
O  O52  1  0.06110000  0.93610000  0.93900000  1.0 -0.347448415
O  O53  1  0.71380000  0.25000000  0.26900000  1.0 -0.5822201546
O  O54  1  0.78620000  0.75000000  0.76900000  1.0 -0.5822201546
O  O55  1  0.51320000  0.25000000  0.35850000  1.0 -0.8789837536
O  O56  1  0.98680000  0.75000000  0.85850000  1.0 -0.8789837536
