# DDEC6 charges by PACMAN v1.1 (https://github.com/mtap-research/PACMAN-charge/)
data_PUWDAM_FSR_pacman
_symmetry_space_group_name_H-M   'P 1'
_cell_length_a   11.72200000
_cell_length_b   11.72200000
_cell_length_c   23.74000000
_cell_angle_alpha   90.00000000
_cell_angle_beta   90.00000000
_cell_angle_gamma   90.00000000
_symmetry_Int_Tables_number   1
_chemical_formula_structural   ZnH10(C4O)5
_chemical_formula_sum   'Zn4 H40 C80 O20'
_cell_volume   3262.00144216
_cell_formula_units_Z   4
loop_
 _symmetry_equiv_pos_site_id
 _symmetry_equiv_pos_as_xyz
  1  'x, y, z'
loop_
 _atom_site_type_symbol
 _atom_site_label
 _atom_site_symmetry_multiplicity
 _atom_site_fract_x
 _atom_site_fract_y
 _atom_site_fract_z
 _atom_site_occupancy
 _atom_site_charge
Zn  Zn1  1  0.37430000  0.00000000  0.00000000  1.0 0.3114497701
Zn  Zn2  1  0.00000000  0.37430000  0.50000000  1.0 0.3114497701
Zn  Zn3  1  0.62570000  0.00000000  0.00000000  1.0 0.3114497701
Zn  Zn4  1  0.00000000  0.62570000  0.50000000  1.0 0.3114497701
H  H1  1  0.14310000  0.05330000  0.00000000  1.0 0.0824409753
H  H2  1  0.94670000  0.14310000  0.50000000  1.0 0.0824409753
H  H3  1  0.14310000  0.94670000  0.00000000  1.0 0.0824409753
H  H4  1  0.85690000  0.94670000  0.00000000  1.0 0.0824409753
H  H5  1  0.05330000  0.14310000  0.50000000  1.0 0.0824409753
H  H6  1  0.05330000  0.85690000  0.50000000  1.0 0.0824409753
H  H7  1  0.85690000  0.05330000  0.00000000  1.0 0.0824409753
H  H8  1  0.94670000  0.85690000  0.50000000  1.0 0.0824409753
H  H9  1  0.32860000  0.38790000  0.20250000  1.0 0.1029023865
H  H10  1  0.61210000  0.32860000  0.70250000  1.0 0.1029023865
H  H11  1  0.32860000  0.61210000  0.79750000  1.0 0.1029023865
H  H12  1  0.67140000  0.61210000  0.20250000  1.0 0.1029023865
H  H13  1  0.38790000  0.32860000  0.29750000  1.0 0.1029023865
H  H14  1  0.38790000  0.67140000  0.70250000  1.0 0.1029023865
H  H15  1  0.67140000  0.38790000  0.79750000  1.0 0.1029023865
H  H16  1  0.61210000  0.67140000  0.29750000  1.0 0.1029023865
H  H17  1  0.67140000  0.61210000  0.79750000  1.0 0.1029023865
H  H18  1  0.38790000  0.67140000  0.29750000  1.0 0.1029023865
H  H19  1  0.67140000  0.38790000  0.20250000  1.0 0.1029023865
H  H20  1  0.32860000  0.38790000  0.79750000  1.0 0.1029023865
H  H21  1  0.61210000  0.67140000  0.70250000  1.0 0.1029023865
H  H22  1  0.61210000  0.32860000  0.29750000  1.0 0.1029023865
H  H23  1  0.32860000  0.61210000  0.20250000  1.0 0.1029023865
H  H24  1  0.38790000  0.32860000  0.70250000  1.0 0.1029023865
H  H25  1  0.32990000  0.24320000  0.12940000  1.0 0.1326359662
H  H26  1  0.75680000  0.32990000  0.62940000  1.0 0.1326359662
H  H27  1  0.32990000  0.75680000  0.87060000  1.0 0.1326359662
H  H28  1  0.67010000  0.75680000  0.12940000  1.0 0.1326359662
H  H29  1  0.24320000  0.32990000  0.37060000  1.0 0.1326359662
H  H30  1  0.24320000  0.67010000  0.62940000  1.0 0.1326359662
H  H31  1  0.67010000  0.24320000  0.87060000  1.0 0.1326359662
H  H32  1  0.75680000  0.67010000  0.37060000  1.0 0.1326359662
H  H33  1  0.67010000  0.75680000  0.87060000  1.0 0.1326359662
H  H34  1  0.24320000  0.67010000  0.37060000  1.0 0.1326359662
H  H35  1  0.67010000  0.24320000  0.12940000  1.0 0.1326359662
H  H36  1  0.32990000  0.24320000  0.87060000  1.0 0.1326359662
H  H37  1  0.75680000  0.67010000  0.62940000  1.0 0.1326359662
H  H38  1  0.75680000  0.32990000  0.37060000  1.0 0.1326359662
H  H39  1  0.32990000  0.75680000  0.12940000  1.0 0.1326359662
H  H40  1  0.24320000  0.32990000  0.62940000  1.0 0.1326359662
C  C1  1  0.50000000  0.50000000  0.25000000  1.0 0.0079611096
C  C2  1  0.50000000  0.50000000  0.75000000  1.0 0.0079611096
C  C3  1  0.50000000  0.39640000  0.20970000  1.0 0.053707788
C  C4  1  0.60360000  0.50000000  0.70970000  1.0 0.053707788
C  C5  1  0.50000000  0.60360000  0.79030000  1.0 0.053707788
C  C6  1  0.50000000  0.60360000  0.20970000  1.0 0.053707788
C  C7  1  0.39640000  0.50000000  0.29030000  1.0 0.053707788
C  C8  1  0.39640000  0.50000000  0.70970000  1.0 0.053707788
C  C9  1  0.50000000  0.39640000  0.79030000  1.0 0.053707788
C  C10  1  0.60360000  0.50000000  0.29030000  1.0 0.053707788
C  C11  1  0.39860000  0.35880000  0.18840000  1.0 -0.163012631
C  C12  1  0.64120000  0.39860000  0.68840000  1.0 -0.163012631
C  C13  1  0.39860000  0.64120000  0.81160000  1.0 -0.163012631
C  C14  1  0.60140000  0.64120000  0.18840000  1.0 -0.163012631
C  C15  1  0.35880000  0.39860000  0.31160000  1.0 -0.163012631
C  C16  1  0.35880000  0.60140000  0.68840000  1.0 -0.163012631
C  C17  1  0.60140000  0.35880000  0.81160000  1.0 -0.163012631
C  C18  1  0.64120000  0.60140000  0.31160000  1.0 -0.163012631
C  C19  1  0.60140000  0.64120000  0.81160000  1.0 -0.163012631
C  C20  1  0.35880000  0.60140000  0.31160000  1.0 -0.163012631
C  C21  1  0.60140000  0.35880000  0.18840000  1.0 -0.163012631
C  C22  1  0.39860000  0.35880000  0.81160000  1.0 -0.163012631
C  C23  1  0.64120000  0.60140000  0.68840000  1.0 -0.163012631
C  C24  1  0.64120000  0.39860000  0.31160000  1.0 -0.163012631
C  C25  1  0.39860000  0.64120000  0.18840000  1.0 -0.163012631
C  C26  1  0.35880000  0.39860000  0.68840000  1.0 -0.163012631
C  C27  1  0.39910000  0.27350000  0.14390000  1.0 -0.1234473376
C  C28  1  0.72650000  0.39910000  0.64390000  1.0 -0.1234473376
C  C29  1  0.39910000  0.72650000  0.85610000  1.0 -0.1234473376
C  C30  1  0.60090000  0.72650000  0.14390000  1.0 -0.1234473376
C  C31  1  0.27350000  0.39910000  0.35610000  1.0 -0.1234473376
C  C32  1  0.27350000  0.60090000  0.64390000  1.0 -0.1234473376
C  C33  1  0.60090000  0.27350000  0.85610000  1.0 -0.1234473376
C  C34  1  0.72650000  0.60090000  0.35610000  1.0 -0.1234473376
C  C35  1  0.60090000  0.72650000  0.85610000  1.0 -0.1234473376
C  C36  1  0.27350000  0.60090000  0.35610000  1.0 -0.1234473376
C  C37  1  0.60090000  0.27350000  0.14390000  1.0 -0.1234473376
C  C38  1  0.39910000  0.27350000  0.85610000  1.0 -0.1234473376
C  C39  1  0.72650000  0.60090000  0.64390000  1.0 -0.1234473376
C  C40  1  0.72650000  0.39910000  0.35610000  1.0 -0.1234473376
C  C41  1  0.39910000  0.72650000  0.14390000  1.0 -0.1234473376
C  C42  1  0.27350000  0.39910000  0.64390000  1.0 -0.1234473376
C  C43  1  0.50000000  0.23920000  0.12410000  1.0 0.0079611096
C  C44  1  0.76080000  0.50000000  0.62410000  1.0 0.0079611096
C  C45  1  0.50000000  0.76080000  0.87590000  1.0 0.0079611096
C  C46  1  0.50000000  0.76080000  0.12410000  1.0 0.0079611096
C  C47  1  0.23920000  0.50000000  0.37590000  1.0 0.0079611096
C  C48  1  0.23920000  0.50000000  0.62410000  1.0 0.0079611096
C  C49  1  0.50000000  0.23920000  0.87590000  1.0 0.0079611096
C  C50  1  0.76080000  0.50000000  0.37590000  1.0 0.0079611096
C  C51  1  0.50000000  0.15020000  0.07740000  1.0 0.2138684469
C  C52  1  0.84980000  0.50000000  0.57740000  1.0 0.2195347363
C  C53  1  0.50000000  0.84980000  0.92260000  1.0 0.2138684469
C  C54  1  0.50000000  0.84980000  0.07740000  1.0 0.2138684469
C  C55  1  0.15020000  0.50000000  0.42260000  1.0 0.2195347363
C  C56  1  0.15020000  0.50000000  0.57740000  1.0 0.2195347363
C  C57  1  0.50000000  0.15020000  0.92260000  1.0 0.2138684469
C  C58  1  0.84980000  0.50000000  0.42260000  1.0 0.2195347363
C  C59  1  0.50000000  0.00000000  0.00000000  1.0 -0.0991895383
C  C60  1  0.00000000  0.50000000  0.50000000  1.0 -0.086089935
C  C61  1  0.50000000  0.00000000  0.06900000  1.0 0.1489474639
C  C62  1  0.00000000  0.50000000  0.56900000  1.0 0.1489474639
C  C63  1  0.50000000  0.00000000  0.93100000  1.0 0.1489474639
C  C64  1  0.00000000  0.50000000  0.43100000  1.0 0.1553403253
C  C65  1  0.38200000  0.12000000  0.00000000  1.0 -0.0108140237
C  C66  1  0.88000000  0.38200000  0.50000000  1.0 -0.0165705637
C  C67  1  0.38200000  0.88000000  0.00000000  1.0 -0.0108140237
C  C68  1  0.61800000  0.88000000  0.00000000  1.0 -0.0108140237
C  C69  1  0.12000000  0.38200000  0.50000000  1.0 -0.0165705637
C  C70  1  0.12000000  0.61800000  0.50000000  1.0 -0.0165705637
C  C71  1  0.61800000  0.12000000  0.00000000  1.0 -0.0108140237
C  C72  1  0.88000000  0.61800000  0.50000000  1.0 -0.0165705637
C  C73  1  0.24800000  0.06600000  0.00000000  1.0 0.0213609915
C  C74  1  0.93400000  0.24800000  0.50000000  1.0 0.0213609915
C  C75  1  0.24800000  0.93400000  0.00000000  1.0 0.0213609915
C  C76  1  0.75200000  0.93400000  0.00000000  1.0 0.0213609915
C  C77  1  0.06600000  0.24800000  0.50000000  1.0 0.0213609915
C  C78  1  0.06600000  0.75200000  0.50000000  1.0 0.0213609915
C  C79  1  0.75200000  0.06600000  0.00000000  1.0 0.0213609915
C  C80  1  0.93400000  0.75200000  0.50000000  1.0 0.0213609915
O  O1  1  0.40650000  0.11930000  0.05970000  1.0 -0.2073706647
O  O2  1  0.88070000  0.40650000  0.55970000  1.0 -0.2073706647
O  O3  1  0.40650000  0.88070000  0.94030000  1.0 -0.2073706647
O  O4  1  0.59350000  0.88070000  0.05970000  1.0 -0.2073706647
O  O5  1  0.11930000  0.40650000  0.44030000  1.0 -0.2073706647
O  O6  1  0.11930000  0.59350000  0.55970000  1.0 -0.2073706647
O  O7  1  0.59350000  0.11930000  0.94030000  1.0 -0.2073706647
O  O8  1  0.88070000  0.59350000  0.44030000  1.0 -0.2073706647
O  O9  1  0.59350000  0.88070000  0.94030000  1.0 -0.2073706647
O  O10  1  0.11930000  0.59350000  0.44030000  1.0 -0.2073706647
O  O11  1  0.59350000  0.11930000  0.05970000  1.0 -0.2073706647
O  O12  1  0.40650000  0.11930000  0.94030000  1.0 -0.2073706647
O  O13  1  0.88070000  0.59350000  0.55970000  1.0 -0.2073706647
O  O14  1  0.88070000  0.40650000  0.44030000  1.0 -0.2073706647
O  O15  1  0.40650000  0.88070000  0.05970000  1.0 -0.2073706647
O  O16  1  0.11930000  0.40650000  0.55970000  1.0 -0.2073706647
O  O17  1  0.21400000  0.00000000  0.00000000  1.0 -0.1234473376
O  O18  1  0.00000000  0.21400000  0.50000000  1.0 -0.1234473376
O  O19  1  0.78600000  0.00000000  0.00000000  1.0 -0.1234473376
O  O20  1  0.00000000  0.78600000  0.50000000  1.0 -0.1234473376
