# DDEC6 charges by PACMAN v1.1 (https://github.com/mtap-research/PACMAN-charge/)
data_PUYHOI_ASR_pacman
_symmetry_space_group_name_H-M   'P 1'
_cell_length_a   14.38130000
_cell_length_b   14.38130000
_cell_length_c   15.76990000
_cell_angle_alpha   90.00000000
_cell_angle_beta   90.00000000
_cell_angle_gamma   120.00000000
_symmetry_Int_Tables_number   1
_chemical_formula_structural   Gd2Ni3H24(C4O5)6
_chemical_formula_sum   'Gd4 Ni6 H48 C48 O60'
_cell_volume   2824.59289905
_cell_formula_units_Z   2
loop_
 _symmetry_equiv_pos_site_id
 _symmetry_equiv_pos_as_xyz
  1  'x, y, z'
loop_
 _atom_site_type_symbol
 _atom_site_label
 _atom_site_symmetry_multiplicity
 _atom_site_fract_x
 _atom_site_fract_y
 _atom_site_fract_z
 _atom_site_occupancy
 _atom_site_charge
Gd  Gd1  1  0.66666667  0.33333333  0.25000000  1.0 1.88363031
Gd  Gd2  1  0.33333333  0.66666667  0.25000000  1.0 1.88363031
Gd  Gd3  1  0.33333333  0.66666667  0.75000000  1.0 1.88363031
Gd  Gd4  1  0.66666667  0.33333333  0.75000000  1.0 1.88363031
Ni  Ni1  1  0.00000000  0.50000000  0.00000000  1.0 0.8997488215
Ni  Ni2  1  0.50000000  0.50000000  0.00000000  1.0 0.9075487897
Ni  Ni3  1  0.50000000  0.00000000  0.00000000  1.0 0.8997488215
Ni  Ni4  1  0.50000000  0.00000000  0.50000000  1.0 0.8997488215
Ni  Ni5  1  0.50000000  0.50000000  0.50000000  1.0 0.9075487897
Ni  Ni6  1  0.00000000  0.50000000  0.50000000  1.0 0.8997488215
H  H1  1  0.82870000  0.19270000  0.15580000  1.0 0.1450901821
H  H2  1  0.80730000  0.63600000  0.15580000  1.0 0.1450901821
H  H3  1  0.36400000  0.17130000  0.15580000  1.0 0.1450901821
H  H4  1  0.17130000  0.80730000  0.15580000  1.0 0.1447711483
H  H5  1  0.19270000  0.36400000  0.15580000  1.0 0.1450901821
H  H6  1  0.63600000  0.82870000  0.15580000  1.0 0.1447711483
H  H7  1  0.19270000  0.82870000  0.34420000  1.0 0.1450901821
H  H8  1  0.63600000  0.80730000  0.34420000  1.0 0.1447711483
H  H9  1  0.17130000  0.36400000  0.34420000  1.0 0.1450901821
H  H10  1  0.80730000  0.17130000  0.34420000  1.0 0.1450901821
H  H11  1  0.36400000  0.19270000  0.34420000  1.0 0.1450901821
H  H12  1  0.82870000  0.63600000  0.34420000  1.0 0.1450901821
H  H13  1  0.17130000  0.80730000  0.84420000  1.0 0.1447711483
H  H14  1  0.19270000  0.36400000  0.84420000  1.0 0.1447711483
H  H15  1  0.63600000  0.82870000  0.84420000  1.0 0.1447711483
H  H16  1  0.82870000  0.19270000  0.84420000  1.0 0.1447711483
H  H17  1  0.80730000  0.63600000  0.84420000  1.0 0.1450901821
H  H18  1  0.36400000  0.17130000  0.84420000  1.0 0.1447711483
H  H19  1  0.80730000  0.17130000  0.65580000  1.0 0.1450901821
H  H20  1  0.36400000  0.19270000  0.65580000  1.0 0.1450901821
H  H21  1  0.82870000  0.63600000  0.65580000  1.0 0.1450901821
H  H22  1  0.19270000  0.82870000  0.65580000  1.0 0.1447711483
H  H23  1  0.63600000  0.80730000  0.65580000  1.0 0.1447711483
H  H24  1  0.17130000  0.36400000  0.65580000  1.0 0.1447711483
H  H25  1  0.91550000  0.27330000  0.22290000  1.0 0.1228897468
H  H26  1  0.72670000  0.64220000  0.22290000  1.0 0.1228897468
H  H27  1  0.35780000  0.08450000  0.22290000  1.0 0.1228897468
H  H28  1  0.08450000  0.72670000  0.22290000  1.0 0.1228897468
H  H29  1  0.27330000  0.35780000  0.22290000  1.0 0.1228897468
H  H30  1  0.64220000  0.91550000  0.22290000  1.0 0.1228897468
H  H31  1  0.27330000  0.91550000  0.27710000  1.0 0.1228897468
H  H32  1  0.64220000  0.72670000  0.27710000  1.0 0.1228897468
H  H33  1  0.08450000  0.35780000  0.27710000  1.0 0.1228897468
H  H34  1  0.72670000  0.08450000  0.27710000  1.0 0.1228897468
H  H35  1  0.35780000  0.27330000  0.27710000  1.0 0.1228897468
H  H36  1  0.91550000  0.64220000  0.27710000  1.0 0.1228897468
H  H37  1  0.08450000  0.72670000  0.77710000  1.0 0.1228897468
H  H38  1  0.27330000  0.35780000  0.77710000  1.0 0.1228897468
H  H39  1  0.64220000  0.91550000  0.77710000  1.0 0.1228897468
H  H40  1  0.91550000  0.27330000  0.77710000  1.0 0.1228897468
H  H41  1  0.72670000  0.64220000  0.77710000  1.0 0.1228897468
H  H42  1  0.35780000  0.08450000  0.77710000  1.0 0.1228897468
H  H43  1  0.72670000  0.08450000  0.72290000  1.0 0.1228897468
H  H44  1  0.35780000  0.27330000  0.72290000  1.0 0.1228897468
H  H45  1  0.91550000  0.64220000  0.72290000  1.0 0.1228897468
H  H46  1  0.27330000  0.91550000  0.72290000  1.0 0.1228897468
H  H47  1  0.64220000  0.72670000  0.72290000  1.0 0.1228897468
H  H48  1  0.08450000  0.35780000  0.72290000  1.0 0.1228897468
C  C1  1  0.86850000  0.34870000  0.13800000  1.0 0.6361053035
C  C2  1  0.65130000  0.51980000  0.13800000  1.0 0.6361053035
C  C3  1  0.48020000  0.13150000  0.13800000  1.0 0.6361053035
C  C4  1  0.13150000  0.65130000  0.13800000  1.0 0.6361053035
C  C5  1  0.34870000  0.48020000  0.13800000  1.0 0.6361053035
C  C6  1  0.51980000  0.86850000  0.13800000  1.0 0.6361053035
C  C7  1  0.34870000  0.86850000  0.36200000  1.0 0.6361053035
C  C8  1  0.51980000  0.65130000  0.36200000  1.0 0.6361053035
C  C9  1  0.13150000  0.48020000  0.36200000  1.0 0.6361053035
C  C10  1  0.65130000  0.13150000  0.36200000  1.0 0.6361053035
C  C11  1  0.48020000  0.34870000  0.36200000  1.0 0.6361053035
C  C12  1  0.86850000  0.51980000  0.36200000  1.0 0.6361053035
C  C13  1  0.13150000  0.65130000  0.86200000  1.0 0.6361053035
C  C14  1  0.34870000  0.48020000  0.86200000  1.0 0.6361053035
C  C15  1  0.51980000  0.86850000  0.86200000  1.0 0.6361053035
C  C16  1  0.86850000  0.34870000  0.86200000  1.0 0.6361053035
C  C17  1  0.65130000  0.51980000  0.86200000  1.0 0.6361053035
C  C18  1  0.48020000  0.13150000  0.86200000  1.0 0.6361053035
C  C19  1  0.65130000  0.13150000  0.63800000  1.0 0.6361053035
C  C20  1  0.48020000  0.34870000  0.63800000  1.0 0.6361053035
C  C21  1  0.86850000  0.51980000  0.63800000  1.0 0.6361053035
C  C22  1  0.34870000  0.86850000  0.63800000  1.0 0.6361053035
C  C23  1  0.51980000  0.65130000  0.63800000  1.0 0.6361053035
C  C24  1  0.13150000  0.48020000  0.63800000  1.0 0.6361053035
C  C25  1  0.84900000  0.25640000  0.19180000  1.0 -0.1804735988
C  C26  1  0.74360000  0.59260000  0.19180000  1.0 -0.1804735988
C  C27  1  0.40740000  0.15100000  0.19180000  1.0 -0.1804735988
C  C28  1  0.15100000  0.74360000  0.19180000  1.0 -0.1804735988
C  C29  1  0.25640000  0.40740000  0.19180000  1.0 -0.1804735988
C  C30  1  0.59260000  0.84900000  0.19180000  1.0 -0.1804735988
C  C31  1  0.25640000  0.84900000  0.30820000  1.0 -0.1804735988
C  C32  1  0.59260000  0.74360000  0.30820000  1.0 -0.1804735988
C  C33  1  0.15100000  0.40740000  0.30820000  1.0 -0.1804735988
C  C34  1  0.74360000  0.15100000  0.30820000  1.0 -0.1804735988
C  C35  1  0.40740000  0.25640000  0.30820000  1.0 -0.1804735988
C  C36  1  0.84900000  0.59260000  0.30820000  1.0 -0.1804735988
C  C37  1  0.15100000  0.74360000  0.80820000  1.0 -0.1804735988
C  C38  1  0.25640000  0.40740000  0.80820000  1.0 -0.1804735988
C  C39  1  0.59260000  0.84900000  0.80820000  1.0 -0.1804735988
C  C40  1  0.84900000  0.25640000  0.80820000  1.0 -0.1804735988
C  C41  1  0.74360000  0.59260000  0.80820000  1.0 -0.1804735988
C  C42  1  0.40740000  0.15100000  0.80820000  1.0 -0.1804735988
C  C43  1  0.74360000  0.15100000  0.69180000  1.0 -0.1804735988
C  C44  1  0.40740000  0.25640000  0.69180000  1.0 -0.1804735988
C  C45  1  0.84900000  0.59260000  0.69180000  1.0 -0.1804735988
C  C46  1  0.25640000  0.84900000  0.69180000  1.0 -0.1804735988
C  C47  1  0.59260000  0.74360000  0.69180000  1.0 -0.1804735988
C  C48  1  0.15100000  0.40740000  0.69180000  1.0 -0.1804735988
O  O1  1  0.94580000  0.38230000  0.08890000  1.0 -0.5401118353
O  O2  1  0.61770000  0.56350000  0.08890000  1.0 -0.5401118353
O  O3  1  0.43650000  0.05420000  0.08890000  1.0 -0.5401118353
O  O4  1  0.05420000  0.61770000  0.08890000  1.0 -0.5401118353
O  O5  1  0.38230000  0.43650000  0.08890000  1.0 -0.5401118353
O  O6  1  0.56350000  0.94580000  0.08890000  1.0 -0.5401118353
O  O7  1  0.38230000  0.94580000  0.41110000  1.0 -0.5401118353
O  O8  1  0.56350000  0.61770000  0.41110000  1.0 -0.5401118353
O  O9  1  0.05420000  0.43650000  0.41110000  1.0 -0.5401118353
O  O10  1  0.61770000  0.05420000  0.41110000  1.0 -0.5401118353
O  O11  1  0.43650000  0.38230000  0.41110000  1.0 -0.5401118353
O  O12  1  0.94580000  0.56350000  0.41110000  1.0 -0.5401118353
O  O13  1  0.05420000  0.61770000  0.91110000  1.0 -0.5401118353
O  O14  1  0.38230000  0.43650000  0.91110000  1.0 -0.5401118353
O  O15  1  0.56350000  0.94580000  0.91110000  1.0 -0.5401118353
O  O16  1  0.94580000  0.38230000  0.91110000  1.0 -0.5401118353
O  O17  1  0.61770000  0.56350000  0.91110000  1.0 -0.5401118353
O  O18  1  0.43650000  0.05420000  0.91110000  1.0 -0.5401118353
O  O19  1  0.61770000  0.05420000  0.58890000  1.0 -0.5401118353
O  O20  1  0.43650000  0.38230000  0.58890000  1.0 -0.5401118353
O  O21  1  0.94580000  0.56350000  0.58890000  1.0 -0.5401118353
O  O22  1  0.38230000  0.94580000  0.58890000  1.0 -0.5401118353
O  O23  1  0.56350000  0.61770000  0.58890000  1.0 -0.5401118353
O  O24  1  0.05420000  0.43650000  0.58890000  1.0 -0.5401118353
O  O25  1  0.80540000  0.38580000  0.14590000  1.0 -0.6132858549
O  O26  1  0.61420000  0.41960000  0.14590000  1.0 -0.6132858549
O  O27  1  0.58040000  0.19460000  0.14590000  1.0 -0.6132858549
O  O28  1  0.19460000  0.61420000  0.14590000  1.0 -0.6132858549
O  O29  1  0.38580000  0.58040000  0.14590000  1.0 -0.6132858549
O  O30  1  0.41960000  0.80540000  0.14590000  1.0 -0.6132858549
O  O31  1  0.38580000  0.80540000  0.35410000  1.0 -0.6132858549
O  O32  1  0.41960000  0.61420000  0.35410000  1.0 -0.6132858549
O  O33  1  0.19460000  0.58040000  0.35410000  1.0 -0.6132858549
O  O34  1  0.61420000  0.19460000  0.35410000  1.0 -0.6132858549
O  O35  1  0.58040000  0.38580000  0.35410000  1.0 -0.6132858549
O  O36  1  0.80540000  0.41960000  0.35410000  1.0 -0.6132858549
O  O37  1  0.19460000  0.61420000  0.85410000  1.0 -0.6132858549
O  O38  1  0.38580000  0.58040000  0.85410000  1.0 -0.6132858549
O  O39  1  0.41960000  0.80540000  0.85410000  1.0 -0.6132858549
O  O40  1  0.80540000  0.38580000  0.85410000  1.0 -0.6132858549
O  O41  1  0.61420000  0.41960000  0.85410000  1.0 -0.6132858549
O  O42  1  0.58040000  0.19460000  0.85410000  1.0 -0.6132858549
O  O43  1  0.61420000  0.19460000  0.64590000  1.0 -0.6132858549
O  O44  1  0.58040000  0.38580000  0.64590000  1.0 -0.6132858549
O  O45  1  0.80540000  0.41960000  0.64590000  1.0 -0.6132858549
O  O46  1  0.38580000  0.80540000  0.64590000  1.0 -0.6132858549
O  O47  1  0.41960000  0.61420000  0.64590000  1.0 -0.6132858549
O  O48  1  0.19460000  0.58040000  0.64590000  1.0 -0.6132858549
O  O49  1  0.76590000  0.23410000  0.25000000  1.0 -0.2191866145
O  O50  1  0.76590000  0.53180000  0.25000000  1.0 -0.2191866145
O  O51  1  0.46820000  0.23410000  0.25000000  1.0 -0.2191866145
O  O52  1  0.23410000  0.76590000  0.25000000  1.0 -0.2191866145
O  O53  1  0.23410000  0.46820000  0.25000000  1.0 -0.2191866145
O  O54  1  0.53180000  0.76590000  0.25000000  1.0 -0.2191866145
O  O55  1  0.23410000  0.76590000  0.75000000  1.0 -0.2191866145
O  O56  1  0.23410000  0.46820000  0.75000000  1.0 -0.2191866145
O  O57  1  0.53180000  0.76590000  0.75000000  1.0 -0.2191866145
O  O58  1  0.76590000  0.23410000  0.75000000  1.0 -0.2191866145
O  O59  1  0.76590000  0.53180000  0.75000000  1.0 -0.2191866145
O  O60  1  0.46820000  0.23410000  0.75000000  1.0 -0.2191866145
