# DDEC6 charges by PACMAN v1.1 (https://github.com/mtap-research/PACMAN-charge/)
data_PUZMAZ_FSR_pacman
_symmetry_space_group_name_H-M   'P 1'
_cell_length_a   53.01320000
_cell_length_b   53.01320000
_cell_length_c   53.01320000
_cell_angle_alpha   60.00000000
_cell_angle_beta   60.00000000
_cell_angle_gamma   60.00000000
_symmetry_Int_Tables_number   1
_chemical_formula_structural   CoH16C26(SN5)2
_chemical_formula_sum   'Co48 H768 C1248 S96 N480'
_cell_volume   105350.61186689
_cell_formula_units_Z   48
loop_
 _symmetry_equiv_pos_site_id
 _symmetry_equiv_pos_as_xyz
  1  'x, y, z'
loop_
 _atom_site_type_symbol
 _atom_site_label
 _atom_site_symmetry_multiplicity
 _atom_site_fract_x
 _atom_site_fract_y
 _atom_site_fract_z
 _atom_site_occupancy
 _atom_site_charge
Co  Co1  1  0.62540000  0.37460000  0.62540000  1.0 0.6377245328
Co  Co2  1  0.62460000  0.87540000  0.87540000  1.0 0.6377245328
Co  Co3  1  0.87540000  0.87540000  0.62460000  1.0 0.6377245328
Co  Co4  1  0.87540000  0.62460000  0.87540000  1.0 0.6377245328
Co  Co5  1  0.37460000  0.37460000  0.62540000  1.0 0.6345764921
Co  Co6  1  0.62460000  0.62460000  0.87540000  1.0 0.6377245328
Co  Co7  1  0.37460000  0.62540000  0.62540000  1.0 0.6345764921
Co  Co8  1  0.37460000  0.62540000  0.37460000  1.0 0.6377245328
Co  Co9  1  0.87540000  0.62460000  0.62460000  1.0 0.6377245328
Co  Co10  1  0.62460000  0.87540000  0.62460000  1.0 0.6377245328
Co  Co11  1  0.62540000  0.37460000  0.37460000  1.0 0.6345764921
Co  Co12  1  0.62540000  0.62540000  0.37460000  1.0 0.6377245328
Co  Co13  1  0.12460000  0.37540000  0.12460000  1.0 0.6377245328
Co  Co14  1  0.12540000  0.87460000  0.87460000  1.0 0.6377245328
Co  Co15  1  0.87460000  0.87460000  0.12540000  1.0 0.6377245328
Co  Co16  1  0.87460000  0.12540000  0.87460000  1.0 0.6377245328
Co  Co17  1  0.37540000  0.37540000  0.12460000  1.0 0.6377245328
Co  Co18  1  0.12540000  0.12540000  0.87460000  1.0 0.6345764921
Co  Co19  1  0.37540000  0.12460000  0.12460000  1.0 0.6345764921
Co  Co20  1  0.37540000  0.12460000  0.37540000  1.0 0.6345764921
Co  Co21  1  0.87460000  0.12540000  0.12540000  1.0 0.6345764921
Co  Co22  1  0.12540000  0.87460000  0.12540000  1.0 0.6377245328
Co  Co23  1  0.12460000  0.37540000  0.37540000  1.0 0.6345764921
Co  Co24  1  0.12460000  0.12460000  0.37540000  1.0 0.6345764921
Co  Co25  1  0.62500000  0.12500000  0.86424000  1.0 0.6377245328
Co  Co26  1  0.12500000  0.86424000  0.62500000  1.0 0.6377245328
Co  Co27  1  0.86424000  0.62500000  0.12500000  1.0 0.6377245328
Co  Co28  1  0.12500000  0.38576000  0.86424000  1.0 0.6377245328
Co  Co29  1  0.38576000  0.62500000  0.86424000  1.0 0.6377245328
Co  Co30  1  0.38576000  0.86424000  0.12500000  1.0 0.6377245328
Co  Co31  1  0.12500000  0.62500000  0.38576000  1.0 0.6377245328
Co  Co32  1  0.38576000  0.12500000  0.62500000  1.0 0.6377245328
Co  Co33  1  0.62500000  0.38576000  0.12500000  1.0 0.6377245328
Co  Co34  1  0.62500000  0.86424000  0.38576000  1.0 0.6377245328
Co  Co35  1  0.86424000  0.12500000  0.38576000  1.0 0.6377245328
Co  Co36  1  0.86424000  0.38576000  0.62500000  1.0 0.6377245328
Co  Co37  1  0.12500000  0.62500000  0.88576000  1.0 0.6377245328
Co  Co38  1  0.62500000  0.88576000  0.12500000  1.0 0.6377245328
Co  Co39  1  0.88576000  0.12500000  0.62500000  1.0 0.6377245328
Co  Co40  1  0.62500000  0.36424000  0.88576000  1.0 0.6377245328
Co  Co41  1  0.36424000  0.12500000  0.88576000  1.0 0.6377245328
Co  Co42  1  0.36424000  0.88576000  0.62500000  1.0 0.6377245328
Co  Co43  1  0.62500000  0.12500000  0.36424000  1.0 0.6377245328
Co  Co44  1  0.36424000  0.62500000  0.12500000  1.0 0.6377245328
Co  Co45  1  0.12500000  0.36424000  0.62500000  1.0 0.6377245328
Co  Co46  1  0.12500000  0.88576000  0.36424000  1.0 0.6377245328
Co  Co47  1  0.88576000  0.62500000  0.36424000  1.0 0.6377245328
Co  Co48  1  0.88576000  0.36424000  0.12500000  1.0 0.6377245328
H  H1  1  0.64310000  0.35430000  0.57070000  1.0 0.0989750757
H  H2  1  0.60690000  0.89570000  0.81810000  1.0 0.0989750757
H  H3  1  0.89570000  0.81810000  0.60690000  1.0 0.0989750757
H  H4  1  0.81810000  0.60690000  0.89570000  1.0 0.0989750757
H  H5  1  0.89570000  0.67930000  0.81810000  1.0 0.0989750757
H  H6  1  0.35430000  0.43190000  0.57070000  1.0 0.0989750757
H  H7  1  0.67930000  0.60690000  0.81810000  1.0 0.0989750757
H  H8  1  0.43190000  0.64310000  0.57070000  1.0 0.0989750757
H  H9  1  0.67930000  0.81810000  0.89570000  1.0 0.0989750757
H  H10  1  0.43190000  0.57070000  0.35430000  1.0 0.0989750757
H  H11  1  0.35430000  0.64310000  0.43190000  1.0 0.0989750757
H  H12  1  0.89570000  0.60690000  0.67930000  1.0 0.0989750757
H  H13  1  0.67930000  0.89570000  0.60690000  1.0 0.0989750757
H  H14  1  0.43190000  0.35430000  0.64310000  1.0 0.0989750757
H  H15  1  0.60690000  0.67930000  0.89570000  1.0 0.0989750757
H  H16  1  0.64310000  0.43190000  0.35430000  1.0 0.0989750757
H  H17  1  0.64310000  0.57070000  0.43190000  1.0 0.0989750757
H  H18  1  0.57070000  0.35430000  0.43190000  1.0 0.0989750757
H  H19  1  0.81810000  0.89570000  0.67930000  1.0 0.0989750757
H  H20  1  0.60690000  0.81810000  0.67930000  1.0 0.0989750757
H  H21  1  0.57070000  0.43190000  0.64310000  1.0 0.0989750757
H  H22  1  0.81810000  0.67930000  0.60690000  1.0 0.0989750757
H  H23  1  0.35430000  0.57070000  0.64310000  1.0 0.0989750757
H  H24  1  0.57070000  0.64310000  0.35430000  1.0 0.0989750757
H  H25  1  0.10690000  0.39570000  0.17930000  1.0 0.0989750757
H  H26  1  0.14310000  0.85430000  0.93190000  1.0 0.0989750757
H  H27  1  0.85430000  0.93190000  0.14310000  1.0 0.0989750757
H  H28  1  0.93190000  0.14310000  0.85430000  1.0 0.0989750757
H  H29  1  0.85430000  0.07070000  0.93190000  1.0 0.0989750757
H  H30  1  0.39570000  0.31810000  0.17930000  1.0 0.0989750757
H  H31  1  0.07070000  0.14310000  0.93190000  1.0 0.0989750757
H  H32  1  0.31810000  0.10690000  0.17930000  1.0 0.0989750757
H  H33  1  0.07070000  0.93190000  0.85430000  1.0 0.0989750757
H  H34  1  0.31810000  0.17930000  0.39570000  1.0 0.0989750757
H  H35  1  0.39570000  0.10690000  0.31810000  1.0 0.0989750757
H  H36  1  0.85430000  0.14310000  0.07070000  1.0 0.0989750757
H  H37  1  0.07070000  0.85430000  0.14310000  1.0 0.0989750757
H  H38  1  0.31810000  0.39570000  0.10690000  1.0 0.0989750757
H  H39  1  0.14310000  0.07070000  0.85430000  1.0 0.0989750757
H  H40  1  0.10690000  0.31810000  0.39570000  1.0 0.0989750757
H  H41  1  0.10690000  0.17930000  0.31810000  1.0 0.0989750757
H  H42  1  0.17930000  0.39570000  0.31810000  1.0 0.0989750757
H  H43  1  0.93190000  0.85430000  0.07070000  1.0 0.0989750757
H  H44  1  0.14310000  0.93190000  0.07070000  1.0 0.0989750757
H  H45  1  0.17930000  0.31810000  0.10690000  1.0 0.0989750757
H  H46  1  0.93190000  0.07070000  0.14310000  1.0 0.0989750757
H  H47  1  0.39570000  0.17930000  0.10690000  1.0 0.0989750757
H  H48  1  0.17930000  0.10690000  0.39570000  1.0 0.0989750757
H  H49  1  0.62080000  0.35000000  0.54580000  1.0 0.1314862772
H  H50  1  0.62920000  0.90000000  0.76660000  1.0 0.1314862772
H  H51  1  0.90000000  0.76660000  0.62920000  1.0 0.1314862772
H  H52  1  0.76660000  0.62920000  0.90000000  1.0 0.1314862772
H  H53  1  0.90000000  0.70420000  0.76660000  1.0 0.1314862772
H  H54  1  0.35000000  0.48340000  0.54580000  1.0 0.1314862772
H  H55  1  0.70420000  0.62920000  0.76660000  1.0 0.1314862772
H  H56  1  0.48340000  0.62080000  0.54580000  1.0 0.1314862772
H  H57  1  0.70420000  0.76660000  0.90000000  1.0 0.1314862772
H  H58  1  0.48340000  0.54580000  0.35000000  1.0 0.1314862772
H  H59  1  0.35000000  0.62080000  0.48340000  1.0 0.1314862772
H  H60  1  0.90000000  0.62920000  0.70420000  1.0 0.1314862772
H  H61  1  0.70420000  0.90000000  0.62920000  1.0 0.1314862772
H  H62  1  0.48340000  0.35000000  0.62080000  1.0 0.1314862772
H  H63  1  0.62920000  0.70420000  0.90000000  1.0 0.1314862772
H  H64  1  0.62080000  0.48340000  0.35000000  1.0 0.1314862772
H  H65  1  0.62080000  0.54580000  0.48340000  1.0 0.1314862772
H  H66  1  0.54580000  0.35000000  0.48340000  1.0 0.1314862772
H  H67  1  0.76660000  0.90000000  0.70420000  1.0 0.1314862772
H  H68  1  0.62920000  0.76660000  0.70420000  1.0 0.1314862772
H  H69  1  0.54580000  0.48340000  0.62080000  1.0 0.1314862772
H  H70  1  0.76660000  0.70420000  0.62920000  1.0 0.1314862772
H  H71  1  0.35000000  0.54580000  0.62080000  1.0 0.1314862772
H  H72  1  0.54580000  0.62080000  0.35000000  1.0 0.1314862772
H  H73  1  0.12920000  0.40000000  0.20420000  1.0 0.1314862772
H  H74  1  0.12080000  0.85000000  0.98340000  1.0 0.1314862772
H  H75  1  0.85000000  0.98340000  0.12080000  1.0 0.1314862772
H  H76  1  0.98340000  0.12080000  0.85000000  1.0 0.1314862772
H  H77  1  0.85000000  0.04580000  0.98340000  1.0 0.1314862772
H  H78  1  0.40000000  0.26660000  0.20420000  1.0 0.1314862772
H  H79  1  0.04580000  0.12080000  0.98340000  1.0 0.1314862772
H  H80  1  0.26660000  0.12920000  0.20420000  1.0 0.1314862772
H  H81  1  0.04580000  0.98340000  0.85000000  1.0 0.1314862772
H  H82  1  0.26660000  0.20420000  0.40000000  1.0 0.1314862772
H  H83  1  0.40000000  0.12920000  0.26660000  1.0 0.1314862772
H  H84  1  0.85000000  0.12080000  0.04580000  1.0 0.1314862772
H  H85  1  0.04580000  0.85000000  0.12080000  1.0 0.1314862772
H  H86  1  0.26660000  0.40000000  0.12920000  1.0 0.1314862772
H  H87  1  0.12080000  0.04580000  0.85000000  1.0 0.1314862772
H  H88  1  0.12920000  0.26660000  0.40000000  1.0 0.1314862772
H  H89  1  0.12920000  0.20420000  0.26660000  1.0 0.1314862772
H  H90  1  0.20420000  0.40000000  0.26660000  1.0 0.1314862772
H  H91  1  0.98340000  0.85000000  0.04580000  1.0 0.1314862772
H  H92  1  0.12080000  0.98340000  0.04580000  1.0 0.1314862772
H  H93  1  0.20420000  0.26660000  0.12920000  1.0 0.1314862772
H  H94  1  0.98340000  0.04580000  0.12080000  1.0 0.1314862772
H  H95  1  0.40000000  0.20420000  0.12920000  1.0 0.1314862772
H  H96  1  0.20420000  0.12920000  0.40000000  1.0 0.1314862772
H  H97  1  0.53860000  0.37340000  0.61040000  1.0 0.1314862772
H  H98  1  0.71140000  0.87660000  0.77240000  1.0 0.1314862772
H  H99  1  0.87660000  0.77240000  0.71140000  1.0 0.1314862772
H  H100  1  0.77240000  0.71140000  0.87660000  1.0 0.1314862772
H  H101  1  0.87660000  0.63960000  0.77240000  1.0 0.1314862772
H  H102  1  0.37340000  0.47760000  0.61040000  1.0 0.1314862772
H  H103  1  0.63960000  0.71140000  0.77240000  1.0 0.1314862772
H  H104  1  0.47760000  0.53860000  0.61040000  1.0 0.1314862772
H  H105  1  0.63960000  0.77240000  0.87660000  1.0 0.1314862772
H  H106  1  0.47760000  0.61040000  0.37340000  1.0 0.1314862772
H  H107  1  0.37340000  0.53860000  0.47760000  1.0 0.1314862772
H  H108  1  0.87660000  0.71140000  0.63960000  1.0 0.1314862772
H  H109  1  0.63960000  0.87660000  0.71140000  1.0 0.1314862772
H  H110  1  0.47760000  0.37340000  0.53860000  1.0 0.1314862772
H  H111  1  0.71140000  0.63960000  0.87660000  1.0 0.1314862772
H  H112  1  0.53860000  0.47760000  0.37340000  1.0 0.1314862772
H  H113  1  0.53860000  0.61040000  0.47760000  1.0 0.1314862772
H  H114  1  0.61040000  0.37340000  0.47760000  1.0 0.1314862772
H  H115  1  0.77240000  0.87660000  0.63960000  1.0 0.1314862772
H  H116  1  0.71140000  0.77240000  0.63960000  1.0 0.1314862772
H  H117  1  0.61040000  0.47760000  0.53860000  1.0 0.1314862772
H  H118  1  0.77240000  0.63960000  0.71140000  1.0 0.1314862772
H  H119  1  0.37340000  0.61040000  0.53860000  1.0 0.1314862772
H  H120  1  0.61040000  0.53860000  0.37340000  1.0 0.1314862772
H  H121  1  0.21140000  0.37660000  0.13960000  1.0 0.1314862772
H  H122  1  0.03860000  0.87340000  0.97760000  1.0 0.1314862772
H  H123  1  0.87340000  0.97760000  0.03860000  1.0 0.1314862772
H  H124  1  0.97760000  0.03860000  0.87340000  1.0 0.1314862772
H  H125  1  0.87340000  0.11040000  0.97760000  1.0 0.1314862772
H  H126  1  0.37660000  0.27240000  0.13960000  1.0 0.1314862772
H  H127  1  0.11040000  0.03860000  0.97760000  1.0 0.1314862772
H  H128  1  0.27240000  0.21140000  0.13960000  1.0 0.1314862772
H  H129  1  0.11040000  0.97760000  0.87340000  1.0 0.1314862772
H  H130  1  0.27240000  0.13960000  0.37660000  1.0 0.1314862772
H  H131  1  0.37660000  0.21140000  0.27240000  1.0 0.1314862772
H  H132  1  0.87340000  0.03860000  0.11040000  1.0 0.1314862772
H  H133  1  0.11040000  0.87340000  0.03860000  1.0 0.1314862772
H  H134  1  0.27240000  0.37660000  0.21140000  1.0 0.1314862772
H  H135  1  0.03860000  0.11040000  0.87340000  1.0 0.1314862772
H  H136  1  0.21140000  0.27240000  0.37660000  1.0 0.1314862772
H  H137  1  0.21140000  0.13960000  0.27240000  1.0 0.1314862772
H  H138  1  0.13960000  0.37660000  0.27240000  1.0 0.1314862772
H  H139  1  0.97760000  0.87340000  0.11040000  1.0 0.1314862772
H  H140  1  0.03860000  0.97760000  0.11040000  1.0 0.1314862772
H  H141  1  0.13960000  0.27240000  0.21140000  1.0 0.1314862772
H  H142  1  0.97760000  0.11040000  0.03860000  1.0 0.1314862772
H  H143  1  0.37660000  0.13960000  0.21140000  1.0 0.1314862772
H  H144  1  0.13960000  0.21140000  0.37660000  1.0 0.1314862772
H  H145  1  0.56300000  0.37980000  0.63200000  1.0 0.0989750757
H  H146  1  0.68700000  0.87020000  0.82480000  1.0 0.0989750757
H  H147  1  0.87020000  0.82480000  0.68700000  1.0 0.0989750757
H  H148  1  0.82480000  0.68700000  0.87020000  1.0 0.0989750757
H  H149  1  0.87020000  0.61800000  0.82480000  1.0 0.0989750757
H  H150  1  0.37980000  0.42520000  0.63200000  1.0 0.0989750757
H  H151  1  0.61800000  0.68700000  0.82480000  1.0 0.0989750757
H  H152  1  0.42520000  0.56300000  0.63200000  1.0 0.0989750757
H  H153  1  0.61800000  0.82480000  0.87020000  1.0 0.0989750757
H  H154  1  0.42520000  0.63200000  0.37980000  1.0 0.0989750757
H  H155  1  0.37980000  0.56300000  0.42520000  1.0 0.0989750757
H  H156  1  0.87020000  0.68700000  0.61800000  1.0 0.0989750757
H  H157  1  0.61800000  0.87020000  0.68700000  1.0 0.0989750757
H  H158  1  0.42520000  0.37980000  0.56300000  1.0 0.0989750757
H  H159  1  0.68700000  0.61800000  0.87020000  1.0 0.0989750757
H  H160  1  0.56300000  0.42520000  0.37980000  1.0 0.0989750757
H  H161  1  0.56300000  0.63200000  0.42520000  1.0 0.0989750757
H  H162  1  0.63200000  0.37980000  0.42520000  1.0 0.0989750757
H  H163  1  0.82480000  0.87020000  0.61800000  1.0 0.0989750757
H  H164  1  0.68700000  0.82480000  0.61800000  1.0 0.0989750757
H  H165  1  0.63200000  0.42520000  0.56300000  1.0 0.0989750757
H  H166  1  0.82480000  0.61800000  0.68700000  1.0 0.0989750757
H  H167  1  0.37980000  0.63200000  0.56300000  1.0 0.0989750757
H  H168  1  0.63200000  0.56300000  0.37980000  1.0 0.0989750757
H  H169  1  0.18700000  0.37020000  0.11800000  1.0 0.0989750757
H  H170  1  0.06300000  0.87980000  0.92520000  1.0 0.0989750757
H  H171  1  0.87980000  0.92520000  0.06300000  1.0 0.0989750757
H  H172  1  0.92520000  0.06300000  0.87980000  1.0 0.0989750757
H  H173  1  0.87980000  0.13200000  0.92520000  1.0 0.0989750757
H  H174  1  0.37020000  0.32480000  0.11800000  1.0 0.0989750757
H  H175  1  0.13200000  0.06300000  0.92520000  1.0 0.0989750757
H  H176  1  0.32480000  0.18700000  0.11800000  1.0 0.0989750757
H  H177  1  0.13200000  0.92520000  0.87980000  1.0 0.0989750757
H  H178  1  0.32480000  0.11800000  0.37020000  1.0 0.0989750757
H  H179  1  0.37020000  0.18700000  0.32480000  1.0 0.0989750757
H  H180  1  0.87980000  0.06300000  0.13200000  1.0 0.0989750757
H  H181  1  0.13200000  0.87980000  0.06300000  1.0 0.0989750757
H  H182  1  0.32480000  0.37020000  0.18700000  1.0 0.0989750757
H  H183  1  0.06300000  0.13200000  0.87980000  1.0 0.0989750757
H  H184  1  0.18700000  0.32480000  0.37020000  1.0 0.0989750757
H  H185  1  0.18700000  0.11800000  0.32480000  1.0 0.0989750757
H  H186  1  0.11800000  0.37020000  0.32480000  1.0 0.0989750757
H  H187  1  0.92520000  0.87980000  0.13200000  1.0 0.0989750757
H  H188  1  0.06300000  0.92520000  0.13200000  1.0 0.0989750757
H  H189  1  0.11800000  0.32480000  0.18700000  1.0 0.0989750757
H  H190  1  0.92520000  0.13200000  0.06300000  1.0 0.0989750757
H  H191  1  0.37020000  0.11800000  0.18700000  1.0 0.0989750757
H  H192  1  0.11800000  0.18700000  0.37020000  1.0 0.0989750757
H  H193  1  0.67690000  0.31930000  0.60430000  1.0 0.0989750757
H  H194  1  0.57310000  0.93070000  0.85050000  1.0 0.0989750757
H  H195  1  0.93070000  0.85050000  0.57310000  1.0 0.0989750757
H  H196  1  0.85050000  0.57310000  0.93070000  1.0 0.0989750757
H  H197  1  0.93070000  0.64570000  0.85050000  1.0 0.0989750757
H  H198  1  0.31930000  0.39950000  0.60430000  1.0 0.0989750757
H  H199  1  0.64570000  0.57310000  0.85050000  1.0 0.0989750757
H  H200  1  0.39950000  0.67690000  0.60430000  1.0 0.0989750757
H  H201  1  0.64570000  0.85050000  0.93070000  1.0 0.0989750757
H  H202  1  0.39950000  0.60430000  0.31930000  1.0 0.0989750757
H  H203  1  0.31930000  0.67690000  0.39950000  1.0 0.0989750757
H  H204  1  0.93070000  0.57310000  0.64570000  1.0 0.0989750757
H  H205  1  0.64570000  0.93070000  0.57310000  1.0 0.0989750757
H  H206  1  0.39950000  0.31930000  0.67690000  1.0 0.0989750757
H  H207  1  0.57310000  0.64570000  0.93070000  1.0 0.0989750757
H  H208  1  0.67690000  0.39950000  0.31930000  1.0 0.0989750757
H  H209  1  0.67690000  0.60430000  0.39950000  1.0 0.0989750757
H  H210  1  0.60430000  0.31930000  0.39950000  1.0 0.0989750757
H  H211  1  0.85050000  0.93070000  0.64570000  1.0 0.0989750757
H  H212  1  0.57310000  0.85050000  0.64570000  1.0 0.0989750757
H  H213  1  0.60430000  0.39950000  0.67690000  1.0 0.0989750757
H  H214  1  0.85050000  0.64570000  0.57310000  1.0 0.0989750757
H  H215  1  0.31930000  0.60430000  0.67690000  1.0 0.0989750757
H  H216  1  0.60430000  0.67690000  0.31930000  1.0 0.0989750757
H  H217  1  0.07310000  0.43070000  0.14570000  1.0 0.0989750757
H  H218  1  0.17690000  0.81930000  0.89950000  1.0 0.0989750757
H  H219  1  0.81930000  0.89950000  0.17690000  1.0 0.0989750757
H  H220  1  0.89950000  0.17690000  0.81930000  1.0 0.0989750757
H  H221  1  0.81930000  0.10430000  0.89950000  1.0 0.0989750757
H  H222  1  0.43070000  0.35050000  0.14570000  1.0 0.0989750757
H  H223  1  0.10430000  0.17690000  0.89950000  1.0 0.0989750757
H  H224  1  0.35050000  0.07310000  0.14570000  1.0 0.0989750757
H  H225  1  0.10430000  0.89950000  0.81930000  1.0 0.0989750757
H  H226  1  0.35050000  0.14570000  0.43070000  1.0 0.0989750757
H  H227  1  0.43070000  0.07310000  0.35050000  1.0 0.0989750757
H  H228  1  0.81930000  0.17690000  0.10430000  1.0 0.0989750757
H  H229  1  0.10430000  0.81930000  0.17690000  1.0 0.0989750757
H  H230  1  0.35050000  0.43070000  0.07310000  1.0 0.0989750757
H  H231  1  0.17690000  0.10430000  0.81930000  1.0 0.0989750757
H  H232  1  0.07310000  0.35050000  0.43070000  1.0 0.0989750757
H  H233  1  0.07310000  0.14570000  0.35050000  1.0 0.0989750757
H  H234  1  0.14570000  0.43070000  0.35050000  1.0 0.0989750757
H  H235  1  0.89950000  0.81930000  0.10430000  1.0 0.0989750757
H  H236  1  0.17690000  0.89950000  0.10430000  1.0 0.0989750757
H  H237  1  0.14570000  0.35050000  0.07310000  1.0 0.0989750757
H  H238  1  0.89950000  0.10430000  0.17690000  1.0 0.0989750757
H  H239  1  0.43070000  0.14570000  0.07310000  1.0 0.0989750757
H  H240  1  0.14570000  0.07310000  0.43070000  1.0 0.0989750757
H  H241  1  0.70340000  0.26740000  0.62320000  1.0 0.1314862772
H  H242  1  0.54660000  0.98260000  0.84400000  1.0 0.1314862772
H  H243  1  0.98260000  0.84400000  0.54660000  1.0 0.1314862772
H  H244  1  0.84400000  0.54660000  0.98260000  1.0 0.1314862772
H  H245  1  0.98260000  0.62680000  0.84400000  1.0 0.1314862772
H  H246  1  0.26740000  0.40600000  0.62320000  1.0 0.1314862772
H  H247  1  0.62680000  0.54660000  0.84400000  1.0 0.1314862772
H  H248  1  0.40600000  0.70340000  0.62320000  1.0 0.1314862772
H  H249  1  0.62680000  0.84400000  0.98260000  1.0 0.1314862772
H  H250  1  0.40600000  0.62320000  0.26740000  1.0 0.1314862772
H  H251  1  0.26740000  0.70340000  0.40600000  1.0 0.1314862772
H  H252  1  0.98260000  0.54660000  0.62680000  1.0 0.1314862772
H  H253  1  0.62680000  0.98260000  0.54660000  1.0 0.1314862772
H  H254  1  0.40600000  0.26740000  0.70340000  1.0 0.1314862772
H  H255  1  0.54660000  0.62680000  0.98260000  1.0 0.1314862772
H  H256  1  0.70340000  0.40600000  0.26740000  1.0 0.1314862772
H  H257  1  0.70340000  0.62320000  0.40600000  1.0 0.1314862772
H  H258  1  0.62320000  0.26740000  0.40600000  1.0 0.1314862772
H  H259  1  0.84400000  0.98260000  0.62680000  1.0 0.1314862772
H  H260  1  0.54660000  0.84400000  0.62680000  1.0 0.1314862772
H  H261  1  0.62320000  0.40600000  0.70340000  1.0 0.1314862772
H  H262  1  0.84400000  0.62680000  0.54660000  1.0 0.1314862772
H  H263  1  0.26740000  0.62320000  0.70340000  1.0 0.1314862772
H  H264  1  0.62320000  0.70340000  0.26740000  1.0 0.1314862772
H  H265  1  0.04660000  0.48260000  0.12680000  1.0 0.1314862772
H  H266  1  0.20340000  0.76740000  0.90600000  1.0 0.1314862772
H  H267  1  0.76740000  0.90600000  0.20340000  1.0 0.1314862772
H  H268  1  0.90600000  0.20340000  0.76740000  1.0 0.1314862772
H  H269  1  0.76740000  0.12320000  0.90600000  1.0 0.1314862772
H  H270  1  0.48260000  0.34400000  0.12680000  1.0 0.1314862772
H  H271  1  0.12320000  0.20340000  0.90600000  1.0 0.1314862772
H  H272  1  0.34400000  0.04660000  0.12680000  1.0 0.1314862772
H  H273  1  0.12320000  0.90600000  0.76740000  1.0 0.1314862772
H  H274  1  0.34400000  0.12680000  0.48260000  1.0 0.1314862772
H  H275  1  0.48260000  0.04660000  0.34400000  1.0 0.1314862772
H  H276  1  0.76740000  0.20340000  0.12320000  1.0 0.1314862772
H  H277  1  0.12320000  0.76740000  0.20340000  1.0 0.1314862772
H  H278  1  0.34400000  0.48260000  0.04660000  1.0 0.1314862772
H  H279  1  0.20340000  0.12320000  0.76740000  1.0 0.1314862772
H  H280  1  0.04660000  0.34400000  0.48260000  1.0 0.1314862772
H  H281  1  0.04660000  0.12680000  0.34400000  1.0 0.1314862772
H  H282  1  0.12680000  0.48260000  0.34400000  1.0 0.1314862772
H  H283  1  0.90600000  0.76740000  0.12320000  1.0 0.1314862772
H  H284  1  0.20340000  0.90600000  0.12320000  1.0 0.1314862772
H  H285  1  0.12680000  0.34400000  0.04660000  1.0 0.1314862772
H  H286  1  0.90600000  0.12320000  0.20340000  1.0 0.1314862772
H  H287  1  0.48260000  0.12680000  0.04660000  1.0 0.1314862772
H  H288  1  0.12680000  0.04660000  0.48260000  1.0 0.1314862772
H  H289  1  0.64560000  0.26920000  0.70960000  1.0 0.1314862772
H  H290  1  0.60440000  0.98080000  0.87440000  1.0 0.1314862772
H  H291  1  0.98080000  0.87440000  0.60440000  1.0 0.1314862772
H  H292  1  0.87440000  0.60440000  0.98080000  1.0 0.1314862772
H  H293  1  0.98080000  0.54040000  0.87440000  1.0 0.1314862772
H  H294  1  0.26920000  0.37560000  0.70960000  1.0 0.1314862772
H  H295  1  0.54040000  0.60440000  0.87440000  1.0 0.1314862772
H  H296  1  0.37560000  0.64560000  0.70960000  1.0 0.1314862772
H  H297  1  0.54040000  0.87440000  0.98080000  1.0 0.1314862772
H  H298  1  0.37560000  0.70960000  0.26920000  1.0 0.1314862772
H  H299  1  0.26920000  0.64560000  0.37560000  1.0 0.1314862772
H  H300  1  0.98080000  0.60440000  0.54040000  1.0 0.1314862772
H  H301  1  0.54040000  0.98080000  0.60440000  1.0 0.1314862772
H  H302  1  0.37560000  0.26920000  0.64560000  1.0 0.1314862772
H  H303  1  0.60440000  0.54040000  0.98080000  1.0 0.1314862772
H  H304  1  0.64560000  0.37560000  0.26920000  1.0 0.1314862772
H  H305  1  0.64560000  0.70960000  0.37560000  1.0 0.1314862772
H  H306  1  0.70960000  0.26920000  0.37560000  1.0 0.1314862772
H  H307  1  0.87440000  0.98080000  0.54040000  1.0 0.1314862772
H  H308  1  0.60440000  0.87440000  0.54040000  1.0 0.1314862772
H  H309  1  0.70960000  0.37560000  0.64560000  1.0 0.1314862772
H  H310  1  0.87440000  0.54040000  0.60440000  1.0 0.1314862772
H  H311  1  0.26920000  0.70960000  0.64560000  1.0 0.1314862772
H  H312  1  0.70960000  0.64560000  0.26920000  1.0 0.1314862772
H  H313  1  0.10440000  0.48080000  0.04040000  1.0 0.1314862772
H  H314  1  0.14560000  0.76920000  0.87560000  1.0 0.1314862772
H  H315  1  0.76920000  0.87560000  0.14560000  1.0 0.1314862772
H  H316  1  0.87560000  0.14560000  0.76920000  1.0 0.1314862772
H  H317  1  0.76920000  0.20960000  0.87560000  1.0 0.1314862772
H  H318  1  0.48080000  0.37440000  0.04040000  1.0 0.1314862772
H  H319  1  0.20960000  0.14560000  0.87560000  1.0 0.1314862772
H  H320  1  0.37440000  0.10440000  0.04040000  1.0 0.1314862772
H  H321  1  0.20960000  0.87560000  0.76920000  1.0 0.1314862772
H  H322  1  0.37440000  0.04040000  0.48080000  1.0 0.1314862772
H  H323  1  0.48080000  0.10440000  0.37440000  1.0 0.1314862772
H  H324  1  0.76920000  0.14560000  0.20960000  1.0 0.1314862772
H  H325  1  0.20960000  0.76920000  0.14560000  1.0 0.1314862772
H  H326  1  0.37440000  0.48080000  0.10440000  1.0 0.1314862772
H  H327  1  0.14560000  0.20960000  0.76920000  1.0 0.1314862772
H  H328  1  0.10440000  0.37440000  0.48080000  1.0 0.1314862772
H  H329  1  0.10440000  0.04040000  0.37440000  1.0 0.1314862772
H  H330  1  0.04040000  0.48080000  0.37440000  1.0 0.1314862772
H  H331  1  0.87560000  0.76920000  0.20960000  1.0 0.1314862772
H  H332  1  0.14560000  0.87560000  0.20960000  1.0 0.1314862772
H  H333  1  0.04040000  0.37440000  0.10440000  1.0 0.1314862772
H  H334  1  0.87560000  0.20960000  0.14560000  1.0 0.1314862772
H  H335  1  0.48080000  0.04040000  0.10440000  1.0 0.1314862772
H  H336  1  0.04040000  0.10440000  0.48080000  1.0 0.1314862772
H  H337  1  0.62310000  0.32150000  0.68830000  1.0 0.0989750757
H  H338  1  0.62690000  0.92850000  0.88290000  1.0 0.0989750757
H  H339  1  0.92850000  0.88290000  0.62690000  1.0 0.0989750757
H  H340  1  0.88290000  0.62690000  0.92850000  1.0 0.0989750757
H  H341  1  0.92850000  0.56170000  0.88290000  1.0 0.0989750757
H  H342  1  0.32150000  0.36710000  0.68830000  1.0 0.0989750757
H  H343  1  0.56170000  0.62690000  0.88290000  1.0 0.0989750757
H  H344  1  0.36710000  0.62310000  0.68830000  1.0 0.0989750757
H  H345  1  0.56170000  0.88290000  0.92850000  1.0 0.0989750757
H  H346  1  0.36710000  0.68830000  0.32150000  1.0 0.0989750757
H  H347  1  0.32150000  0.62310000  0.36710000  1.0 0.0989750757
H  H348  1  0.92850000  0.62690000  0.56170000  1.0 0.0989750757
H  H349  1  0.56170000  0.92850000  0.62690000  1.0 0.0989750757
H  H350  1  0.36710000  0.32150000  0.62310000  1.0 0.0989750757
H  H351  1  0.62690000  0.56170000  0.92850000  1.0 0.0989750757
H  H352  1  0.62310000  0.36710000  0.32150000  1.0 0.0989750757
H  H353  1  0.62310000  0.68830000  0.36710000  1.0 0.0989750757
H  H354  1  0.68830000  0.32150000  0.36710000  1.0 0.0989750757
H  H355  1  0.88290000  0.92850000  0.56170000  1.0 0.0989750757
H  H356  1  0.62690000  0.88290000  0.56170000  1.0 0.0989750757
H  H357  1  0.68830000  0.36710000  0.62310000  1.0 0.0989750757
H  H358  1  0.88290000  0.56170000  0.62690000  1.0 0.0989750757
H  H359  1  0.32150000  0.68830000  0.62310000  1.0 0.0989750757
H  H360  1  0.68830000  0.62310000  0.32150000  1.0 0.0989750757
H  H361  1  0.12690000  0.42850000  0.06170000  1.0 0.0989750757
H  H362  1  0.12310000  0.82150000  0.86710000  1.0 0.0989750757
H  H363  1  0.82150000  0.86710000  0.12310000  1.0 0.0989750757
H  H364  1  0.86710000  0.12310000  0.82150000  1.0 0.0989750757
H  H365  1  0.82150000  0.18830000  0.86710000  1.0 0.0989750757
H  H366  1  0.42850000  0.38290000  0.06170000  1.0 0.0989750757
H  H367  1  0.18830000  0.12310000  0.86710000  1.0 0.0989750757
H  H368  1  0.38290000  0.12690000  0.06170000  1.0 0.0989750757
H  H369  1  0.18830000  0.86710000  0.82150000  1.0 0.0989750757
H  H370  1  0.38290000  0.06170000  0.42850000  1.0 0.0989750757
H  H371  1  0.42850000  0.12690000  0.38290000  1.0 0.0989750757
H  H372  1  0.82150000  0.12310000  0.18830000  1.0 0.0989750757
H  H373  1  0.18830000  0.82150000  0.12310000  1.0 0.0989750757
H  H374  1  0.38290000  0.42850000  0.12690000  1.0 0.0989750757
H  H375  1  0.12310000  0.18830000  0.82150000  1.0 0.0989750757
H  H376  1  0.12690000  0.38290000  0.42850000  1.0 0.0989750757
H  H377  1  0.12690000  0.06170000  0.38290000  1.0 0.0989750757
H  H378  1  0.06170000  0.42850000  0.38290000  1.0 0.0989750757
H  H379  1  0.86710000  0.82150000  0.18830000  1.0 0.0989750757
H  H380  1  0.12310000  0.86710000  0.18830000  1.0 0.0989750757
H  H381  1  0.06170000  0.38290000  0.12690000  1.0 0.0989750757
H  H382  1  0.86710000  0.18830000  0.12310000  1.0 0.0989750757
H  H383  1  0.42850000  0.06170000  0.12690000  1.0 0.0989750757
H  H384  1  0.06170000  0.12690000  0.42850000  1.0 0.0989750757
H  H385  1  0.61142000  0.17358000  0.80522000  1.0 0.0989750757
H  H386  1  0.63858000  0.07642000  0.84022000  1.0 0.0989750757
H  H387  1  0.07642000  0.84022000  0.63858000  1.0 0.0989750757
H  H388  1  0.84022000  0.63858000  0.07642000  1.0 0.0989750757
H  H389  1  0.07642000  0.44478000  0.84022000  1.0 0.0989750757
H  H390  1  0.17358000  0.40978000  0.80522000  1.0 0.0989750757
H  H391  1  0.44478000  0.63858000  0.84022000  1.0 0.0989750757
H  H392  1  0.40978000  0.61142000  0.80522000  1.0 0.0989750757
H  H393  1  0.44478000  0.84022000  0.07642000  1.0 0.0989750757
H  H394  1  0.40978000  0.80522000  0.17358000  1.0 0.0989750757
H  H395  1  0.17358000  0.61142000  0.40978000  1.0 0.0989750757
H  H396  1  0.07642000  0.63858000  0.44478000  1.0 0.0989750757
H  H397  1  0.44478000  0.07642000  0.63858000  1.0 0.0989750757
H  H398  1  0.40978000  0.17358000  0.61142000  1.0 0.0989750757
H  H399  1  0.63858000  0.44478000  0.07642000  1.0 0.0989750757
H  H400  1  0.61142000  0.40978000  0.17358000  1.0 0.0989750757
H  H401  1  0.61142000  0.80522000  0.40978000  1.0 0.0989750757
H  H402  1  0.80522000  0.17358000  0.40978000  1.0 0.0989750757
H  H403  1  0.84022000  0.07642000  0.44478000  1.0 0.0989750757
H  H404  1  0.63858000  0.84022000  0.44478000  1.0 0.0989750757
H  H405  1  0.80522000  0.40978000  0.61142000  1.0 0.0989750757
H  H406  1  0.84022000  0.44478000  0.63858000  1.0 0.0989750757
H  H407  1  0.17358000  0.80522000  0.61142000  1.0 0.0989750757
H  H408  1  0.80522000  0.61142000  0.17358000  1.0 0.0989750757
H  H409  1  0.13858000  0.57642000  0.94478000  1.0 0.0989750757
H  H410  1  0.11142000  0.67358000  0.90978000  1.0 0.0989750757
H  H411  1  0.67358000  0.90978000  0.11142000  1.0 0.0989750757
H  H412  1  0.90978000  0.11142000  0.67358000  1.0 0.0989750757
H  H413  1  0.67358000  0.30522000  0.90978000  1.0 0.0989750757
H  H414  1  0.57642000  0.34022000  0.94478000  1.0 0.0989750757
H  H415  1  0.30522000  0.11142000  0.90978000  1.0 0.0989750757
H  H416  1  0.34022000  0.13858000  0.94478000  1.0 0.0989750757
H  H417  1  0.30522000  0.90978000  0.67358000  1.0 0.0989750757
H  H418  1  0.34022000  0.94478000  0.57642000  1.0 0.0989750757
H  H419  1  0.57642000  0.13858000  0.34022000  1.0 0.0989750757
H  H420  1  0.67358000  0.11142000  0.30522000  1.0 0.0989750757
H  H421  1  0.30522000  0.67358000  0.11142000  1.0 0.0989750757
H  H422  1  0.34022000  0.57642000  0.13858000  1.0 0.0989750757
H  H423  1  0.11142000  0.30522000  0.67358000  1.0 0.0989750757
H  H424  1  0.13858000  0.34022000  0.57642000  1.0 0.0989750757
H  H425  1  0.13858000  0.94478000  0.34022000  1.0 0.0989750757
H  H426  1  0.94478000  0.57642000  0.34022000  1.0 0.0989750757
H  H427  1  0.90978000  0.67358000  0.30522000  1.0 0.0989750757
H  H428  1  0.11142000  0.90978000  0.30522000  1.0 0.0989750757
H  H429  1  0.94478000  0.34022000  0.13858000  1.0 0.0989750757
H  H430  1  0.90978000  0.30522000  0.11142000  1.0 0.0989750757
H  H431  1  0.57642000  0.94478000  0.13858000  1.0 0.0989750757
H  H432  1  0.94478000  0.13858000  0.57642000  1.0 0.0989750757
H  H433  1  0.63560000  0.19740000  0.75360000  1.0 0.1314862772
H  H434  1  0.61440000  0.05260000  0.83660000  1.0 0.1314862772
H  H435  1  0.05260000  0.83660000  0.61440000  1.0 0.1314862772
H  H436  1  0.83660000  0.61440000  0.05260000  1.0 0.1314862772
H  H437  1  0.05260000  0.49640000  0.83660000  1.0 0.1314862772
H  H438  1  0.19740000  0.41340000  0.75360000  1.0 0.1314862772
H  H439  1  0.49640000  0.61440000  0.83660000  1.0 0.1314862772
H  H440  1  0.41340000  0.63560000  0.75360000  1.0 0.1314862772
H  H441  1  0.49640000  0.83660000  0.05260000  1.0 0.1314862772
H  H442  1  0.41340000  0.75360000  0.19740000  1.0 0.1314862772
H  H443  1  0.19740000  0.63560000  0.41340000  1.0 0.1314862772
H  H444  1  0.05260000  0.61440000  0.49640000  1.0 0.1314862772
H  H445  1  0.49640000  0.05260000  0.61440000  1.0 0.1314862772
H  H446  1  0.41340000  0.19740000  0.63560000  1.0 0.1314862772
H  H447  1  0.61440000  0.49640000  0.05260000  1.0 0.1314862772
H  H448  1  0.63560000  0.41340000  0.19740000  1.0 0.1314862772
H  H449  1  0.63560000  0.75360000  0.41340000  1.0 0.1314862772
H  H450  1  0.75360000  0.19740000  0.41340000  1.0 0.1314862772
H  H451  1  0.83660000  0.05260000  0.49640000  1.0 0.1314862772
H  H452  1  0.61440000  0.83660000  0.49640000  1.0 0.1314862772
H  H453  1  0.75360000  0.41340000  0.63560000  1.0 0.1314862772
H  H454  1  0.83660000  0.49640000  0.61440000  1.0 0.1314862772
H  H455  1  0.19740000  0.75360000  0.63560000  1.0 0.1314862772
H  H456  1  0.75360000  0.63560000  0.19740000  1.0 0.1314862772
H  H457  1  0.11440000  0.55260000  0.99640000  1.0 0.1314862772
H  H458  1  0.13560000  0.69740000  0.91340000  1.0 0.1314862772
H  H459  1  0.69740000  0.91340000  0.13560000  1.0 0.1314862772
H  H460  1  0.91340000  0.13560000  0.69740000  1.0 0.1314862772
H  H461  1  0.69740000  0.25360000  0.91340000  1.0 0.1314862772
H  H462  1  0.55260000  0.33660000  0.99640000  1.0 0.1314862772
H  H463  1  0.25360000  0.13560000  0.91340000  1.0 0.1314862772
H  H464  1  0.33660000  0.11440000  0.99640000  1.0 0.1314862772
H  H465  1  0.25360000  0.91340000  0.69740000  1.0 0.1314862772
H  H466  1  0.33660000  0.99640000  0.55260000  1.0 0.1314862772
H  H467  1  0.55260000  0.11440000  0.33660000  1.0 0.1314862772
H  H468  1  0.69740000  0.13560000  0.25360000  1.0 0.1314862772
H  H469  1  0.25360000  0.69740000  0.13560000  1.0 0.1314862772
H  H470  1  0.33660000  0.55260000  0.11440000  1.0 0.1314862772
H  H471  1  0.13560000  0.25360000  0.69740000  1.0 0.1314862772
H  H472  1  0.11440000  0.33660000  0.55260000  1.0 0.1314862772
H  H473  1  0.11440000  0.99640000  0.33660000  1.0 0.1314862772
H  H474  1  0.99640000  0.55260000  0.33660000  1.0 0.1314862772
H  H475  1  0.91340000  0.69740000  0.25360000  1.0 0.1314862772
H  H476  1  0.13560000  0.91340000  0.25360000  1.0 0.1314862772
H  H477  1  0.99640000  0.33660000  0.11440000  1.0 0.1314862772
H  H478  1  0.91340000  0.25360000  0.13560000  1.0 0.1314862772
H  H479  1  0.55260000  0.99640000  0.11440000  1.0 0.1314862772
H  H480  1  0.99640000  0.11440000  0.55260000  1.0 0.1314862772
H  H481  1  0.71680000  0.13140000  0.76280000  1.0 0.1314862772
H  H482  1  0.53320000  0.11860000  0.86100000  1.0 0.1314862772
H  H483  1  0.11860000  0.86100000  0.53320000  1.0 0.1314862772
H  H484  1  0.86100000  0.53320000  0.11860000  1.0 0.1314862772
H  H485  1  0.11860000  0.48720000  0.86100000  1.0 0.1314862772
H  H486  1  0.13140000  0.38900000  0.76280000  1.0 0.1314862772
H  H487  1  0.48720000  0.53320000  0.86100000  1.0 0.1314862772
H  H488  1  0.38900000  0.71680000  0.76280000  1.0 0.1314862772
H  H489  1  0.48720000  0.86100000  0.11860000  1.0 0.1314862772
H  H490  1  0.38900000  0.76280000  0.13140000  1.0 0.1314862772
H  H491  1  0.13140000  0.71680000  0.38900000  1.0 0.1314862772
H  H492  1  0.11860000  0.53320000  0.48720000  1.0 0.1314862772
H  H493  1  0.48720000  0.11860000  0.53320000  1.0 0.1314862772
H  H494  1  0.38900000  0.13140000  0.71680000  1.0 0.1314862772
H  H495  1  0.53320000  0.48720000  0.11860000  1.0 0.1314862772
H  H496  1  0.71680000  0.38900000  0.13140000  1.0 0.1314862772
H  H497  1  0.71680000  0.76280000  0.38900000  1.0 0.1314862772
H  H498  1  0.76280000  0.13140000  0.38900000  1.0 0.1314862772
H  H499  1  0.86100000  0.11860000  0.48720000  1.0 0.1314862772
H  H500  1  0.53320000  0.86100000  0.48720000  1.0 0.1314862772
H  H501  1  0.76280000  0.38900000  0.71680000  1.0 0.1314862772
H  H502  1  0.86100000  0.48720000  0.53320000  1.0 0.1314862772
H  H503  1  0.13140000  0.76280000  0.71680000  1.0 0.1314862772
H  H504  1  0.76280000  0.71680000  0.13140000  1.0 0.1314862772
H  H505  1  0.03320000  0.61860000  0.98720000  1.0 0.1314862772
H  H506  1  0.21680000  0.63140000  0.88900000  1.0 0.1314862772
H  H507  1  0.63140000  0.88900000  0.21680000  1.0 0.1314862772
H  H508  1  0.88900000  0.21680000  0.63140000  1.0 0.1314862772
H  H509  1  0.63140000  0.26280000  0.88900000  1.0 0.1314862772
H  H510  1  0.61860000  0.36100000  0.98720000  1.0 0.1314862772
H  H511  1  0.26280000  0.21680000  0.88900000  1.0 0.1314862772
H  H512  1  0.36100000  0.03320000  0.98720000  1.0 0.1314862772
H  H513  1  0.26280000  0.88900000  0.63140000  1.0 0.1314862772
H  H514  1  0.36100000  0.98720000  0.61860000  1.0 0.1314862772
H  H515  1  0.61860000  0.03320000  0.36100000  1.0 0.1314862772
H  H516  1  0.63140000  0.21680000  0.26280000  1.0 0.1314862772
H  H517  1  0.26280000  0.63140000  0.21680000  1.0 0.1314862772
H  H518  1  0.36100000  0.61860000  0.03320000  1.0 0.1314862772
H  H519  1  0.21680000  0.26280000  0.63140000  1.0 0.1314862772
H  H520  1  0.03320000  0.36100000  0.61860000  1.0 0.1314862772
H  H521  1  0.03320000  0.98720000  0.36100000  1.0 0.1314862772
H  H522  1  0.98720000  0.61860000  0.36100000  1.0 0.1314862772
H  H523  1  0.88900000  0.63140000  0.26280000  1.0 0.1314862772
H  H524  1  0.21680000  0.88900000  0.26280000  1.0 0.1314862772
H  H525  1  0.98720000  0.36100000  0.03320000  1.0 0.1314862772
H  H526  1  0.88900000  0.26280000  0.21680000  1.0 0.1314862772
H  H527  1  0.61860000  0.98720000  0.03320000  1.0 0.1314862772
H  H528  1  0.98720000  0.03320000  0.61860000  1.0 0.1314862772
H  H529  1  0.69040000  0.10940000  0.81380000  1.0 0.0989750757
H  H530  1  0.55960000  0.14060000  0.86360000  1.0 0.0989750757
H  H531  1  0.14060000  0.86360000  0.55960000  1.0 0.0989750757
H  H532  1  0.86360000  0.55960000  0.14060000  1.0 0.0989750757
H  H533  1  0.14060000  0.43620000  0.86360000  1.0 0.0989750757
H  H534  1  0.10940000  0.38640000  0.81380000  1.0 0.0989750757
H  H535  1  0.43620000  0.55960000  0.86360000  1.0 0.0989750757
H  H536  1  0.38640000  0.69040000  0.81380000  1.0 0.0989750757
H  H537  1  0.43620000  0.86360000  0.14060000  1.0 0.0989750757
H  H538  1  0.38640000  0.81380000  0.10940000  1.0 0.0989750757
H  H539  1  0.10940000  0.69040000  0.38640000  1.0 0.0989750757
H  H540  1  0.14060000  0.55960000  0.43620000  1.0 0.0989750757
H  H541  1  0.43620000  0.14060000  0.55960000  1.0 0.0989750757
H  H542  1  0.38640000  0.10940000  0.69040000  1.0 0.0989750757
H  H543  1  0.55960000  0.43620000  0.14060000  1.0 0.0989750757
H  H544  1  0.69040000  0.38640000  0.10940000  1.0 0.0989750757
H  H545  1  0.69040000  0.81380000  0.38640000  1.0 0.0989750757
H  H546  1  0.81380000  0.10940000  0.38640000  1.0 0.0989750757
H  H547  1  0.86360000  0.14060000  0.43620000  1.0 0.0989750757
H  H548  1  0.55960000  0.86360000  0.43620000  1.0 0.0989750757
H  H549  1  0.81380000  0.38640000  0.69040000  1.0 0.0989750757
H  H550  1  0.86360000  0.43620000  0.55960000  1.0 0.0989750757
H  H551  1  0.10940000  0.81380000  0.69040000  1.0 0.0989750757
H  H552  1  0.81380000  0.69040000  0.10940000  1.0 0.0989750757
H  H553  1  0.05960000  0.64060000  0.93620000  1.0 0.0989750757
H  H554  1  0.19040000  0.60940000  0.88640000  1.0 0.0989750757
H  H555  1  0.60940000  0.88640000  0.19040000  1.0 0.0989750757
H  H556  1  0.88640000  0.19040000  0.60940000  1.0 0.0989750757
H  H557  1  0.60940000  0.31380000  0.88640000  1.0 0.0989750757
H  H558  1  0.64060000  0.36360000  0.93620000  1.0 0.0989750757
H  H559  1  0.31380000  0.19040000  0.88640000  1.0 0.0989750757
H  H560  1  0.36360000  0.05960000  0.93620000  1.0 0.0989750757
H  H561  1  0.31380000  0.88640000  0.60940000  1.0 0.0989750757
H  H562  1  0.36360000  0.93620000  0.64060000  1.0 0.0989750757
H  H563  1  0.64060000  0.05960000  0.36360000  1.0 0.0989750757
H  H564  1  0.60940000  0.19040000  0.31380000  1.0 0.0989750757
H  H565  1  0.31380000  0.60940000  0.19040000  1.0 0.0989750757
H  H566  1  0.36360000  0.64060000  0.05960000  1.0 0.0989750757
H  H567  1  0.19040000  0.31380000  0.60940000  1.0 0.0989750757
H  H568  1  0.05960000  0.36360000  0.64060000  1.0 0.0989750757
H  H569  1  0.05960000  0.93620000  0.36360000  1.0 0.0989750757
H  H570  1  0.93620000  0.64060000  0.36360000  1.0 0.0989750757
H  H571  1  0.88640000  0.60940000  0.31380000  1.0 0.0989750757
H  H572  1  0.19040000  0.88640000  0.31380000  1.0 0.0989750757
H  H573  1  0.93620000  0.36360000  0.05960000  1.0 0.0989750757
H  H574  1  0.88640000  0.31380000  0.19040000  1.0 0.0989750757
H  H575  1  0.64060000  0.93620000  0.05960000  1.0 0.0989750757
H  H576  1  0.93620000  0.05960000  0.64060000  1.0 0.0989750757
H  H577  1  0.82660000  0.10940000  0.66920000  1.0 0.0989750757
H  H578  1  0.42340000  0.14060000  0.85520000  1.0 0.0989750757
H  H579  1  0.14060000  0.85520000  0.42340000  1.0 0.0989750757
H  H580  1  0.85520000  0.42340000  0.14060000  1.0 0.0989750757
H  H581  1  0.14060000  0.58080000  0.85520000  1.0 0.0989750757
H  H582  1  0.10940000  0.39480000  0.66920000  1.0 0.0989750757
H  H583  1  0.58080000  0.42340000  0.85520000  1.0 0.0989750757
H  H584  1  0.39480000  0.82660000  0.66920000  1.0 0.0989750757
H  H585  1  0.58080000  0.85520000  0.14060000  1.0 0.0989750757
H  H586  1  0.39480000  0.66920000  0.10940000  1.0 0.0989750757
H  H587  1  0.10940000  0.82660000  0.39480000  1.0 0.0989750757
H  H588  1  0.14060000  0.42340000  0.58080000  1.0 0.0989750757
H  H589  1  0.58080000  0.14060000  0.42340000  1.0 0.0989750757
H  H590  1  0.39480000  0.10940000  0.82660000  1.0 0.0989750757
H  H591  1  0.42340000  0.58080000  0.14060000  1.0 0.0989750757
H  H592  1  0.82660000  0.39480000  0.10940000  1.0 0.0989750757
H  H593  1  0.82660000  0.66920000  0.39480000  1.0 0.0989750757
H  H594  1  0.66920000  0.10940000  0.39480000  1.0 0.0989750757
H  H595  1  0.85520000  0.14060000  0.58080000  1.0 0.0989750757
H  H596  1  0.42340000  0.85520000  0.58080000  1.0 0.0989750757
H  H597  1  0.66920000  0.39480000  0.82660000  1.0 0.0989750757
H  H598  1  0.85520000  0.58080000  0.42340000  1.0 0.0989750757
H  H599  1  0.10940000  0.66920000  0.82660000  1.0 0.0989750757
H  H600  1  0.66920000  0.82660000  0.10940000  1.0 0.0989750757
H  H601  1  0.92340000  0.64060000  0.08080000  1.0 0.0989750757
H  H602  1  0.32660000  0.60940000  0.89480000  1.0 0.0989750757
H  H603  1  0.60940000  0.89480000  0.32660000  1.0 0.0989750757
H  H604  1  0.89480000  0.32660000  0.60940000  1.0 0.0989750757
H  H605  1  0.60940000  0.16920000  0.89480000  1.0 0.0989750757
H  H606  1  0.64060000  0.35520000  0.08080000  1.0 0.0989750757
H  H607  1  0.16920000  0.32660000  0.89480000  1.0 0.0989750757
H  H608  1  0.35520000  0.92340000  0.08080000  1.0 0.0989750757
H  H609  1  0.16920000  0.89480000  0.60940000  1.0 0.0989750757
H  H610  1  0.35520000  0.08080000  0.64060000  1.0 0.0989750757
H  H611  1  0.64060000  0.92340000  0.35520000  1.0 0.0989750757
H  H612  1  0.60940000  0.32660000  0.16920000  1.0 0.0989750757
H  H613  1  0.16920000  0.60940000  0.32660000  1.0 0.0989750757
H  H614  1  0.35520000  0.64060000  0.92340000  1.0 0.0989750757
H  H615  1  0.32660000  0.16920000  0.60940000  1.0 0.0989750757
H  H616  1  0.92340000  0.35520000  0.64060000  1.0 0.0989750757
H  H617  1  0.92340000  0.08080000  0.35520000  1.0 0.0989750757
H  H618  1  0.08080000  0.64060000  0.35520000  1.0 0.0989750757
H  H619  1  0.89480000  0.60940000  0.16920000  1.0 0.0989750757
H  H620  1  0.32660000  0.89480000  0.16920000  1.0 0.0989750757
H  H621  1  0.08080000  0.35520000  0.92340000  1.0 0.0989750757
H  H622  1  0.89480000  0.16920000  0.32660000  1.0 0.0989750757
H  H623  1  0.64060000  0.08080000  0.92340000  1.0 0.0989750757
H  H624  1  0.08080000  0.92340000  0.64060000  1.0 0.0989750757
H  H625  1  0.77450000  0.13050000  0.69230000  1.0 0.1314862772
H  H626  1  0.47550000  0.11950000  0.84730000  1.0 0.1314862772
H  H627  1  0.11950000  0.84730000  0.47550000  1.0 0.1314862772
H  H628  1  0.84730000  0.47550000  0.11950000  1.0 0.1314862772
H  H629  1  0.11950000  0.55770000  0.84730000  1.0 0.1314862772
H  H630  1  0.13050000  0.40270000  0.69230000  1.0 0.1314862772
H  H631  1  0.55770000  0.47550000  0.84730000  1.0 0.1314862772
H  H632  1  0.40270000  0.77450000  0.69230000  1.0 0.1314862772
H  H633  1  0.55770000  0.84730000  0.11950000  1.0 0.1314862772
H  H634  1  0.40270000  0.69230000  0.13050000  1.0 0.1314862772
H  H635  1  0.13050000  0.77450000  0.40270000  1.0 0.1314862772
H  H636  1  0.11950000  0.47550000  0.55770000  1.0 0.1314862772
H  H637  1  0.55770000  0.11950000  0.47550000  1.0 0.1314862772
H  H638  1  0.40270000  0.13050000  0.77450000  1.0 0.1314862772
H  H639  1  0.47550000  0.55770000  0.11950000  1.0 0.1314862772
H  H640  1  0.77450000  0.40270000  0.13050000  1.0 0.1314862772
H  H641  1  0.77450000  0.69230000  0.40270000  1.0 0.1314862772
H  H642  1  0.69230000  0.13050000  0.40270000  1.0 0.1314862772
H  H643  1  0.84730000  0.11950000  0.55770000  1.0 0.1314862772
H  H644  1  0.47550000  0.84730000  0.55770000  1.0 0.1314862772
H  H645  1  0.69230000  0.40270000  0.77450000  1.0 0.1314862772
H  H646  1  0.84730000  0.55770000  0.47550000  1.0 0.1314862772
H  H647  1  0.13050000  0.69230000  0.77450000  1.0 0.1314862772
H  H648  1  0.69230000  0.77450000  0.13050000  1.0 0.1314862772
H  H649  1  0.97550000  0.61950000  0.05770000  1.0 0.1314862772
H  H650  1  0.27450000  0.63050000  0.90270000  1.0 0.1314862772
H  H651  1  0.63050000  0.90270000  0.27450000  1.0 0.1314862772
H  H652  1  0.90270000  0.27450000  0.63050000  1.0 0.1314862772
H  H653  1  0.63050000  0.19230000  0.90270000  1.0 0.1314862772
H  H654  1  0.61950000  0.34730000  0.05770000  1.0 0.1314862772
H  H655  1  0.19230000  0.27450000  0.90270000  1.0 0.1314862772
H  H656  1  0.34730000  0.97550000  0.05770000  1.0 0.1314862772
H  H657  1  0.19230000  0.90270000  0.63050000  1.0 0.1314862772
H  H658  1  0.34730000  0.05770000  0.61950000  1.0 0.1314862772
H  H659  1  0.61950000  0.97550000  0.34730000  1.0 0.1314862772
H  H660  1  0.63050000  0.27450000  0.19230000  1.0 0.1314862772
H  H661  1  0.19230000  0.63050000  0.27450000  1.0 0.1314862772
H  H662  1  0.34730000  0.61950000  0.97550000  1.0 0.1314862772
H  H663  1  0.27450000  0.19230000  0.63050000  1.0 0.1314862772
H  H664  1  0.97550000  0.34730000  0.61950000  1.0 0.1314862772
H  H665  1  0.97550000  0.05770000  0.34730000  1.0 0.1314862772
H  H666  1  0.05770000  0.61950000  0.34730000  1.0 0.1314862772
H  H667  1  0.90270000  0.63050000  0.19230000  1.0 0.1314862772
H  H668  1  0.27450000  0.90270000  0.19230000  1.0 0.1314862772
H  H669  1  0.05770000  0.34730000  0.97550000  1.0 0.1314862772
H  H670  1  0.90270000  0.19230000  0.27450000  1.0 0.1314862772
H  H671  1  0.61950000  0.05770000  0.97550000  1.0 0.1314862772
H  H672  1  0.05770000  0.97550000  0.61950000  1.0 0.1314862772
H  H673  1  0.78180000  0.21520000  0.63460000  1.0 0.1314862772
H  H674  1  0.46820000  0.03480000  0.88160000  1.0 0.1314862772
H  H675  1  0.03480000  0.88160000  0.46820000  1.0 0.1314862772
H  H676  1  0.88160000  0.46820000  0.03480000  1.0 0.1314862772
H  H677  1  0.03480000  0.61540000  0.88160000  1.0 0.1314862772
H  H678  1  0.21520000  0.36840000  0.63460000  1.0 0.1314862772
H  H679  1  0.61540000  0.46820000  0.88160000  1.0 0.1314862772
H  H680  1  0.36840000  0.78180000  0.63460000  1.0 0.1314862772
H  H681  1  0.61540000  0.88160000  0.03480000  1.0 0.1314862772
H  H682  1  0.36840000  0.63460000  0.21520000  1.0 0.1314862772
H  H683  1  0.21520000  0.78180000  0.36840000  1.0 0.1314862772
H  H684  1  0.03480000  0.46820000  0.61540000  1.0 0.1314862772
H  H685  1  0.61540000  0.03480000  0.46820000  1.0 0.1314862772
H  H686  1  0.36840000  0.21520000  0.78180000  1.0 0.1314862772
H  H687  1  0.46820000  0.61540000  0.03480000  1.0 0.1314862772
H  H688  1  0.78180000  0.36840000  0.21520000  1.0 0.1314862772
H  H689  1  0.78180000  0.63460000  0.36840000  1.0 0.1314862772
H  H690  1  0.63460000  0.21520000  0.36840000  1.0 0.1314862772
H  H691  1  0.88160000  0.03480000  0.61540000  1.0 0.1314862772
H  H692  1  0.46820000  0.88160000  0.61540000  1.0 0.1314862772
H  H693  1  0.63460000  0.36840000  0.78180000  1.0 0.1314862772
H  H694  1  0.88160000  0.61540000  0.46820000  1.0 0.1314862772
H  H695  1  0.21520000  0.63460000  0.78180000  1.0 0.1314862772
H  H696  1  0.63460000  0.78180000  0.21520000  1.0 0.1314862772
H  H697  1  0.96820000  0.53480000  0.11540000  1.0 0.1314862772
H  H698  1  0.28180000  0.71520000  0.86840000  1.0 0.1314862772
H  H699  1  0.71520000  0.86840000  0.28180000  1.0 0.1314862772
H  H700  1  0.86840000  0.28180000  0.71520000  1.0 0.1314862772
H  H701  1  0.71520000  0.13460000  0.86840000  1.0 0.1314862772
H  H702  1  0.53480000  0.38160000  0.11540000  1.0 0.1314862772
H  H703  1  0.13460000  0.28180000  0.86840000  1.0 0.1314862772
H  H704  1  0.38160000  0.96820000  0.11540000  1.0 0.1314862772
H  H705  1  0.13460000  0.86840000  0.71520000  1.0 0.1314862772
H  H706  1  0.38160000  0.11540000  0.53480000  1.0 0.1314862772
H  H707  1  0.53480000  0.96820000  0.38160000  1.0 0.1314862772
H  H708  1  0.71520000  0.28180000  0.13460000  1.0 0.1314862772
H  H709  1  0.13460000  0.71520000  0.28180000  1.0 0.1314862772
H  H710  1  0.38160000  0.53480000  0.96820000  1.0 0.1314862772
H  H711  1  0.28180000  0.13460000  0.71520000  1.0 0.1314862772
H  H712  1  0.96820000  0.38160000  0.53480000  1.0 0.1314862772
H  H713  1  0.96820000  0.11540000  0.38160000  1.0 0.1314862772
H  H714  1  0.11540000  0.53480000  0.38160000  1.0 0.1314862772
H  H715  1  0.86840000  0.71520000  0.13460000  1.0 0.1314862772
H  H716  1  0.28180000  0.86840000  0.13460000  1.0 0.1314862772
H  H717  1  0.11540000  0.38160000  0.96820000  1.0 0.1314862772
H  H718  1  0.86840000  0.13460000  0.28180000  1.0 0.1314862772
H  H719  1  0.53480000  0.11540000  0.96820000  1.0 0.1314862772
H  H720  1  0.11540000  0.96820000  0.53480000  1.0 0.1314862772
H  H721  1  0.83450000  0.19130000  0.61510000  1.0 0.0989750757
H  H722  1  0.41550000  0.05870000  0.89090000  1.0 0.0989750757
H  H723  1  0.05870000  0.89090000  0.41550000  1.0 0.0989750757
H  H724  1  0.89090000  0.41550000  0.05870000  1.0 0.0989750757
H  H725  1  0.05870000  0.63490000  0.89090000  1.0 0.0989750757
H  H726  1  0.19130000  0.35910000  0.61510000  1.0 0.0989750757
H  H727  1  0.63490000  0.41550000  0.89090000  1.0 0.0989750757
H  H728  1  0.35910000  0.83450000  0.61510000  1.0 0.0989750757
H  H729  1  0.63490000  0.89090000  0.05870000  1.0 0.0989750757
H  H730  1  0.35910000  0.61510000  0.19130000  1.0 0.0989750757
H  H731  1  0.19130000  0.83450000  0.35910000  1.0 0.0989750757
H  H732  1  0.05870000  0.41550000  0.63490000  1.0 0.0989750757
H  H733  1  0.63490000  0.05870000  0.41550000  1.0 0.0989750757
H  H734  1  0.35910000  0.19130000  0.83450000  1.0 0.0989750757
H  H735  1  0.41550000  0.63490000  0.05870000  1.0 0.0989750757
H  H736  1  0.83450000  0.35910000  0.19130000  1.0 0.0989750757
H  H737  1  0.83450000  0.61510000  0.35910000  1.0 0.0989750757
H  H738  1  0.61510000  0.19130000  0.35910000  1.0 0.0989750757
H  H739  1  0.89090000  0.05870000  0.63490000  1.0 0.0989750757
H  H740  1  0.41550000  0.89090000  0.63490000  1.0 0.0989750757
H  H741  1  0.61510000  0.35910000  0.83450000  1.0 0.0989750757
H  H742  1  0.89090000  0.63490000  0.41550000  1.0 0.0989750757
H  H743  1  0.19130000  0.61510000  0.83450000  1.0 0.0989750757
H  H744  1  0.61510000  0.83450000  0.19130000  1.0 0.0989750757
H  H745  1  0.91550000  0.55870000  0.13490000  1.0 0.0989750757
H  H746  1  0.33450000  0.69130000  0.85910000  1.0 0.0989750757
H  H747  1  0.69130000  0.85910000  0.33450000  1.0 0.0989750757
H  H748  1  0.85910000  0.33450000  0.69130000  1.0 0.0989750757
H  H749  1  0.69130000  0.11510000  0.85910000  1.0 0.0989750757
H  H750  1  0.55870000  0.39090000  0.13490000  1.0 0.0989750757
H  H751  1  0.11510000  0.33450000  0.85910000  1.0 0.0989750757
H  H752  1  0.39090000  0.91550000  0.13490000  1.0 0.0989750757
H  H753  1  0.11510000  0.85910000  0.69130000  1.0 0.0989750757
H  H754  1  0.39090000  0.13490000  0.55870000  1.0 0.0989750757
H  H755  1  0.55870000  0.91550000  0.39090000  1.0 0.0989750757
H  H756  1  0.69130000  0.33450000  0.11510000  1.0 0.0989750757
H  H757  1  0.11510000  0.69130000  0.33450000  1.0 0.0989750757
H  H758  1  0.39090000  0.55870000  0.91550000  1.0 0.0989750757
H  H759  1  0.33450000  0.11510000  0.69130000  1.0 0.0989750757
H  H760  1  0.91550000  0.39090000  0.55870000  1.0 0.0989750757
H  H761  1  0.91550000  0.13490000  0.39090000  1.0 0.0989750757
H  H762  1  0.13490000  0.55870000  0.39090000  1.0 0.0989750757
H  H763  1  0.85910000  0.69130000  0.11510000  1.0 0.0989750757
H  H764  1  0.33450000  0.85910000  0.11510000  1.0 0.0989750757
H  H765  1  0.13490000  0.39090000  0.91550000  1.0 0.0989750757
H  H766  1  0.85910000  0.11510000  0.33450000  1.0 0.0989750757
H  H767  1  0.55870000  0.13490000  0.91550000  1.0 0.0989750757
H  H768  1  0.13490000  0.91550000  0.55870000  1.0 0.0989750757
C  C1  1  0.56161000  0.35805000  0.56127000  1.0 0.365887374
C  C2  1  0.68839000  0.89195000  0.73093000  1.0 0.365887374
C  C3  1  0.89195000  0.73093000  0.68839000  1.0 0.365887374
C  C4  1  0.73093000  0.68839000  0.89195000  1.0 0.3623411046
C  C5  1  0.89195000  0.68873000  0.73093000  1.0 0.3623411046
C  C6  1  0.35805000  0.51907000  0.56127000  1.0 0.365887374
C  C7  1  0.68873000  0.68839000  0.73093000  1.0 0.3623411046
C  C8  1  0.51907000  0.56161000  0.56127000  1.0 0.3623411046
C  C9  1  0.68873000  0.73093000  0.89195000  1.0 0.3623411046
C  C10  1  0.51907000  0.56127000  0.35805000  1.0 0.3623411046
C  C11  1  0.35805000  0.56161000  0.51907000  1.0 0.3623411046
C  C12  1  0.89195000  0.68839000  0.68873000  1.0 0.3623411046
C  C13  1  0.68873000  0.89195000  0.68839000  1.0 0.3623411046
C  C14  1  0.51907000  0.35805000  0.56161000  1.0 0.3623411046
C  C15  1  0.68839000  0.68873000  0.89195000  1.0 0.365887374
C  C16  1  0.56161000  0.51907000  0.35805000  1.0 0.3623411046
C  C17  1  0.56161000  0.56127000  0.51907000  1.0 0.3623411046
C  C18  1  0.56127000  0.35805000  0.51907000  1.0 0.365887374
C  C19  1  0.73093000  0.89195000  0.68873000  1.0 0.3623411046
C  C20  1  0.68839000  0.73093000  0.68873000  1.0 0.3623411046
C  C21  1  0.56127000  0.51907000  0.56161000  1.0 0.3623411046
C  C22  1  0.73093000  0.68873000  0.68839000  1.0 0.3623411046
C  C23  1  0.35805000  0.56127000  0.56161000  1.0 0.365887374
C  C24  1  0.56127000  0.56161000  0.35805000  1.0 0.365887374
C  C25  1  0.18839000  0.39195000  0.18873000  1.0 0.365887374
C  C26  1  0.06161000  0.85805000  0.01907000  1.0 0.365887374
C  C27  1  0.85805000  0.01907000  0.06161000  1.0 0.365887374
C  C28  1  0.01907000  0.06161000  0.85805000  1.0 0.365887374
C  C29  1  0.85805000  0.06127000  0.01907000  1.0 0.3623411046
C  C30  1  0.39195000  0.23093000  0.18873000  1.0 0.365887374
C  C31  1  0.06127000  0.06161000  0.01907000  1.0 0.365887374
C  C32  1  0.23093000  0.18839000  0.18873000  1.0 0.365887374
C  C33  1  0.06127000  0.01907000  0.85805000  1.0 0.3623411046
C  C34  1  0.23093000  0.18873000  0.39195000  1.0 0.365887374
C  C35  1  0.39195000  0.18839000  0.23093000  1.0 0.365887374
C  C36  1  0.85805000  0.06161000  0.06127000  1.0 0.365887374
C  C37  1  0.06127000  0.85805000  0.06161000  1.0 0.365887374
C  C38  1  0.23093000  0.39195000  0.18839000  1.0 0.365887374
C  C39  1  0.06161000  0.06127000  0.85805000  1.0 0.365887374
C  C40  1  0.18839000  0.23093000  0.39195000  1.0 0.365887374
C  C41  1  0.18839000  0.18873000  0.23093000  1.0 0.365887374
C  C42  1  0.18873000  0.39195000  0.23093000  1.0 0.365887374
C  C43  1  0.01907000  0.85805000  0.06127000  1.0 0.365887374
C  C44  1  0.06161000  0.01907000  0.06127000  1.0 0.365887374
C  C45  1  0.18873000  0.23093000  0.18839000  1.0 0.365887374
C  C46  1  0.01907000  0.06127000  0.06161000  1.0 0.365887374
C  C47  1  0.39195000  0.18873000  0.18839000  1.0 0.365887374
C  C48  1  0.18873000  0.18839000  0.39195000  1.0 0.365887374
C  C49  1  0.62136000  0.35868000  0.57876000  1.0 0.0714952481
C  C50  1  0.62864000  0.89132000  0.80880000  1.0 0.0714952481
C  C51  1  0.89132000  0.80880000  0.62864000  1.0 0.0714952481
C  C52  1  0.80880000  0.62864000  0.89132000  1.0 0.0714952481
C  C53  1  0.89132000  0.67124000  0.80880000  1.0 0.0714952481
C  C54  1  0.35868000  0.44120000  0.57876000  1.0 0.0714952481
C  C55  1  0.67124000  0.62864000  0.80880000  1.0 0.0714952481
C  C56  1  0.44120000  0.62136000  0.57876000  1.0 0.0714952481
C  C57  1  0.67124000  0.80880000  0.89132000  1.0 0.0714952481
C  C58  1  0.44120000  0.57876000  0.35868000  1.0 0.0714952481
C  C59  1  0.35868000  0.62136000  0.44120000  1.0 0.0714952481
C  C60  1  0.89132000  0.62864000  0.67124000  1.0 0.0714952481
C  C61  1  0.67124000  0.89132000  0.62864000  1.0 0.0714952481
C  C62  1  0.44120000  0.35868000  0.62136000  1.0 0.0714952481
C  C63  1  0.62864000  0.67124000  0.89132000  1.0 0.0714952481
C  C64  1  0.62136000  0.44120000  0.35868000  1.0 0.0714952481
C  C65  1  0.62136000  0.57876000  0.44120000  1.0 0.0714952481
C  C66  1  0.57876000  0.35868000  0.44120000  1.0 0.0714952481
C  C67  1  0.80880000  0.89132000  0.67124000  1.0 0.0714952481
C  C68  1  0.62864000  0.80880000  0.67124000  1.0 0.0714952481
C  C69  1  0.57876000  0.44120000  0.62136000  1.0 0.0714952481
C  C70  1  0.80880000  0.67124000  0.62864000  1.0 0.0714952481
C  C71  1  0.35868000  0.57876000  0.62136000  1.0 0.0714952481
C  C72  1  0.57876000  0.62136000  0.35868000  1.0 0.0714952481
C  C73  1  0.12864000  0.39132000  0.17124000  1.0 0.0714952481
C  C74  1  0.12136000  0.85868000  0.94120000  1.0 0.0714952481
C  C75  1  0.85868000  0.94120000  0.12136000  1.0 0.0714952481
C  C76  1  0.94120000  0.12136000  0.85868000  1.0 0.0714952481
C  C77  1  0.85868000  0.07876000  0.94120000  1.0 0.0714952481
C  C78  1  0.39132000  0.30880000  0.17124000  1.0 0.0714952481
C  C79  1  0.07876000  0.12136000  0.94120000  1.0 0.0714952481
C  C80  1  0.30880000  0.12864000  0.17124000  1.0 0.0714952481
C  C81  1  0.07876000  0.94120000  0.85868000  1.0 0.0714952481
C  C82  1  0.30880000  0.17124000  0.39132000  1.0 0.0714952481
C  C83  1  0.39132000  0.12864000  0.30880000  1.0 0.0714952481
C  C84  1  0.85868000  0.12136000  0.07876000  1.0 0.0714952481
C  C85  1  0.07876000  0.85868000  0.12136000  1.0 0.0714952481
C  C86  1  0.30880000  0.39132000  0.12864000  1.0 0.0714952481
C  C87  1  0.12136000  0.07876000  0.85868000  1.0 0.0714952481
C  C88  1  0.12864000  0.30880000  0.39132000  1.0 0.0714952481
C  C89  1  0.12864000  0.17124000  0.30880000  1.0 0.0714952481
C  C90  1  0.17124000  0.39132000  0.30880000  1.0 0.0714952481
C  C91  1  0.94120000  0.85868000  0.07876000  1.0 0.0714952481
C  C92  1  0.12136000  0.94120000  0.07876000  1.0 0.0714952481
C  C93  1  0.17124000  0.30880000  0.12864000  1.0 0.0714952481
C  C94  1  0.94120000  0.07876000  0.12136000  1.0 0.0714952481
C  C95  1  0.39132000  0.17124000  0.12864000  1.0 0.0714952481
C  C96  1  0.17124000  0.12864000  0.39132000  1.0 0.0714952481
C  C97  1  0.60843000  0.35547000  0.56397000  1.0 -0.1616535376
C  C98  1  0.64157000  0.89453000  0.77787000  1.0 -0.1616535376
C  C99  1  0.89453000  0.77787000  0.64157000  1.0 -0.1616535376
C  C100  1  0.77787000  0.64157000  0.89453000  1.0 -0.1616535376
C  C101  1  0.89453000  0.68603000  0.77787000  1.0 -0.1616535376
C  C102  1  0.35547000  0.47213000  0.56397000  1.0 -0.1616535376
C  C103  1  0.68603000  0.64157000  0.77787000  1.0 -0.1616535376
C  C104  1  0.47213000  0.60843000  0.56397000  1.0 -0.1616535376
C  C105  1  0.68603000  0.77787000  0.89453000  1.0 -0.1616535376
C  C106  1  0.47213000  0.56397000  0.35547000  1.0 -0.1616535376
C  C107  1  0.35547000  0.60843000  0.47213000  1.0 -0.1616535376
C  C108  1  0.89453000  0.64157000  0.68603000  1.0 -0.1616535376
C  C109  1  0.68603000  0.89453000  0.64157000  1.0 -0.1616535376
C  C110  1  0.47213000  0.35547000  0.60843000  1.0 -0.1616535376
C  C111  1  0.64157000  0.68603000  0.89453000  1.0 -0.1616535376
C  C112  1  0.60843000  0.47213000  0.35547000  1.0 -0.1616535376
C  C113  1  0.60843000  0.56397000  0.47213000  1.0 -0.1616535376
C  C114  1  0.56397000  0.35547000  0.47213000  1.0 -0.1616535376
C  C115  1  0.77787000  0.89453000  0.68603000  1.0 -0.1616535376
C  C116  1  0.64157000  0.77787000  0.68603000  1.0 -0.1616535376
C  C117  1  0.56397000  0.47213000  0.60843000  1.0 -0.1616535376
C  C118  1  0.77787000  0.68603000  0.64157000  1.0 -0.1616535376
C  C119  1  0.35547000  0.56397000  0.60843000  1.0 -0.1616535376
C  C120  1  0.56397000  0.60843000  0.35547000  1.0 -0.1616535376
C  C121  1  0.14157000  0.39453000  0.18603000  1.0 -0.1616535376
C  C122  1  0.10843000  0.85547000  0.97213000  1.0 -0.1616535376
C  C123  1  0.85547000  0.97213000  0.10843000  1.0 -0.1616535376
C  C124  1  0.97213000  0.10843000  0.85547000  1.0 -0.1616535376
C  C125  1  0.85547000  0.06397000  0.97213000  1.0 -0.1616535376
C  C126  1  0.39453000  0.27787000  0.18603000  1.0 -0.1616535376
C  C127  1  0.06397000  0.10843000  0.97213000  1.0 -0.1616535376
C  C128  1  0.27787000  0.14157000  0.18603000  1.0 -0.1616535376
C  C129  1  0.06397000  0.97213000  0.85547000  1.0 -0.1616535376
C  C130  1  0.27787000  0.18603000  0.39453000  1.0 -0.1616535376
C  C131  1  0.39453000  0.14157000  0.27787000  1.0 -0.1616535376
C  C132  1  0.85547000  0.10843000  0.06397000  1.0 -0.1616535376
C  C133  1  0.06397000  0.85547000  0.10843000  1.0 -0.1616535376
C  C134  1  0.27787000  0.39453000  0.14157000  1.0 -0.1616535376
C  C135  1  0.10843000  0.06397000  0.85547000  1.0 -0.1616535376
C  C136  1  0.14157000  0.27787000  0.39453000  1.0 -0.1616535376
C  C137  1  0.14157000  0.18603000  0.27787000  1.0 -0.1616535376
C  C138  1  0.18603000  0.39453000  0.27787000  1.0 -0.1616535376
C  C139  1  0.97213000  0.85547000  0.06397000  1.0 -0.1616535376
C  C140  1  0.10843000  0.97213000  0.06397000  1.0 -0.1616535376
C  C141  1  0.18603000  0.27787000  0.14157000  1.0 -0.1616535376
C  C142  1  0.97213000  0.06397000  0.10843000  1.0 -0.1616535376
C  C143  1  0.39453000  0.18603000  0.14157000  1.0 -0.1616535376
C  C144  1  0.18603000  0.14157000  0.39453000  1.0 -0.1616535376
C  C145  1  0.57767000  0.36023000  0.57585000  1.0 0.049920971
C  C146  1  0.67233000  0.88977000  0.76375000  1.0 0.049920971
C  C147  1  0.88977000  0.76375000  0.67233000  1.0 0.049920971
C  C148  1  0.76375000  0.67233000  0.88977000  1.0 0.049920971
C  C149  1  0.88977000  0.67415000  0.76375000  1.0 0.049920971
C  C150  1  0.36023000  0.48625000  0.57585000  1.0 0.049920971
C  C151  1  0.67415000  0.67233000  0.76375000  1.0 0.049920971
C  C152  1  0.48625000  0.57767000  0.57585000  1.0 0.049920971
C  C153  1  0.67415000  0.76375000  0.88977000  1.0 0.049920971
C  C154  1  0.48625000  0.57585000  0.36023000  1.0 0.049920971
C  C155  1  0.36023000  0.57767000  0.48625000  1.0 0.049920971
C  C156  1  0.88977000  0.67233000  0.67415000  1.0 0.049920971
C  C157  1  0.67415000  0.88977000  0.67233000  1.0 0.049920971
C  C158  1  0.48625000  0.36023000  0.57767000  1.0 0.049920971
C  C159  1  0.67233000  0.67415000  0.88977000  1.0 0.049920971
C  C160  1  0.57767000  0.48625000  0.36023000  1.0 0.049920971
C  C161  1  0.57767000  0.57585000  0.48625000  1.0 0.049920971
C  C162  1  0.57585000  0.36023000  0.48625000  1.0 0.049920971
C  C163  1  0.76375000  0.88977000  0.67415000  1.0 0.049920971
C  C164  1  0.67233000  0.76375000  0.67415000  1.0 0.049920971
C  C165  1  0.57585000  0.48625000  0.57767000  1.0 0.049920971
C  C166  1  0.76375000  0.67415000  0.67233000  1.0 0.049920971
C  C167  1  0.36023000  0.57585000  0.57767000  1.0 0.049920971
C  C168  1  0.57585000  0.57767000  0.36023000  1.0 0.049920971
C  C169  1  0.17233000  0.38977000  0.17415000  1.0 0.049920971
C  C170  1  0.07767000  0.86023000  0.98625000  1.0 0.049920971
C  C171  1  0.86023000  0.98625000  0.07767000  1.0 0.049920971
C  C172  1  0.98625000  0.07767000  0.86023000  1.0 0.049920971
C  C173  1  0.86023000  0.07585000  0.98625000  1.0 0.049920971
C  C174  1  0.38977000  0.26375000  0.17415000  1.0 0.049920971
C  C175  1  0.07585000  0.07767000  0.98625000  1.0 0.049920971
C  C176  1  0.26375000  0.17233000  0.17415000  1.0 0.049920971
C  C177  1  0.07585000  0.98625000  0.86023000  1.0 0.049920971
C  C178  1  0.26375000  0.17415000  0.38977000  1.0 0.049920971
C  C179  1  0.38977000  0.17233000  0.26375000  1.0 0.049920971
C  C180  1  0.86023000  0.07767000  0.07585000  1.0 0.049920971
C  C181  1  0.07585000  0.86023000  0.07767000  1.0 0.049920971
C  C182  1  0.26375000  0.38977000  0.17233000  1.0 0.049920971
C  C183  1  0.07767000  0.07585000  0.86023000  1.0 0.049920971
C  C184  1  0.17233000  0.26375000  0.38977000  1.0 0.049920971
C  C185  1  0.17233000  0.17415000  0.26375000  1.0 0.049920971
C  C186  1  0.17415000  0.38977000  0.26375000  1.0 0.049920971
C  C187  1  0.98625000  0.86023000  0.07585000  1.0 0.049920971
C  C188  1  0.07767000  0.98625000  0.07585000  1.0 0.049920971
C  C189  1  0.17415000  0.26375000  0.17233000  1.0 0.049920971
C  C190  1  0.98625000  0.07585000  0.07767000  1.0 0.049920971
C  C191  1  0.38977000  0.17415000  0.17233000  1.0 0.049920971
C  C192  1  0.17415000  0.17233000  0.38977000  1.0 0.049920971
C  C193  1  0.56022000  0.36954000  0.60174000  1.0 -0.1616535376
C  C194  1  0.68978000  0.88046000  0.78150000  1.0 -0.1616535376
C  C195  1  0.88046000  0.78150000  0.68978000  1.0 -0.1616535376
C  C196  1  0.78150000  0.68978000  0.88046000  1.0 -0.1616535376
C  C197  1  0.88046000  0.64826000  0.78150000  1.0 -0.1616535376
C  C198  1  0.36954000  0.46850000  0.60174000  1.0 -0.1616535376
C  C199  1  0.64826000  0.68978000  0.78150000  1.0 -0.1616535376
C  C200  1  0.46850000  0.56022000  0.60174000  1.0 -0.1616535376
C  C201  1  0.64826000  0.78150000  0.88046000  1.0 -0.1616535376
C  C202  1  0.46850000  0.60174000  0.36954000  1.0 -0.1616535376
C  C203  1  0.36954000  0.56022000  0.46850000  1.0 -0.1616535376
C  C204  1  0.88046000  0.68978000  0.64826000  1.0 -0.1616535376
C  C205  1  0.64826000  0.88046000  0.68978000  1.0 -0.1616535376
C  C206  1  0.46850000  0.36954000  0.56022000  1.0 -0.1616535376
C  C207  1  0.68978000  0.64826000  0.88046000  1.0 -0.1616535376
C  C208  1  0.56022000  0.46850000  0.36954000  1.0 -0.1616535376
C  C209  1  0.56022000  0.60174000  0.46850000  1.0 -0.1616535376
C  C210  1  0.60174000  0.36954000  0.46850000  1.0 -0.1616535376
C  C211  1  0.78150000  0.88046000  0.64826000  1.0 -0.1616535376
C  C212  1  0.68978000  0.78150000  0.64826000  1.0 -0.1616535376
C  C213  1  0.60174000  0.46850000  0.56022000  1.0 -0.1616535376
C  C214  1  0.78150000  0.64826000  0.68978000  1.0 -0.1616535376
C  C215  1  0.36954000  0.60174000  0.56022000  1.0 -0.1616535376
C  C216  1  0.60174000  0.56022000  0.36954000  1.0 -0.1616535376
C  C217  1  0.18978000  0.38046000  0.14826000  1.0 -0.1616535376
C  C218  1  0.06022000  0.86954000  0.96850000  1.0 -0.1616535376
C  C219  1  0.86954000  0.96850000  0.06022000  1.0 -0.1616535376
C  C220  1  0.96850000  0.06022000  0.86954000  1.0 -0.1616535376
C  C221  1  0.86954000  0.10174000  0.96850000  1.0 -0.1616535376
C  C222  1  0.38046000  0.28150000  0.14826000  1.0 -0.1616535376
C  C223  1  0.10174000  0.06022000  0.96850000  1.0 -0.1616535376
C  C224  1  0.28150000  0.18978000  0.14826000  1.0 -0.1616535376
C  C225  1  0.10174000  0.96850000  0.86954000  1.0 -0.1616535376
C  C226  1  0.28150000  0.14826000  0.38046000  1.0 -0.1616535376
C  C227  1  0.38046000  0.18978000  0.28150000  1.0 -0.1616535376
C  C228  1  0.86954000  0.06022000  0.10174000  1.0 -0.1616535376
C  C229  1  0.10174000  0.86954000  0.06022000  1.0 -0.1616535376
C  C230  1  0.28150000  0.38046000  0.18978000  1.0 -0.1616535376
C  C231  1  0.06022000  0.10174000  0.86954000  1.0 -0.1616535376
C  C232  1  0.18978000  0.28150000  0.38046000  1.0 -0.1616535376
C  C233  1  0.18978000  0.14826000  0.28150000  1.0 -0.1616535376
C  C234  1  0.14826000  0.38046000  0.28150000  1.0 -0.1616535376
C  C235  1  0.96850000  0.86954000  0.10174000  1.0 -0.1616535376
C  C236  1  0.06022000  0.96850000  0.10174000  1.0 -0.1616535376
C  C237  1  0.14826000  0.28150000  0.18978000  1.0 -0.1616535376
C  C238  1  0.96850000  0.10174000  0.06022000  1.0 -0.1616535376
C  C239  1  0.38046000  0.14826000  0.18978000  1.0 -0.1616535376
C  C240  1  0.14826000  0.18978000  0.38046000  1.0 -0.1616535376
C  C241  1  0.57501000  0.37305000  0.61455000  1.0 0.078206103
C  C242  1  0.67499000  0.87695000  0.81261000  1.0 0.078206103
C  C243  1  0.87695000  0.81261000  0.67499000  1.0 0.078206103
C  C244  1  0.81261000  0.67499000  0.87695000  1.0 0.078206103
C  C245  1  0.87695000  0.63545000  0.81261000  1.0 0.078206103
C  C246  1  0.37305000  0.43739000  0.61455000  1.0 0.078206103
C  C247  1  0.63545000  0.67499000  0.81261000  1.0 0.078206103
C  C248  1  0.43739000  0.57501000  0.61455000  1.0 0.078206103
C  C249  1  0.63545000  0.81261000  0.87695000  1.0 0.078206103
C  C250  1  0.43739000  0.61455000  0.37305000  1.0 0.078206103
C  C251  1  0.37305000  0.57501000  0.43739000  1.0 0.078206103
C  C252  1  0.87695000  0.67499000  0.63545000  1.0 0.078206103
C  C253  1  0.63545000  0.87695000  0.67499000  1.0 0.078206103
C  C254  1  0.43739000  0.37305000  0.57501000  1.0 0.078206103
C  C255  1  0.67499000  0.63545000  0.87695000  1.0 0.078206103
C  C256  1  0.57501000  0.43739000  0.37305000  1.0 0.078206103
C  C257  1  0.57501000  0.61455000  0.43739000  1.0 0.078206103
C  C258  1  0.61455000  0.37305000  0.43739000  1.0 0.078206103
C  C259  1  0.81261000  0.87695000  0.63545000  1.0 0.078206103
C  C260  1  0.67499000  0.81261000  0.63545000  1.0 0.078206103
C  C261  1  0.61455000  0.43739000  0.57501000  1.0 0.078206103
C  C262  1  0.81261000  0.63545000  0.67499000  1.0 0.078206103
C  C263  1  0.37305000  0.61455000  0.57501000  1.0 0.078206103
C  C264  1  0.61455000  0.57501000  0.37305000  1.0 0.078206103
C  C265  1  0.17499000  0.37695000  0.13545000  1.0 0.078206103
C  C266  1  0.07501000  0.87305000  0.93739000  1.0 0.078206103
C  C267  1  0.87305000  0.93739000  0.07501000  1.0 0.078206103
C  C268  1  0.93739000  0.07501000  0.87305000  1.0 0.078206103
C  C269  1  0.87305000  0.11455000  0.93739000  1.0 0.078206103
C  C270  1  0.37695000  0.31261000  0.13545000  1.0 0.078206103
C  C271  1  0.11455000  0.07501000  0.93739000  1.0 0.078206103
C  C272  1  0.31261000  0.17499000  0.13545000  1.0 0.078206103
C  C273  1  0.11455000  0.93739000  0.87305000  1.0 0.078206103
C  C274  1  0.31261000  0.13545000  0.37695000  1.0 0.078206103
C  C275  1  0.37695000  0.17499000  0.31261000  1.0 0.078206103
C  C276  1  0.87305000  0.07501000  0.11455000  1.0 0.078206103
C  C277  1  0.11455000  0.87305000  0.07501000  1.0 0.078206103
C  C278  1  0.31261000  0.37695000  0.17499000  1.0 0.078206103
C  C279  1  0.07501000  0.11455000  0.87305000  1.0 0.078206103
C  C280  1  0.17499000  0.31261000  0.37695000  1.0 0.078206103
C  C281  1  0.17499000  0.13545000  0.31261000  1.0 0.078206103
C  C282  1  0.13545000  0.37695000  0.31261000  1.0 0.078206103
C  C283  1  0.93739000  0.87305000  0.11455000  1.0 0.078206103
C  C284  1  0.07501000  0.93739000  0.11455000  1.0 0.078206103
C  C285  1  0.13545000  0.31261000  0.17499000  1.0 0.078206103
C  C286  1  0.93739000  0.11455000  0.07501000  1.0 0.078206103
C  C287  1  0.37695000  0.13545000  0.17499000  1.0 0.078206103
C  C288  1  0.13545000  0.17499000  0.37695000  1.0 0.078206103
C  C289  1  0.68374000  0.38538000  0.56492000  1.0 0.2003466211
C  C290  1  0.56626000  0.86462000  0.88404000  1.0 0.2003466211
C  C291  1  0.86462000  0.88404000  0.56626000  1.0 0.2003466211
C  C292  1  0.88404000  0.56626000  0.86462000  1.0 0.2003466211
C  C293  1  0.86462000  0.68508000  0.88404000  1.0 0.2003466211
C  C294  1  0.38538000  0.36596000  0.56492000  1.0 0.2003466211
C  C295  1  0.68508000  0.56626000  0.88404000  1.0 0.2003466211
C  C296  1  0.36596000  0.68374000  0.56492000  1.0 0.2003466211
C  C297  1  0.68508000  0.88404000  0.86462000  1.0 0.2003466211
C  C298  1  0.36596000  0.56492000  0.38538000  1.0 0.2003466211
C  C299  1  0.38538000  0.68374000  0.36596000  1.0 0.2003466211
C  C300  1  0.86462000  0.56626000  0.68508000  1.0 0.2003466211
C  C301  1  0.68508000  0.86462000  0.56626000  1.0 0.2003466211
C  C302  1  0.36596000  0.38538000  0.68374000  1.0 0.2003466211
C  C303  1  0.56626000  0.68508000  0.86462000  1.0 0.2003466211
C  C304  1  0.68374000  0.36596000  0.38538000  1.0 0.2003466211
C  C305  1  0.68374000  0.56492000  0.36596000  1.0 0.2003466211
C  C306  1  0.56492000  0.38538000  0.36596000  1.0 0.2003466211
C  C307  1  0.88404000  0.86462000  0.68508000  1.0 0.2003466211
C  C308  1  0.56626000  0.88404000  0.68508000  1.0 0.2003466211
C  C309  1  0.56492000  0.36596000  0.68374000  1.0 0.2003466211
C  C310  1  0.88404000  0.68508000  0.56626000  1.0 0.2003466211
C  C311  1  0.38538000  0.56492000  0.68374000  1.0 0.2003466211
C  C312  1  0.56492000  0.68374000  0.38538000  1.0 0.2003466211
C  C313  1  0.06626000  0.36462000  0.18508000  1.0 0.2003466211
C  C314  1  0.18374000  0.88538000  0.86596000  1.0 0.2003466211
C  C315  1  0.88538000  0.86596000  0.18374000  1.0 0.2003466211
C  C316  1  0.86596000  0.18374000  0.88538000  1.0 0.2003466211
C  C317  1  0.88538000  0.06492000  0.86596000  1.0 0.2003466211
C  C318  1  0.36462000  0.38404000  0.18508000  1.0 0.2003466211
C  C319  1  0.06492000  0.18374000  0.86596000  1.0 0.2003466211
C  C320  1  0.38404000  0.06626000  0.18508000  1.0 0.2003466211
C  C321  1  0.06492000  0.86596000  0.88538000  1.0 0.2003466211
C  C322  1  0.38404000  0.18508000  0.36462000  1.0 0.2003466211
C  C323  1  0.36462000  0.06626000  0.38404000  1.0 0.2003466211
C  C324  1  0.88538000  0.18374000  0.06492000  1.0 0.2003466211
C  C325  1  0.06492000  0.88538000  0.18374000  1.0 0.2003466211
C  C326  1  0.38404000  0.36462000  0.06626000  1.0 0.2003466211
C  C327  1  0.18374000  0.06492000  0.88538000  1.0 0.2003466211
C  C328  1  0.06626000  0.38404000  0.36462000  1.0 0.2003466211
C  C329  1  0.06626000  0.18508000  0.38404000  1.0 0.2003466211
C  C330  1  0.18508000  0.36462000  0.38404000  1.0 0.2003466211
C  C331  1  0.86596000  0.88538000  0.06492000  1.0 0.2003466211
C  C332  1  0.18374000  0.86596000  0.06492000  1.0 0.2003466211
C  C333  1  0.18508000  0.38404000  0.06626000  1.0 0.2003466211
C  C334  1  0.86596000  0.06492000  0.18374000  1.0 0.2003466211
C  C335  1  0.36462000  0.18508000  0.06626000  1.0 0.2003466211
C  C336  1  0.18508000  0.06626000  0.36462000  1.0 0.2003466211
C  C337  1  0.67094000  0.30902000  0.62600000  1.0 0.0714952481
C  C338  1  0.57906000  0.94098000  0.85596000  1.0 0.0714952481
C  C339  1  0.94098000  0.85596000  0.57906000  1.0 0.0714952481
C  C340  1  0.85596000  0.57906000  0.94098000  1.0 0.0714952481
C  C341  1  0.94098000  0.62400000  0.85596000  1.0 0.0714952481
C  C342  1  0.30902000  0.39404000  0.62600000  1.0 0.0714952481
C  C343  1  0.62400000  0.57906000  0.85596000  1.0 0.0714952481
C  C344  1  0.39404000  0.67094000  0.62600000  1.0 0.0714952481
C  C345  1  0.62400000  0.85596000  0.94098000  1.0 0.0714952481
C  C346  1  0.39404000  0.62600000  0.30902000  1.0 0.0714952481
C  C347  1  0.30902000  0.67094000  0.39404000  1.0 0.0714952481
C  C348  1  0.94098000  0.57906000  0.62400000  1.0 0.0714952481
C  C349  1  0.62400000  0.94098000  0.57906000  1.0 0.0714952481
C  C350  1  0.39404000  0.30902000  0.67094000  1.0 0.0714952481
C  C351  1  0.57906000  0.62400000  0.94098000  1.0 0.0714952481
C  C352  1  0.67094000  0.39404000  0.30902000  1.0 0.0714952481
C  C353  1  0.67094000  0.62600000  0.39404000  1.0 0.0714952481
C  C354  1  0.62600000  0.30902000  0.39404000  1.0 0.0714952481
C  C355  1  0.85596000  0.94098000  0.62400000  1.0 0.0714952481
C  C356  1  0.57906000  0.85596000  0.62400000  1.0 0.0714952481
C  C357  1  0.62600000  0.39404000  0.67094000  1.0 0.0714952481
C  C358  1  0.85596000  0.62400000  0.57906000  1.0 0.0714952481
C  C359  1  0.30902000  0.62600000  0.67094000  1.0 0.0714952481
C  C360  1  0.62600000  0.67094000  0.30902000  1.0 0.0714952481
C  C361  1  0.07906000  0.44098000  0.12400000  1.0 0.0714952481
C  C362  1  0.17094000  0.80902000  0.89404000  1.0 0.0714952481
C  C363  1  0.80902000  0.89404000  0.17094000  1.0 0.0714952481
C  C364  1  0.89404000  0.17094000  0.80902000  1.0 0.0714952481
C  C365  1  0.80902000  0.12600000  0.89404000  1.0 0.0714952481
C  C366  1  0.44098000  0.35596000  0.12400000  1.0 0.0714952481
C  C367  1  0.12600000  0.17094000  0.89404000  1.0 0.0714952481
C  C368  1  0.35596000  0.07906000  0.12400000  1.0 0.0714952481
C  C369  1  0.12600000  0.89404000  0.80902000  1.0 0.0714952481
C  C370  1  0.35596000  0.12400000  0.44098000  1.0 0.0714952481
C  C371  1  0.44098000  0.07906000  0.35596000  1.0 0.0714952481
C  C372  1  0.80902000  0.17094000  0.12600000  1.0 0.0714952481
C  C373  1  0.12600000  0.80902000  0.17094000  1.0 0.0714952481
C  C374  1  0.35596000  0.44098000  0.07906000  1.0 0.0714952481
C  C375  1  0.17094000  0.12600000  0.80902000  1.0 0.0714952481
C  C376  1  0.07906000  0.35596000  0.44098000  1.0 0.0714952481
C  C377  1  0.07906000  0.12400000  0.35596000  1.0 0.0714952481
C  C378  1  0.12400000  0.44098000  0.35596000  1.0 0.0714952481
C  C379  1  0.89404000  0.80902000  0.12600000  1.0 0.0714952481
C  C380  1  0.17094000  0.89404000  0.12600000  1.0 0.0714952481
C  C381  1  0.12400000  0.35596000  0.07906000  1.0 0.0714952481
C  C382  1  0.89404000  0.12600000  0.17094000  1.0 0.0714952481
C  C383  1  0.44098000  0.12400000  0.07906000  1.0 0.0714952481
C  C384  1  0.12400000  0.07906000  0.44098000  1.0 0.0714952481
C  C385  1  0.68676000  0.27800000  0.63700000  1.0 -0.1683063234
C  C386  1  0.56324000  0.97200000  0.85176000  1.0 -0.1683063234
C  C387  1  0.97200000  0.85176000  0.56324000  1.0 -0.1683063234
C  C388  1  0.85176000  0.56324000  0.97200000  1.0 -0.1683063234
C  C389  1  0.97200000  0.61300000  0.85176000  1.0 -0.1683063234
C  C390  1  0.27800000  0.39824000  0.63700000  1.0 -0.1683063234
C  C391  1  0.61300000  0.56324000  0.85176000  1.0 -0.1683063234
C  C392  1  0.39824000  0.68676000  0.63700000  1.0 -0.1683063234
C  C393  1  0.61300000  0.85176000  0.97200000  1.0 -0.1683063234
C  C394  1  0.39824000  0.63700000  0.27800000  1.0 -0.1683063234
C  C395  1  0.27800000  0.68676000  0.39824000  1.0 -0.1683063234
C  C396  1  0.97200000  0.56324000  0.61300000  1.0 -0.1683063234
C  C397  1  0.61300000  0.97200000  0.56324000  1.0 -0.1683063234
C  C398  1  0.39824000  0.27800000  0.68676000  1.0 -0.1683063234
C  C399  1  0.56324000  0.61300000  0.97200000  1.0 -0.1683063234
C  C400  1  0.68676000  0.39824000  0.27800000  1.0 -0.1683063234
C  C401  1  0.68676000  0.63700000  0.39824000  1.0 -0.1683063234
C  C402  1  0.63700000  0.27800000  0.39824000  1.0 -0.1683063234
C  C403  1  0.85176000  0.97200000  0.61300000  1.0 -0.1683063234
C  C404  1  0.56324000  0.85176000  0.61300000  1.0 -0.1683063234
C  C405  1  0.63700000  0.39824000  0.68676000  1.0 -0.1683063234
C  C406  1  0.85176000  0.61300000  0.56324000  1.0 -0.1683063234
C  C407  1  0.27800000  0.63700000  0.68676000  1.0 -0.1683063234
C  C408  1  0.63700000  0.68676000  0.27800000  1.0 -0.1683063234
C  C409  1  0.06324000  0.47200000  0.11300000  1.0 -0.1683063234
C  C410  1  0.18676000  0.77800000  0.89824000  1.0 -0.1683063234
C  C411  1  0.77800000  0.89824000  0.18676000  1.0 -0.1683063234
C  C412  1  0.89824000  0.18676000  0.77800000  1.0 -0.1683063234
C  C413  1  0.77800000  0.13700000  0.89824000  1.0 -0.1683063234
C  C414  1  0.47200000  0.35176000  0.11300000  1.0 -0.1683063234
C  C415  1  0.13700000  0.18676000  0.89824000  1.0 -0.1683063234
C  C416  1  0.35176000  0.06324000  0.11300000  1.0 -0.1683063234
C  C417  1  0.13700000  0.89824000  0.77800000  1.0 -0.1683063234
C  C418  1  0.35176000  0.11300000  0.47200000  1.0 -0.1683063234
C  C419  1  0.47200000  0.06324000  0.35176000  1.0 -0.1683063234
C  C420  1  0.77800000  0.18676000  0.13700000  1.0 -0.1683063234
C  C421  1  0.13700000  0.77800000  0.18676000  1.0 -0.1683063234
C  C422  1  0.35176000  0.47200000  0.06324000  1.0 -0.1683063234
C  C423  1  0.18676000  0.13700000  0.77800000  1.0 -0.1683063234
C  C424  1  0.06324000  0.35176000  0.47200000  1.0 -0.1683063234
C  C425  1  0.06324000  0.11300000  0.35176000  1.0 -0.1683063234
C  C426  1  0.11300000  0.47200000  0.35176000  1.0 -0.1683063234
C  C427  1  0.89824000  0.77800000  0.13700000  1.0 -0.1683063234
C  C428  1  0.18676000  0.89824000  0.13700000  1.0 -0.1683063234
C  C429  1  0.11300000  0.35176000  0.06324000  1.0 -0.1683063234
C  C430  1  0.89824000  0.13700000  0.18676000  1.0 -0.1683063234
C  C431  1  0.47200000  0.11300000  0.06324000  1.0 -0.1683063234
C  C432  1  0.11300000  0.06324000  0.47200000  1.0 -0.1683063234
C  C433  1  0.67799000  0.26279000  0.66833000  1.0 0.049920971
C  C434  1  0.57201000  0.98721000  0.85911000  1.0 0.049920971
C  C435  1  0.98721000  0.85911000  0.57201000  1.0 0.049920971
C  C436  1  0.85911000  0.57201000  0.98721000  1.0 0.049920971
C  C437  1  0.98721000  0.58167000  0.85911000  1.0 0.049920971
C  C438  1  0.26279000  0.39089000  0.66833000  1.0 0.049920971
C  C439  1  0.58167000  0.57201000  0.85911000  1.0 0.049920971
C  C440  1  0.39089000  0.67799000  0.66833000  1.0 0.049920971
C  C441  1  0.58167000  0.85911000  0.98721000  1.0 0.049920971
C  C442  1  0.39089000  0.66833000  0.26279000  1.0 0.049920971
C  C443  1  0.26279000  0.67799000  0.39089000  1.0 0.049920971
C  C444  1  0.98721000  0.57201000  0.58167000  1.0 0.049920971
C  C445  1  0.58167000  0.98721000  0.57201000  1.0 0.049920971
C  C446  1  0.39089000  0.26279000  0.67799000  1.0 0.049920971
C  C447  1  0.57201000  0.58167000  0.98721000  1.0 0.049920971
C  C448  1  0.67799000  0.39089000  0.26279000  1.0 0.049920971
C  C449  1  0.67799000  0.66833000  0.39089000  1.0 0.049920971
C  C450  1  0.66833000  0.26279000  0.39089000  1.0 0.049920971
C  C451  1  0.85911000  0.98721000  0.58167000  1.0 0.049920971
C  C452  1  0.57201000  0.85911000  0.58167000  1.0 0.049920971
C  C453  1  0.66833000  0.39089000  0.67799000  1.0 0.049920971
C  C454  1  0.85911000  0.58167000  0.57201000  1.0 0.049920971
C  C455  1  0.26279000  0.66833000  0.67799000  1.0 0.049920971
C  C456  1  0.66833000  0.67799000  0.26279000  1.0 0.049920971
C  C457  1  0.07201000  0.48721000  0.08167000  1.0 0.049920971
C  C458  1  0.17799000  0.76279000  0.89089000  1.0 0.049920971
C  C459  1  0.76279000  0.89089000  0.17799000  1.0 0.049920971
C  C460  1  0.89089000  0.17799000  0.76279000  1.0 0.049920971
C  C461  1  0.76279000  0.16833000  0.89089000  1.0 0.049920971
C  C462  1  0.48721000  0.35911000  0.08167000  1.0 0.049920971
C  C463  1  0.16833000  0.17799000  0.89089000  1.0 0.049920971
C  C464  1  0.35911000  0.07201000  0.08167000  1.0 0.049920971
C  C465  1  0.16833000  0.89089000  0.76279000  1.0 0.049920971
C  C466  1  0.35911000  0.08167000  0.48721000  1.0 0.049920971
C  C467  1  0.48721000  0.07201000  0.35911000  1.0 0.049920971
C  C468  1  0.76279000  0.17799000  0.16833000  1.0 0.049920971
C  C469  1  0.16833000  0.76279000  0.17799000  1.0 0.049920971
C  C470  1  0.35911000  0.48721000  0.07201000  1.0 0.049920971
C  C471  1  0.17799000  0.16833000  0.76279000  1.0 0.049920971
C  C472  1  0.07201000  0.35911000  0.48721000  1.0 0.049920971
C  C473  1  0.07201000  0.08167000  0.35911000  1.0 0.049920971
C  C474  1  0.08167000  0.48721000  0.35911000  1.0 0.049920971
C  C475  1  0.89089000  0.76279000  0.16833000  1.0 0.049920971
C  C476  1  0.17799000  0.89089000  0.16833000  1.0 0.049920971
C  C477  1  0.08167000  0.35911000  0.07201000  1.0 0.049920971
C  C478  1  0.89089000  0.16833000  0.17799000  1.0 0.049920971
C  C479  1  0.48721000  0.08167000  0.07201000  1.0 0.049920971
C  C480  1  0.08167000  0.07201000  0.48721000  1.0 0.049920971
C  C481  1  0.65293000  0.27923000  0.68793000  1.0 -0.1616535376
C  C482  1  0.59707000  0.97077000  0.87009000  1.0 -0.1616535376
C  C483  1  0.97077000  0.87009000  0.59707000  1.0 -0.1616535376
C  C484  1  0.87009000  0.59707000  0.97077000  1.0 -0.1616535376
C  C485  1  0.97077000  0.56207000  0.87009000  1.0 -0.1616535376
C  C486  1  0.27923000  0.37991000  0.68793000  1.0 -0.1616535376
C  C487  1  0.56207000  0.59707000  0.87009000  1.0 -0.1616535376
C  C488  1  0.37991000  0.65293000  0.68793000  1.0 -0.1616535376
C  C489  1  0.56207000  0.87009000  0.97077000  1.0 -0.1616535376
C  C490  1  0.37991000  0.68793000  0.27923000  1.0 -0.1616535376
C  C491  1  0.27923000  0.65293000  0.37991000  1.0 -0.1616535376
C  C492  1  0.97077000  0.59707000  0.56207000  1.0 -0.1616535376
C  C493  1  0.56207000  0.97077000  0.59707000  1.0 -0.1616535376
C  C494  1  0.37991000  0.27923000  0.65293000  1.0 -0.1616535376
C  C495  1  0.59707000  0.56207000  0.97077000  1.0 -0.1616535376
C  C496  1  0.65293000  0.37991000  0.27923000  1.0 -0.1616535376
C  C497  1  0.65293000  0.68793000  0.37991000  1.0 -0.1616535376
C  C498  1  0.68793000  0.27923000  0.37991000  1.0 -0.1616535376
C  C499  1  0.87009000  0.97077000  0.56207000  1.0 -0.1616535376
C  C500  1  0.59707000  0.87009000  0.56207000  1.0 -0.1616535376
C  C501  1  0.68793000  0.37991000  0.65293000  1.0 -0.1616535376
C  C502  1  0.87009000  0.56207000  0.59707000  1.0 -0.1616535376
C  C503  1  0.27923000  0.68793000  0.65293000  1.0 -0.1616535376
C  C504  1  0.68793000  0.65293000  0.27923000  1.0 -0.1616535376
C  C505  1  0.09707000  0.47077000  0.06207000  1.0 -0.1616535376
C  C506  1  0.15293000  0.77923000  0.87991000  1.0 -0.1616535376
C  C507  1  0.77923000  0.87991000  0.15293000  1.0 -0.1616535376
C  C508  1  0.87991000  0.15293000  0.77923000  1.0 -0.1616535376
C  C509  1  0.77923000  0.18793000  0.87991000  1.0 -0.1616535376
C  C510  1  0.47077000  0.37009000  0.06207000  1.0 -0.1616535376
C  C511  1  0.18793000  0.15293000  0.87991000  1.0 -0.1616535376
C  C512  1  0.37009000  0.09707000  0.06207000  1.0 -0.1616535376
C  C513  1  0.18793000  0.87991000  0.77923000  1.0 -0.1616535376
C  C514  1  0.37009000  0.06207000  0.47077000  1.0 -0.1616535376
C  C515  1  0.47077000  0.09707000  0.37009000  1.0 -0.1616535376
C  C516  1  0.77923000  0.15293000  0.18793000  1.0 -0.1616535376
C  C517  1  0.18793000  0.77923000  0.15293000  1.0 -0.1616535376
C  C518  1  0.37009000  0.47077000  0.09707000  1.0 -0.1616535376
C  C519  1  0.15293000  0.18793000  0.77923000  1.0 -0.1616535376
C  C520  1  0.09707000  0.37009000  0.47077000  1.0 -0.1616535376
C  C521  1  0.09707000  0.06207000  0.37009000  1.0 -0.1616535376
C  C522  1  0.06207000  0.47077000  0.37009000  1.0 -0.1616535376
C  C523  1  0.87991000  0.77923000  0.18793000  1.0 -0.1616535376
C  C524  1  0.15293000  0.87991000  0.18793000  1.0 -0.1616535376
C  C525  1  0.06207000  0.37009000  0.09707000  1.0 -0.1616535376
C  C526  1  0.87991000  0.18793000  0.15293000  1.0 -0.1616535376
C  C527  1  0.47077000  0.06207000  0.09707000  1.0 -0.1616535376
C  C528  1  0.06207000  0.09707000  0.47077000  1.0 -0.1616535376
C  C529  1  0.63938000  0.31002000  0.67498000  1.0 0.0714952481
C  C530  1  0.61062000  0.93998000  0.87438000  1.0 0.0714952481
C  C531  1  0.93998000  0.87438000  0.61062000  1.0 0.0714952481
C  C532  1  0.87438000  0.61062000  0.93998000  1.0 0.0714952481
C  C533  1  0.93998000  0.57502000  0.87438000  1.0 0.0714952481
C  C534  1  0.31002000  0.37562000  0.67498000  1.0 0.0714952481
C  C535  1  0.57502000  0.61062000  0.87438000  1.0 0.0714952481
C  C536  1  0.37562000  0.63938000  0.67498000  1.0 0.0714952481
C  C537  1  0.57502000  0.87438000  0.93998000  1.0 0.0714952481
C  C538  1  0.37562000  0.67498000  0.31002000  1.0 0.0714952481
C  C539  1  0.31002000  0.63938000  0.37562000  1.0 0.0714952481
C  C540  1  0.93998000  0.61062000  0.57502000  1.0 0.0714952481
C  C541  1  0.57502000  0.93998000  0.61062000  1.0 0.0714952481
C  C542  1  0.37562000  0.31002000  0.63938000  1.0 0.0714952481
C  C543  1  0.61062000  0.57502000  0.93998000  1.0 0.0714952481
C  C544  1  0.63938000  0.37562000  0.31002000  1.0 0.0714952481
C  C545  1  0.63938000  0.67498000  0.37562000  1.0 0.0714952481
C  C546  1  0.67498000  0.31002000  0.37562000  1.0 0.0714952481
C  C547  1  0.87438000  0.93998000  0.57502000  1.0 0.0714952481
C  C548  1  0.61062000  0.87438000  0.57502000  1.0 0.0714952481
C  C549  1  0.67498000  0.37562000  0.63938000  1.0 0.0714952481
C  C550  1  0.87438000  0.57502000  0.61062000  1.0 0.0714952481
C  C551  1  0.31002000  0.67498000  0.63938000  1.0 0.0714952481
C  C552  1  0.67498000  0.63938000  0.31002000  1.0 0.0714952481
C  C553  1  0.11062000  0.43998000  0.07502000  1.0 0.0714952481
C  C554  1  0.13938000  0.81002000  0.87562000  1.0 0.0714952481
C  C555  1  0.81002000  0.87562000  0.13938000  1.0 0.0714952481
C  C556  1  0.87562000  0.13938000  0.81002000  1.0 0.0714952481
C  C557  1  0.81002000  0.17498000  0.87562000  1.0 0.0714952481
C  C558  1  0.43998000  0.37438000  0.07502000  1.0 0.0714952481
C  C559  1  0.17498000  0.13938000  0.87562000  1.0 0.0714952481
C  C560  1  0.37438000  0.11062000  0.07502000  1.0 0.0714952481
C  C561  1  0.17498000  0.87562000  0.81002000  1.0 0.0714952481
C  C562  1  0.37438000  0.07502000  0.43998000  1.0 0.0714952481
C  C563  1  0.43998000  0.11062000  0.37438000  1.0 0.0714952481
C  C564  1  0.81002000  0.13938000  0.17498000  1.0 0.0714952481
C  C565  1  0.17498000  0.81002000  0.13938000  1.0 0.0714952481
C  C566  1  0.37438000  0.43998000  0.11062000  1.0 0.0714952481
C  C567  1  0.13938000  0.17498000  0.81002000  1.0 0.0714952481
C  C568  1  0.11062000  0.37438000  0.43998000  1.0 0.0714952481
C  C569  1  0.11062000  0.07502000  0.37438000  1.0 0.0714952481
C  C570  1  0.07502000  0.43998000  0.37438000  1.0 0.0714952481
C  C571  1  0.87562000  0.81002000  0.17498000  1.0 0.0714952481
C  C572  1  0.13938000  0.87562000  0.17498000  1.0 0.0714952481
C  C573  1  0.07502000  0.37438000  0.11062000  1.0 0.0714952481
C  C574  1  0.87562000  0.17498000  0.13938000  1.0 0.0714952481
C  C575  1  0.43998000  0.07502000  0.11062000  1.0 0.0714952481
C  C576  1  0.07502000  0.11062000  0.43998000  1.0 0.0714952481
C  C577  1  0.69522000  0.18532000  0.72186000  1.0 0.3623411046
C  C578  1  0.55478000  0.06468000  0.85240000  1.0 0.365887374
C  C579  1  0.06468000  0.85240000  0.55478000  1.0 0.3623411046
C  C580  1  0.85240000  0.55478000  0.06468000  1.0 0.3623411046
C  C581  1  0.06468000  0.52814000  0.85240000  1.0 0.3623411046
C  C582  1  0.18532000  0.39760000  0.72186000  1.0 0.3623411046
C  C583  1  0.52814000  0.55478000  0.85240000  1.0 0.3623411046
C  C584  1  0.39760000  0.69522000  0.72186000  1.0 0.3623411046
C  C585  1  0.52814000  0.85240000  0.06468000  1.0 0.365887374
C  C586  1  0.39760000  0.72186000  0.18532000  1.0 0.365887374
C  C587  1  0.18532000  0.69522000  0.39760000  1.0 0.3623411046
C  C588  1  0.06468000  0.55478000  0.52814000  1.0 0.3623411046
C  C589  1  0.52814000  0.06468000  0.55478000  1.0 0.3623411046
C  C590  1  0.39760000  0.18532000  0.69522000  1.0 0.3623411046
C  C591  1  0.55478000  0.52814000  0.06468000  1.0 0.3623411046
C  C592  1  0.69522000  0.39760000  0.18532000  1.0 0.3623411046
C  C593  1  0.69522000  0.72186000  0.39760000  1.0 0.3623411046
C  C594  1  0.72186000  0.18532000  0.39760000  1.0 0.3623411046
C  C595  1  0.85240000  0.06468000  0.52814000  1.0 0.3623411046
C  C596  1  0.55478000  0.85240000  0.52814000  1.0 0.3623411046
C  C597  1  0.72186000  0.39760000  0.69522000  1.0 0.3623411046
C  C598  1  0.85240000  0.52814000  0.55478000  1.0 0.365887374
C  C599  1  0.18532000  0.72186000  0.69522000  1.0 0.3623411046
C  C600  1  0.72186000  0.69522000  0.18532000  1.0 0.3623411046
C  C601  1  0.05478000  0.56468000  0.02814000  1.0 0.365887374
C  C602  1  0.19522000  0.68532000  0.89760000  1.0 0.3623411046
C  C603  1  0.68532000  0.89760000  0.19522000  1.0 0.3623411046
C  C604  1  0.89760000  0.19522000  0.68532000  1.0 0.3623411046
C  C605  1  0.68532000  0.22186000  0.89760000  1.0 0.365887374
C  C606  1  0.56468000  0.35240000  0.02814000  1.0 0.3623411046
C  C607  1  0.22186000  0.19522000  0.89760000  1.0 0.3623411046
C  C608  1  0.35240000  0.05478000  0.02814000  1.0 0.3623411046
C  C609  1  0.22186000  0.89760000  0.68532000  1.0 0.3623411046
C  C610  1  0.35240000  0.02814000  0.56468000  1.0 0.3623411046
C  C611  1  0.56468000  0.05478000  0.35240000  1.0 0.3623411046
C  C612  1  0.68532000  0.19522000  0.22186000  1.0 0.3623411046
C  C613  1  0.22186000  0.68532000  0.19522000  1.0 0.3623411046
C  C614  1  0.35240000  0.56468000  0.05478000  1.0 0.365887374
C  C615  1  0.19522000  0.22186000  0.68532000  1.0 0.3623411046
C  C616  1  0.05478000  0.35240000  0.56468000  1.0 0.365887374
C  C617  1  0.05478000  0.02814000  0.35240000  1.0 0.3623411046
C  C618  1  0.02814000  0.56468000  0.35240000  1.0 0.3623411046
C  C619  1  0.89760000  0.68532000  0.22186000  1.0 0.3623411046
C  C620  1  0.19522000  0.89760000  0.22186000  1.0 0.365887374
C  C621  1  0.02814000  0.35240000  0.05478000  1.0 0.365887374
C  C622  1  0.89760000  0.22186000  0.19522000  1.0 0.3623411046
C  C623  1  0.56468000  0.02814000  0.05478000  1.0 0.365887374
C  C624  1  0.02814000  0.05478000  0.56468000  1.0 0.365887374
C  C625  1  0.69466000  0.23006000  0.68214000  1.0 0.3623411046
C  C626  1  0.55534000  0.01994000  0.85686000  1.0 0.3623411046
C  C627  1  0.01994000  0.85686000  0.55534000  1.0 0.3623411046
C  C628  1  0.85686000  0.55534000  0.01994000  1.0 0.3623411046
C  C629  1  0.01994000  0.56786000  0.85686000  1.0 0.3623411046
C  C630  1  0.23006000  0.39314000  0.68214000  1.0 0.3623411046
C  C631  1  0.56786000  0.55534000  0.85686000  1.0 0.3623411046
C  C632  1  0.39314000  0.69466000  0.68214000  1.0 0.3623411046
C  C633  1  0.56786000  0.85686000  0.01994000  1.0 0.3623411046
C  C634  1  0.39314000  0.68214000  0.23006000  1.0 0.3623411046
C  C635  1  0.23006000  0.69466000  0.39314000  1.0 0.3623411046
C  C636  1  0.01994000  0.55534000  0.56786000  1.0 0.3623411046
C  C637  1  0.56786000  0.01994000  0.55534000  1.0 0.3623411046
C  C638  1  0.39314000  0.23006000  0.69466000  1.0 0.3623411046
C  C639  1  0.55534000  0.56786000  0.01994000  1.0 0.3623411046
C  C640  1  0.69466000  0.39314000  0.23006000  1.0 0.3623411046
C  C641  1  0.69466000  0.68214000  0.39314000  1.0 0.3623411046
C  C642  1  0.68214000  0.23006000  0.39314000  1.0 0.3623411046
C  C643  1  0.85686000  0.01994000  0.56786000  1.0 0.3623411046
C  C644  1  0.55534000  0.85686000  0.56786000  1.0 0.3623411046
C  C645  1  0.68214000  0.39314000  0.69466000  1.0 0.3623411046
C  C646  1  0.85686000  0.56786000  0.55534000  1.0 0.3623411046
C  C647  1  0.23006000  0.68214000  0.69466000  1.0 0.3623411046
C  C648  1  0.68214000  0.69466000  0.23006000  1.0 0.3623411046
C  C649  1  0.05534000  0.51994000  0.06786000  1.0 0.3623411046
C  C650  1  0.19466000  0.73006000  0.89314000  1.0 0.3623411046
C  C651  1  0.73006000  0.89314000  0.19466000  1.0 0.3623411046
C  C652  1  0.89314000  0.19466000  0.73006000  1.0 0.3623411046
C  C653  1  0.73006000  0.18214000  0.89314000  1.0 0.3623411046
C  C654  1  0.51994000  0.35686000  0.06786000  1.0 0.3623411046
C  C655  1  0.18214000  0.19466000  0.89314000  1.0 0.3623411046
C  C656  1  0.35686000  0.05534000  0.06786000  1.0 0.3623411046
C  C657  1  0.18214000  0.89314000  0.73006000  1.0 0.3623411046
C  C658  1  0.35686000  0.06786000  0.51994000  1.0 0.3623411046
C  C659  1  0.51994000  0.05534000  0.35686000  1.0 0.3623411046
C  C660  1  0.73006000  0.19466000  0.18214000  1.0 0.3623411046
C  C661  1  0.18214000  0.73006000  0.19466000  1.0 0.3623411046
C  C662  1  0.35686000  0.51994000  0.05534000  1.0 0.3623411046
C  C663  1  0.19466000  0.18214000  0.73006000  1.0 0.3623411046
C  C664  1  0.05534000  0.35686000  0.51994000  1.0 0.3623411046
C  C665  1  0.05534000  0.06786000  0.35686000  1.0 0.3623411046
C  C666  1  0.06786000  0.51994000  0.35686000  1.0 0.3623411046
C  C667  1  0.89314000  0.73006000  0.18214000  1.0 0.3623411046
C  C668  1  0.19466000  0.89314000  0.18214000  1.0 0.3623411046
C  C669  1  0.06786000  0.35686000  0.05534000  1.0 0.3623411046
C  C670  1  0.89314000  0.18214000  0.19466000  1.0 0.3623411046
C  C671  1  0.51994000  0.06786000  0.05534000  1.0 0.3623411046
C  C672  1  0.06786000  0.05534000  0.51994000  1.0 0.3623411046
C  C673  1  0.73874000  0.18934000  0.68136000  1.0 0.365887374
C  C674  1  0.51126000  0.06066000  0.85944000  1.0 0.365887374
C  C675  1  0.06066000  0.85944000  0.51126000  1.0 0.365887374
C  C676  1  0.85944000  0.51126000  0.06066000  1.0 0.365887374
C  C677  1  0.06066000  0.56864000  0.85944000  1.0 0.365887374
C  C678  1  0.18934000  0.39056000  0.68136000  1.0 0.365887374
C  C679  1  0.56864000  0.51126000  0.85944000  1.0 0.365887374
C  C680  1  0.39056000  0.73874000  0.68136000  1.0 0.365887374
C  C681  1  0.56864000  0.85944000  0.06066000  1.0 0.365887374
C  C682  1  0.39056000  0.68136000  0.18934000  1.0 0.365887374
C  C683  1  0.18934000  0.73874000  0.39056000  1.0 0.365887374
C  C684  1  0.06066000  0.51126000  0.56864000  1.0 0.365887374
C  C685  1  0.56864000  0.06066000  0.51126000  1.0 0.365887374
C  C686  1  0.39056000  0.18934000  0.73874000  1.0 0.365887374
C  C687  1  0.51126000  0.56864000  0.06066000  1.0 0.365887374
C  C688  1  0.73874000  0.39056000  0.18934000  1.0 0.365887374
C  C689  1  0.73874000  0.68136000  0.39056000  1.0 0.365887374
C  C690  1  0.68136000  0.18934000  0.39056000  1.0 0.365887374
C  C691  1  0.85944000  0.06066000  0.56864000  1.0 0.365887374
C  C692  1  0.51126000  0.85944000  0.56864000  1.0 0.365887374
C  C693  1  0.68136000  0.39056000  0.73874000  1.0 0.365887374
C  C694  1  0.85944000  0.56864000  0.51126000  1.0 0.365887374
C  C695  1  0.18934000  0.68136000  0.73874000  1.0 0.365887374
C  C696  1  0.68136000  0.73874000  0.18934000  1.0 0.365887374
C  C697  1  0.01126000  0.56066000  0.06864000  1.0 0.365887374
C  C698  1  0.23874000  0.68934000  0.89056000  1.0 0.365887374
C  C699  1  0.68934000  0.89056000  0.23874000  1.0 0.365887374
C  C700  1  0.89056000  0.23874000  0.68934000  1.0 0.365887374
C  C701  1  0.68934000  0.18136000  0.89056000  1.0 0.365887374
C  C702  1  0.56066000  0.35944000  0.06864000  1.0 0.365887374
C  C703  1  0.18136000  0.23874000  0.89056000  1.0 0.3623411046
C  C704  1  0.35944000  0.01126000  0.06864000  1.0 0.365887374
C  C705  1  0.18136000  0.89056000  0.68934000  1.0 0.365887374
C  C706  1  0.35944000  0.06864000  0.56066000  1.0 0.365887374
C  C707  1  0.56066000  0.01126000  0.35944000  1.0 0.365887374
C  C708  1  0.68934000  0.23874000  0.18136000  1.0 0.365887374
C  C709  1  0.18136000  0.68934000  0.23874000  1.0 0.365887374
C  C710  1  0.35944000  0.56066000  0.01126000  1.0 0.365887374
C  C711  1  0.23874000  0.18136000  0.68934000  1.0 0.365887374
C  C712  1  0.01126000  0.35944000  0.56066000  1.0 0.365887374
C  C713  1  0.01126000  0.06864000  0.35944000  1.0 0.365887374
C  C714  1  0.06864000  0.56066000  0.35944000  1.0 0.365887374
C  C715  1  0.89056000  0.68934000  0.18136000  1.0 0.365887374
C  C716  1  0.23874000  0.89056000  0.18136000  1.0 0.365887374
C  C717  1  0.06864000  0.35944000  0.01126000  1.0 0.365887374
C  C718  1  0.89056000  0.18136000  0.23874000  1.0 0.365887374
C  C719  1  0.56066000  0.06864000  0.01126000  1.0 0.365887374
C  C720  1  0.06864000  0.01126000  0.56066000  1.0 0.365887374
C  C721  1  0.63318000  0.16534000  0.79652000  1.0 0.078206103
C  C722  1  0.61682000  0.08466000  0.84504000  1.0 0.078206103
C  C723  1  0.08466000  0.84504000  0.61682000  1.0 0.078206103
C  C724  1  0.84504000  0.61682000  0.08466000  1.0 0.078206103
C  C725  1  0.08466000  0.45348000  0.84504000  1.0 0.078206103
C  C726  1  0.16534000  0.40496000  0.79652000  1.0 0.078206103
C  C727  1  0.45348000  0.61682000  0.84504000  1.0 0.078206103
C  C728  1  0.40496000  0.63318000  0.79652000  1.0 0.078206103
C  C729  1  0.45348000  0.84504000  0.08466000  1.0 0.078206103
C  C730  1  0.40496000  0.79652000  0.16534000  1.0 0.078206103
C  C731  1  0.16534000  0.63318000  0.40496000  1.0 0.078206103
C  C732  1  0.08466000  0.61682000  0.45348000  1.0 0.078206103
C  C733  1  0.45348000  0.08466000  0.61682000  1.0 0.078206103
C  C734  1  0.40496000  0.16534000  0.63318000  1.0 0.078206103
C  C735  1  0.61682000  0.45348000  0.08466000  1.0 0.078206103
C  C736  1  0.63318000  0.40496000  0.16534000  1.0 0.078206103
C  C737  1  0.63318000  0.79652000  0.40496000  1.0 0.078206103
C  C738  1  0.79652000  0.16534000  0.40496000  1.0 0.078206103
C  C739  1  0.84504000  0.08466000  0.45348000  1.0 0.078206103
C  C740  1  0.61682000  0.84504000  0.45348000  1.0 0.078206103
C  C741  1  0.79652000  0.40496000  0.63318000  1.0 0.078206103
C  C742  1  0.84504000  0.45348000  0.61682000  1.0 0.078206103
C  C743  1  0.16534000  0.79652000  0.63318000  1.0 0.078206103
C  C744  1  0.79652000  0.63318000  0.16534000  1.0 0.078206103
C  C745  1  0.11682000  0.58466000  0.95348000  1.0 0.078206103
C  C746  1  0.13318000  0.66534000  0.90496000  1.0 0.078206103
C  C747  1  0.66534000  0.90496000  0.13318000  1.0 0.078206103
C  C748  1  0.90496000  0.13318000  0.66534000  1.0 0.078206103
C  C749  1  0.66534000  0.29652000  0.90496000  1.0 0.078206103
C  C750  1  0.58466000  0.34504000  0.95348000  1.0 0.078206103
C  C751  1  0.29652000  0.13318000  0.90496000  1.0 0.078206103
C  C752  1  0.34504000  0.11682000  0.95348000  1.0 0.078206103
C  C753  1  0.29652000  0.90496000  0.66534000  1.0 0.078206103
C  C754  1  0.34504000  0.95348000  0.58466000  1.0 0.078206103
C  C755  1  0.58466000  0.11682000  0.34504000  1.0 0.078206103
C  C756  1  0.66534000  0.13318000  0.29652000  1.0 0.078206103
C  C757  1  0.29652000  0.66534000  0.13318000  1.0 0.078206103
C  C758  1  0.34504000  0.58466000  0.11682000  1.0 0.078206103
C  C759  1  0.13318000  0.29652000  0.66534000  1.0 0.078206103
C  C760  1  0.11682000  0.34504000  0.58466000  1.0 0.078206103
C  C761  1  0.11682000  0.95348000  0.34504000  1.0 0.078206103
C  C762  1  0.95348000  0.58466000  0.34504000  1.0 0.078206103
C  C763  1  0.90496000  0.66534000  0.29652000  1.0 0.078206103
C  C764  1  0.13318000  0.90496000  0.29652000  1.0 0.078206103
C  C765  1  0.95348000  0.34504000  0.11682000  1.0 0.078206103
C  C766  1  0.90496000  0.29652000  0.13318000  1.0 0.078206103
C  C767  1  0.58466000  0.95348000  0.11682000  1.0 0.078206103
C  C768  1  0.95348000  0.11682000  0.58466000  1.0 0.078206103
C  C769  1  0.64740000  0.17962000  0.76582000  1.0 -0.1616535376
C  C770  1  0.60260000  0.07038000  0.84284000  1.0 -0.1616535376
C  C771  1  0.07038000  0.84284000  0.60260000  1.0 -0.1616535376
C  C772  1  0.84284000  0.60260000  0.07038000  1.0 -0.1616535376
C  C773  1  0.07038000  0.48418000  0.84284000  1.0 -0.1616535376
C  C774  1  0.17962000  0.40716000  0.76582000  1.0 -0.1616535376
C  C775  1  0.48418000  0.60260000  0.84284000  1.0 -0.1616535376
C  C776  1  0.40716000  0.64740000  0.76582000  1.0 -0.1616535376
C  C777  1  0.48418000  0.84284000  0.07038000  1.0 -0.1616535376
C  C778  1  0.40716000  0.76582000  0.17962000  1.0 -0.1616535376
C  C779  1  0.17962000  0.64740000  0.40716000  1.0 -0.1616535376
C  C780  1  0.07038000  0.60260000  0.48418000  1.0 -0.1616535376
C  C781  1  0.48418000  0.07038000  0.60260000  1.0 -0.1616535376
C  C782  1  0.40716000  0.17962000  0.64740000  1.0 -0.1616535376
C  C783  1  0.60260000  0.48418000  0.07038000  1.0 -0.1616535376
C  C784  1  0.64740000  0.40716000  0.17962000  1.0 -0.1616535376
C  C785  1  0.64740000  0.76582000  0.40716000  1.0 -0.1616535376
C  C786  1  0.76582000  0.17962000  0.40716000  1.0 -0.1616535376
C  C787  1  0.84284000  0.07038000  0.48418000  1.0 -0.1616535376
C  C788  1  0.60260000  0.84284000  0.48418000  1.0 -0.1616535376
C  C789  1  0.76582000  0.40716000  0.64740000  1.0 -0.1616535376
C  C790  1  0.84284000  0.48418000  0.60260000  1.0 -0.1616535376
C  C791  1  0.17962000  0.76582000  0.64740000  1.0 -0.1616535376
C  C792  1  0.76582000  0.64740000  0.17962000  1.0 -0.1616535376
C  C793  1  0.10260000  0.57038000  0.98418000  1.0 -0.1616535376
C  C794  1  0.14740000  0.67962000  0.90716000  1.0 -0.1616535376
C  C795  1  0.67962000  0.90716000  0.14740000  1.0 -0.1616535376
C  C796  1  0.90716000  0.14740000  0.67962000  1.0 -0.1616535376
C  C797  1  0.67962000  0.26582000  0.90716000  1.0 -0.1616535376
C  C798  1  0.57038000  0.34284000  0.98418000  1.0 -0.1616535376
C  C799  1  0.26582000  0.14740000  0.90716000  1.0 -0.1616535376
C  C800  1  0.34284000  0.10260000  0.98418000  1.0 -0.1616535376
C  C801  1  0.26582000  0.90716000  0.67962000  1.0 -0.1616535376
C  C802  1  0.34284000  0.98418000  0.57038000  1.0 -0.1616535376
C  C803  1  0.57038000  0.10260000  0.34284000  1.0 -0.1616535376
C  C804  1  0.67962000  0.14740000  0.26582000  1.0 -0.1616535376
C  C805  1  0.26582000  0.67962000  0.14740000  1.0 -0.1616535376
C  C806  1  0.34284000  0.57038000  0.10260000  1.0 -0.1616535376
C  C807  1  0.14740000  0.26582000  0.67962000  1.0 -0.1616535376
C  C808  1  0.10260000  0.34284000  0.57038000  1.0 -0.1616535376
C  C809  1  0.10260000  0.98418000  0.34284000  1.0 -0.1616535376
C  C810  1  0.98418000  0.57038000  0.34284000  1.0 -0.1616535376
C  C811  1  0.90716000  0.67962000  0.26582000  1.0 -0.1616535376
C  C812  1  0.14740000  0.90716000  0.26582000  1.0 -0.1616535376
C  C813  1  0.98418000  0.34284000  0.10260000  1.0 -0.1616535376
C  C814  1  0.90716000  0.26582000  0.14740000  1.0 -0.1616535376
C  C815  1  0.57038000  0.98418000  0.10260000  1.0 -0.1616535376
C  C816  1  0.98418000  0.10260000  0.57038000  1.0 -0.1616535376
C  C817  1  0.67914000  0.16774000  0.75308000  1.0 0.049920971
C  C818  1  0.57086000  0.08226000  0.84996000  1.0 0.049920971
C  C819  1  0.08226000  0.84996000  0.57086000  1.0 0.049920971
C  C820  1  0.84996000  0.57086000  0.08226000  1.0 0.049920971
C  C821  1  0.08226000  0.49692000  0.84996000  1.0 0.049920971
C  C822  1  0.16774000  0.40004000  0.75308000  1.0 0.049920971
C  C823  1  0.49692000  0.57086000  0.84996000  1.0 0.049920971
C  C824  1  0.40004000  0.67914000  0.75308000  1.0 0.049920971
C  C825  1  0.49692000  0.84996000  0.08226000  1.0 0.049920971
C  C826  1  0.40004000  0.75308000  0.16774000  1.0 0.049920971
C  C827  1  0.16774000  0.67914000  0.40004000  1.0 0.049920971
C  C828  1  0.08226000  0.57086000  0.49692000  1.0 0.049920971
C  C829  1  0.49692000  0.08226000  0.57086000  1.0 0.049920971
C  C830  1  0.40004000  0.16774000  0.67914000  1.0 0.049920971
C  C831  1  0.57086000  0.49692000  0.08226000  1.0 0.049920971
C  C832  1  0.67914000  0.40004000  0.16774000  1.0 0.049920971
C  C833  1  0.67914000  0.75308000  0.40004000  1.0 0.049920971
C  C834  1  0.75308000  0.16774000  0.40004000  1.0 0.049920971
C  C835  1  0.84996000  0.08226000  0.49692000  1.0 0.049920971
C  C836  1  0.57086000  0.84996000  0.49692000  1.0 0.049920971
C  C837  1  0.75308000  0.40004000  0.67914000  1.0 0.049920971
C  C838  1  0.84996000  0.49692000  0.57086000  1.0 0.049920971
C  C839  1  0.16774000  0.75308000  0.67914000  1.0 0.049920971
C  C840  1  0.75308000  0.67914000  0.16774000  1.0 0.049920971
C  C841  1  0.07086000  0.58226000  0.99692000  1.0 0.049920971
C  C842  1  0.17914000  0.66774000  0.90004000  1.0 0.049920971
C  C843  1  0.66774000  0.90004000  0.17914000  1.0 0.049920971
C  C844  1  0.90004000  0.17914000  0.66774000  1.0 0.049920971
C  C845  1  0.66774000  0.25308000  0.90004000  1.0 0.049920971
C  C846  1  0.58226000  0.34996000  0.99692000  1.0 0.049920971
C  C847  1  0.25308000  0.17914000  0.90004000  1.0 0.049920971
C  C848  1  0.34996000  0.07086000  0.99692000  1.0 0.049920971
C  C849  1  0.25308000  0.90004000  0.66774000  1.0 0.049920971
C  C850  1  0.34996000  0.99692000  0.58226000  1.0 0.049920971
C  C851  1  0.58226000  0.07086000  0.34996000  1.0 0.049920971
C  C852  1  0.66774000  0.17914000  0.25308000  1.0 0.049920971
C  C853  1  0.25308000  0.66774000  0.17914000  1.0 0.049920971
C  C854  1  0.34996000  0.58226000  0.07086000  1.0 0.049920971
C  C855  1  0.17914000  0.25308000  0.66774000  1.0 0.049920971
C  C856  1  0.07086000  0.34996000  0.58226000  1.0 0.049920971
C  C857  1  0.07086000  0.99692000  0.34996000  1.0 0.049920971
C  C858  1  0.99692000  0.58226000  0.34996000  1.0 0.049920971
C  C859  1  0.90004000  0.66774000  0.25308000  1.0 0.049920971
C  C860  1  0.17914000  0.90004000  0.25308000  1.0 0.049920971
C  C861  1  0.99692000  0.34996000  0.07086000  1.0 0.049920971
C  C862  1  0.90004000  0.25308000  0.17914000  1.0 0.049920971
C  C863  1  0.58226000  0.99692000  0.07086000  1.0 0.049920971
C  C864  1  0.99692000  0.07086000  0.58226000  1.0 0.049920971
C  C865  1  0.69517000  0.14085000  0.77119000  1.0 -0.1683063234
C  C866  1  0.55483000  0.10915000  0.85721000  1.0 -0.1683063234
C  C867  1  0.10915000  0.85721000  0.55483000  1.0 -0.1683063234
C  C868  1  0.85721000  0.55483000  0.10915000  1.0 -0.1683063234
C  C869  1  0.10915000  0.47881000  0.85721000  1.0 -0.1683063234
C  C870  1  0.14085000  0.39279000  0.77119000  1.0 -0.1683063234
C  C871  1  0.47881000  0.55483000  0.85721000  1.0 -0.1683063234
C  C872  1  0.39279000  0.69517000  0.77119000  1.0 -0.1683063234
C  C873  1  0.47881000  0.85721000  0.10915000  1.0 -0.1683063234
C  C874  1  0.39279000  0.77119000  0.14085000  1.0 -0.1683063234
C  C875  1  0.14085000  0.69517000  0.39279000  1.0 -0.1683063234
C  C876  1  0.10915000  0.55483000  0.47881000  1.0 -0.1683063234
C  C877  1  0.47881000  0.10915000  0.55483000  1.0 -0.1683063234
C  C878  1  0.39279000  0.14085000  0.69517000  1.0 -0.1683063234
C  C879  1  0.55483000  0.47881000  0.10915000  1.0 -0.1683063234
C  C880  1  0.69517000  0.39279000  0.14085000  1.0 -0.1683063234
C  C881  1  0.69517000  0.77119000  0.39279000  1.0 -0.1683063234
C  C882  1  0.77119000  0.14085000  0.39279000  1.0 -0.1683063234
C  C883  1  0.85721000  0.10915000  0.47881000  1.0 -0.1683063234
C  C884  1  0.55483000  0.85721000  0.47881000  1.0 -0.1683063234
C  C885  1  0.77119000  0.39279000  0.69517000  1.0 -0.1683063234
C  C886  1  0.85721000  0.47881000  0.55483000  1.0 -0.1683063234
C  C887  1  0.14085000  0.77119000  0.69517000  1.0 -0.1683063234
C  C888  1  0.77119000  0.69517000  0.14085000  1.0 -0.1683063234
C  C889  1  0.05483000  0.60915000  0.97881000  1.0 -0.1683063234
C  C890  1  0.19517000  0.64085000  0.89279000  1.0 -0.1683063234
C  C891  1  0.64085000  0.89279000  0.19517000  1.0 -0.1683063234
C  C892  1  0.89279000  0.19517000  0.64085000  1.0 -0.1683063234
C  C893  1  0.64085000  0.27119000  0.89279000  1.0 -0.1683063234
C  C894  1  0.60915000  0.35721000  0.97881000  1.0 -0.1683063234
C  C895  1  0.27119000  0.19517000  0.89279000  1.0 -0.1683063234
C  C896  1  0.35721000  0.05483000  0.97881000  1.0 -0.1683063234
C  C897  1  0.27119000  0.89279000  0.64085000  1.0 -0.1683063234
C  C898  1  0.35721000  0.97881000  0.60915000  1.0 -0.1683063234
C  C899  1  0.60915000  0.05483000  0.35721000  1.0 -0.1683063234
C  C900  1  0.64085000  0.19517000  0.27119000  1.0 -0.1683063234
C  C901  1  0.27119000  0.64085000  0.19517000  1.0 -0.1683063234
C  C902  1  0.35721000  0.60915000  0.05483000  1.0 -0.1683063234
C  C903  1  0.19517000  0.27119000  0.64085000  1.0 -0.1683063234
C  C904  1  0.05483000  0.35721000  0.60915000  1.0 -0.1683063234
C  C905  1  0.05483000  0.97881000  0.35721000  1.0 -0.1683063234
C  C906  1  0.97881000  0.60915000  0.35721000  1.0 -0.1683063234
C  C907  1  0.89279000  0.64085000  0.27119000  1.0 -0.1683063234
C  C908  1  0.19517000  0.89279000  0.27119000  1.0 -0.1683063234
C  C909  1  0.97881000  0.35721000  0.05483000  1.0 -0.1683063234
C  C910  1  0.89279000  0.27119000  0.19517000  1.0 -0.1683063234
C  C911  1  0.60915000  0.97881000  0.05483000  1.0 -0.1683063234
C  C912  1  0.97881000  0.05483000  0.60915000  1.0 -0.1683063234
C  C913  1  0.67925000  0.12795000  0.80157000  1.0 0.0714952481
C  C914  1  0.57075000  0.12205000  0.85877000  1.0 0.0714952481
C  C915  1  0.12205000  0.85877000  0.57075000  1.0 0.0714952481
C  C916  1  0.85877000  0.57075000  0.12205000  1.0 0.0714952481
C  C917  1  0.12205000  0.44843000  0.85877000  1.0 0.0714952481
C  C918  1  0.12795000  0.39123000  0.80157000  1.0 0.0714952481
C  C919  1  0.44843000  0.57075000  0.85877000  1.0 0.0714952481
C  C920  1  0.39123000  0.67925000  0.80157000  1.0 0.0714952481
C  C921  1  0.44843000  0.85877000  0.12205000  1.0 0.0714952481
C  C922  1  0.39123000  0.80157000  0.12795000  1.0 0.0714952481
C  C923  1  0.12795000  0.67925000  0.39123000  1.0 0.0714952481
C  C924  1  0.12205000  0.57075000  0.44843000  1.0 0.0714952481
C  C925  1  0.44843000  0.12205000  0.57075000  1.0 0.0714952481
C  C926  1  0.39123000  0.12795000  0.67925000  1.0 0.0714952481
C  C927  1  0.57075000  0.44843000  0.12205000  1.0 0.0714952481
C  C928  1  0.67925000  0.39123000  0.12795000  1.0 0.0714952481
C  C929  1  0.67925000  0.80157000  0.39123000  1.0 0.0714952481
C  C930  1  0.80157000  0.12795000  0.39123000  1.0 0.0714952481
C  C931  1  0.85877000  0.12205000  0.44843000  1.0 0.0714952481
C  C932  1  0.57075000  0.85877000  0.44843000  1.0 0.0714952481
C  C933  1  0.80157000  0.39123000  0.67925000  1.0 0.0714952481
C  C934  1  0.85877000  0.44843000  0.57075000  1.0 0.0714952481
C  C935  1  0.12795000  0.80157000  0.67925000  1.0 0.0714952481
C  C936  1  0.80157000  0.67925000  0.12795000  1.0 0.0714952481
C  C937  1  0.07075000  0.62205000  0.94843000  1.0 0.0714952481
C  C938  1  0.17925000  0.62795000  0.89123000  1.0 0.0714952481
C  C939  1  0.62795000  0.89123000  0.17925000  1.0 0.0714952481
C  C940  1  0.89123000  0.17925000  0.62795000  1.0 0.0714952481
C  C941  1  0.62795000  0.30157000  0.89123000  1.0 0.0714952481
C  C942  1  0.62205000  0.35877000  0.94843000  1.0 0.0714952481
C  C943  1  0.30157000  0.17925000  0.89123000  1.0 0.0714952481
C  C944  1  0.35877000  0.07075000  0.94843000  1.0 0.0714952481
C  C945  1  0.30157000  0.89123000  0.62795000  1.0 0.0714952481
C  C946  1  0.35877000  0.94843000  0.62205000  1.0 0.0714952481
C  C947  1  0.62205000  0.07075000  0.35877000  1.0 0.0714952481
C  C948  1  0.62795000  0.17925000  0.30157000  1.0 0.0714952481
C  C949  1  0.30157000  0.62795000  0.17925000  1.0 0.0714952481
C  C950  1  0.35877000  0.62205000  0.07075000  1.0 0.0714952481
C  C951  1  0.17925000  0.30157000  0.62795000  1.0 0.0714952481
C  C952  1  0.07075000  0.35877000  0.62205000  1.0 0.0714952481
C  C953  1  0.07075000  0.94843000  0.35877000  1.0 0.0714952481
C  C954  1  0.94843000  0.62205000  0.35877000  1.0 0.0714952481
C  C955  1  0.89123000  0.62795000  0.30157000  1.0 0.0714952481
C  C956  1  0.17925000  0.89123000  0.30157000  1.0 0.0714952481
C  C957  1  0.94843000  0.35877000  0.07075000  1.0 0.0714952481
C  C958  1  0.89123000  0.30157000  0.17925000  1.0 0.0714952481
C  C959  1  0.62205000  0.94843000  0.07075000  1.0 0.0714952481
C  C960  1  0.94843000  0.07075000  0.62205000  1.0 0.0714952481
C  C961  1  0.81739000  0.13125000  0.66279000  1.0 0.078206103
C  C962  1  0.43261000  0.11875000  0.86143000  1.0 0.078206103
C  C963  1  0.11875000  0.86143000  0.43261000  1.0 0.078206103
C  C964  1  0.86143000  0.43261000  0.11875000  1.0 0.078206103
C  C965  1  0.11875000  0.58721000  0.86143000  1.0 0.078206103
C  C966  1  0.13125000  0.38857000  0.66279000  1.0 0.078206103
C  C967  1  0.58721000  0.43261000  0.86143000  1.0 0.078206103
C  C968  1  0.38857000  0.81739000  0.66279000  1.0 0.078206103
C  C969  1  0.58721000  0.86143000  0.11875000  1.0 0.078206103
C  C970  1  0.38857000  0.66279000  0.13125000  1.0 0.078206103
C  C971  1  0.13125000  0.81739000  0.38857000  1.0 0.078206103
C  C972  1  0.11875000  0.43261000  0.58721000  1.0 0.078206103
C  C973  1  0.58721000  0.11875000  0.43261000  1.0 0.078206103
C  C974  1  0.38857000  0.13125000  0.81739000  1.0 0.078206103
C  C975  1  0.43261000  0.58721000  0.11875000  1.0 0.078206103
C  C976  1  0.81739000  0.38857000  0.13125000  1.0 0.078206103
C  C977  1  0.81739000  0.66279000  0.38857000  1.0 0.078206103
C  C978  1  0.66279000  0.13125000  0.38857000  1.0 0.078206103
C  C979  1  0.86143000  0.11875000  0.58721000  1.0 0.078206103
C  C980  1  0.43261000  0.86143000  0.58721000  1.0 0.078206103
C  C981  1  0.66279000  0.38857000  0.81739000  1.0 0.078206103
C  C982  1  0.86143000  0.58721000  0.43261000  1.0 0.078206103
C  C983  1  0.13125000  0.66279000  0.81739000  1.0 0.078206103
C  C984  1  0.66279000  0.81739000  0.13125000  1.0 0.078206103
C  C985  1  0.93261000  0.61875000  0.08721000  1.0 0.078206103
C  C986  1  0.31739000  0.63125000  0.88857000  1.0 0.078206103
C  C987  1  0.63125000  0.88857000  0.31739000  1.0 0.078206103
C  C988  1  0.88857000  0.31739000  0.63125000  1.0 0.078206103
C  C989  1  0.63125000  0.16279000  0.88857000  1.0 0.078206103
C  C990  1  0.61875000  0.36143000  0.08721000  1.0 0.078206103
C  C991  1  0.16279000  0.31739000  0.88857000  1.0 0.078206103
C  C992  1  0.36143000  0.93261000  0.08721000  1.0 0.078206103
C  C993  1  0.16279000  0.88857000  0.63125000  1.0 0.078206103
C  C994  1  0.36143000  0.08721000  0.61875000  1.0 0.078206103
C  C995  1  0.61875000  0.93261000  0.36143000  1.0 0.078206103
C  C996  1  0.63125000  0.31739000  0.16279000  1.0 0.078206103
C  C997  1  0.16279000  0.63125000  0.31739000  1.0 0.078206103
C  C998  1  0.36143000  0.61875000  0.93261000  1.0 0.078206103
C  C999  1  0.31739000  0.16279000  0.63125000  1.0 0.078206103
C  C1000  1  0.93261000  0.36143000  0.61875000  1.0 0.078206103
C  C1001  1  0.93261000  0.08721000  0.36143000  1.0 0.078206103
C  C1002  1  0.08721000  0.61875000  0.36143000  1.0 0.078206103
C  C1003  1  0.88857000  0.63125000  0.16279000  1.0 0.078206103
C  C1004  1  0.31739000  0.88857000  0.16279000  1.0 0.078206103
C  C1005  1  0.08721000  0.36143000  0.93261000  1.0 0.078206103
C  C1006  1  0.88857000  0.16279000  0.31739000  1.0 0.078206103
C  C1007  1  0.61875000  0.08721000  0.93261000  1.0 0.078206103
C  C1008  1  0.08721000  0.93261000  0.61875000  1.0 0.078206103
C  C1009  1  0.78633000  0.14353000  0.67643000  1.0 -0.1616535376
C  C1010  1  0.46367000  0.10647000  0.85629000  1.0 -0.1616535376
C  C1011  1  0.10647000  0.85629000  0.46367000  1.0 -0.1616535376
C  C1012  1  0.85629000  0.46367000  0.10647000  1.0 -0.1616535376
C  C1013  1  0.10647000  0.57357000  0.85629000  1.0 -0.1616535376
C  C1014  1  0.14353000  0.39371000  0.67643000  1.0 -0.1616535376
C  C1015  1  0.57357000  0.46367000  0.85629000  1.0 -0.1616535376
C  C1016  1  0.39371000  0.78633000  0.67643000  1.0 -0.1616535376
C  C1017  1  0.57357000  0.85629000  0.10647000  1.0 -0.1616535376
C  C1018  1  0.39371000  0.67643000  0.14353000  1.0 -0.1616535376
C  C1019  1  0.14353000  0.78633000  0.39371000  1.0 -0.1616535376
C  C1020  1  0.10647000  0.46367000  0.57357000  1.0 -0.1616535376
C  C1021  1  0.57357000  0.10647000  0.46367000  1.0 -0.1616535376
C  C1022  1  0.39371000  0.14353000  0.78633000  1.0 -0.1616535376
C  C1023  1  0.46367000  0.57357000  0.10647000  1.0 -0.1616535376
C  C1024  1  0.78633000  0.39371000  0.14353000  1.0 -0.1616535376
C  C1025  1  0.78633000  0.67643000  0.39371000  1.0 -0.1616535376
C  C1026  1  0.67643000  0.14353000  0.39371000  1.0 -0.1616535376
C  C1027  1  0.85629000  0.10647000  0.57357000  1.0 -0.1616535376
C  C1028  1  0.46367000  0.85629000  0.57357000  1.0 -0.1616535376
C  C1029  1  0.67643000  0.39371000  0.78633000  1.0 -0.1616535376
C  C1030  1  0.85629000  0.57357000  0.46367000  1.0 -0.1616535376
C  C1031  1  0.14353000  0.67643000  0.78633000  1.0 -0.1616535376
C  C1032  1  0.67643000  0.78633000  0.14353000  1.0 -0.1616535376
C  C1033  1  0.96367000  0.60647000  0.07357000  1.0 -0.1616535376
C  C1034  1  0.28633000  0.64353000  0.89371000  1.0 -0.1616535376
C  C1035  1  0.64353000  0.89371000  0.28633000  1.0 -0.1616535376
C  C1036  1  0.89371000  0.28633000  0.64353000  1.0 -0.1616535376
C  C1037  1  0.64353000  0.17643000  0.89371000  1.0 -0.1616535376
C  C1038  1  0.60647000  0.35629000  0.07357000  1.0 -0.1616535376
C  C1039  1  0.17643000  0.28633000  0.89371000  1.0 -0.1616535376
C  C1040  1  0.35629000  0.96367000  0.07357000  1.0 -0.1616535376
C  C1041  1  0.17643000  0.89371000  0.64353000  1.0 -0.1616535376
C  C1042  1  0.35629000  0.07357000  0.60647000  1.0 -0.1616535376
C  C1043  1  0.60647000  0.96367000  0.35629000  1.0 -0.1616535376
C  C1044  1  0.64353000  0.28633000  0.17643000  1.0 -0.1616535376
C  C1045  1  0.17643000  0.64353000  0.28633000  1.0 -0.1616535376
C  C1046  1  0.35629000  0.60647000  0.96367000  1.0 -0.1616535376
C  C1047  1  0.28633000  0.17643000  0.64353000  1.0 -0.1616535376
C  C1048  1  0.96367000  0.35629000  0.60647000  1.0 -0.1616535376
C  C1049  1  0.96367000  0.07357000  0.35629000  1.0 -0.1616535376
C  C1050  1  0.07357000  0.60647000  0.35629000  1.0 -0.1616535376
C  C1051  1  0.89371000  0.64353000  0.17643000  1.0 -0.1616535376
C  C1052  1  0.28633000  0.89371000  0.17643000  1.0 -0.1616535376
C  C1053  1  0.07357000  0.35629000  0.96367000  1.0 -0.1616535376
C  C1054  1  0.89371000  0.17643000  0.28633000  1.0 -0.1616535376
C  C1055  1  0.60647000  0.07357000  0.96367000  1.0 -0.1616535376
C  C1056  1  0.07357000  0.96367000  0.60647000  1.0 -0.1616535376
C  C1057  1  0.77240000  0.17536000  0.66674000  1.0 0.049920971
C  C1058  1  0.47760000  0.07464000  0.86450000  1.0 0.049920971
C  C1059  1  0.07464000  0.86450000  0.47760000  1.0 0.049920971
C  C1060  1  0.86450000  0.47760000  0.07464000  1.0 0.049920971
C  C1061  1  0.07464000  0.58326000  0.86450000  1.0 0.049920971
C  C1062  1  0.17536000  0.38550000  0.66674000  1.0 0.049920971
C  C1063  1  0.58326000  0.47760000  0.86450000  1.0 0.049920971
C  C1064  1  0.38550000  0.77240000  0.66674000  1.0 0.049920971
C  C1065  1  0.58326000  0.86450000  0.07464000  1.0 0.049920971
C  C1066  1  0.38550000  0.66674000  0.17536000  1.0 0.049920971
C  C1067  1  0.17536000  0.77240000  0.38550000  1.0 0.049920971
C  C1068  1  0.07464000  0.47760000  0.58326000  1.0 0.049920971
C  C1069  1  0.58326000  0.07464000  0.47760000  1.0 0.049920971
C  C1070  1  0.38550000  0.17536000  0.77240000  1.0 0.049920971
C  C1071  1  0.47760000  0.58326000  0.07464000  1.0 0.049920971
C  C1072  1  0.77240000  0.38550000  0.17536000  1.0 0.049920971
C  C1073  1  0.77240000  0.66674000  0.38550000  1.0 0.049920971
C  C1074  1  0.66674000  0.17536000  0.38550000  1.0 0.049920971
C  C1075  1  0.86450000  0.07464000  0.58326000  1.0 0.049920971
C  C1076  1  0.47760000  0.86450000  0.58326000  1.0 0.049920971
C  C1077  1  0.66674000  0.38550000  0.77240000  1.0 0.049920971
C  C1078  1  0.86450000  0.58326000  0.47760000  1.0 0.049920971
C  C1079  1  0.17536000  0.66674000  0.77240000  1.0 0.049920971
C  C1080  1  0.66674000  0.77240000  0.17536000  1.0 0.049920971
C  C1081  1  0.97760000  0.57464000  0.08326000  1.0 0.049920971
C  C1082  1  0.27240000  0.67536000  0.88550000  1.0 0.049920971
C  C1083  1  0.67536000  0.88550000  0.27240000  1.0 0.049920971
C  C1084  1  0.88550000  0.27240000  0.67536000  1.0 0.049920971
C  C1085  1  0.67536000  0.16674000  0.88550000  1.0 0.049920971
C  C1086  1  0.57464000  0.36450000  0.08326000  1.0 0.049920971
C  C1087  1  0.16674000  0.27240000  0.88550000  1.0 0.049920971
C  C1088  1  0.36450000  0.97760000  0.08326000  1.0 0.049920971
C  C1089  1  0.16674000  0.88550000  0.67536000  1.0 0.049920971
C  C1090  1  0.36450000  0.08326000  0.57464000  1.0 0.049920971
C  C1091  1  0.57464000  0.97760000  0.36450000  1.0 0.049920971
C  C1092  1  0.67536000  0.27240000  0.16674000  1.0 0.049920971
C  C1093  1  0.16674000  0.67536000  0.27240000  1.0 0.049920971
C  C1094  1  0.36450000  0.57464000  0.97760000  1.0 0.049920971
C  C1095  1  0.27240000  0.16674000  0.67536000  1.0 0.049920971
C  C1096  1  0.97760000  0.36450000  0.57464000  1.0 0.049920971
C  C1097  1  0.97760000  0.08326000  0.36450000  1.0 0.049920971
C  C1098  1  0.08326000  0.57464000  0.36450000  1.0 0.049920971
C  C1099  1  0.88550000  0.67536000  0.16674000  1.0 0.049920971
C  C1100  1  0.27240000  0.88550000  0.16674000  1.0 0.049920971
C  C1101  1  0.08326000  0.36450000  0.97760000  1.0 0.049920971
C  C1102  1  0.88550000  0.16674000  0.27240000  1.0 0.049920971
C  C1103  1  0.57464000  0.08326000  0.97760000  1.0 0.049920971
C  C1104  1  0.08326000  0.97760000  0.57464000  1.0 0.049920971
C  C1105  1  0.79077000  0.19341000  0.64267000  1.0 -0.1683063234
C  C1106  1  0.45923000  0.05659000  0.87685000  1.0 -0.1683063234
C  C1107  1  0.05659000  0.87685000  0.45923000  1.0 -0.1683063234
C  C1108  1  0.87685000  0.45923000  0.05659000  1.0 -0.1683063234
C  C1109  1  0.05659000  0.60733000  0.87685000  1.0 -0.1683063234
C  C1110  1  0.19341000  0.37315000  0.64267000  1.0 -0.1683063234
C  C1111  1  0.60733000  0.45923000  0.87685000  1.0 -0.1683063234
C  C1112  1  0.37315000  0.79077000  0.64267000  1.0 -0.1683063234
C  C1113  1  0.60733000  0.87685000  0.05659000  1.0 -0.1683063234
C  C1114  1  0.37315000  0.64267000  0.19341000  1.0 -0.1683063234
C  C1115  1  0.19341000  0.79077000  0.37315000  1.0 -0.1683063234
C  C1116  1  0.05659000  0.45923000  0.60733000  1.0 -0.1683063234
C  C1117  1  0.60733000  0.05659000  0.45923000  1.0 -0.1683063234
C  C1118  1  0.37315000  0.19341000  0.79077000  1.0 -0.1683063234
C  C1119  1  0.45923000  0.60733000  0.05659000  1.0 -0.1683063234
C  C1120  1  0.79077000  0.37315000  0.19341000  1.0 -0.1683063234
C  C1121  1  0.79077000  0.64267000  0.37315000  1.0 -0.1683063234
C  C1122  1  0.64267000  0.19341000  0.37315000  1.0 -0.1683063234
C  C1123  1  0.87685000  0.05659000  0.60733000  1.0 -0.1683063234
C  C1124  1  0.45923000  0.87685000  0.60733000  1.0 -0.1683063234
C  C1125  1  0.64267000  0.37315000  0.79077000  1.0 -0.1683063234
C  C1126  1  0.87685000  0.60733000  0.45923000  1.0 -0.1683063234
C  C1127  1  0.19341000  0.64267000  0.79077000  1.0 -0.1683063234
C  C1128  1  0.64267000  0.79077000  0.19341000  1.0 -0.1683063234
C  C1129  1  0.95923000  0.55659000  0.10733000  1.0 -0.1683063234
C  C1130  1  0.29077000  0.69341000  0.87315000  1.0 -0.1683063234
C  C1131  1  0.69341000  0.87315000  0.29077000  1.0 -0.1683063234
C  C1132  1  0.87315000  0.29077000  0.69341000  1.0 -0.1683063234
C  C1133  1  0.69341000  0.14267000  0.87315000  1.0 -0.1683063234
C  C1134  1  0.55659000  0.37685000  0.10733000  1.0 -0.1683063234
C  C1135  1  0.14267000  0.29077000  0.87315000  1.0 -0.1683063234
C  C1136  1  0.37685000  0.95923000  0.10733000  1.0 -0.1683063234
C  C1137  1  0.14267000  0.87315000  0.69341000  1.0 -0.1683063234
C  C1138  1  0.37685000  0.10733000  0.55659000  1.0 -0.1683063234
C  C1139  1  0.55659000  0.95923000  0.37685000  1.0 -0.1683063234
C  C1140  1  0.69341000  0.29077000  0.14267000  1.0 -0.1683063234
C  C1141  1  0.14267000  0.69341000  0.29077000  1.0 -0.1683063234
C  C1142  1  0.37685000  0.55659000  0.95923000  1.0 -0.1683063234
C  C1143  1  0.29077000  0.14267000  0.69341000  1.0 -0.1683063234
C  C1144  1  0.95923000  0.37685000  0.55659000  1.0 -0.1683063234
C  C1145  1  0.95923000  0.10733000  0.37685000  1.0 -0.1683063234
C  C1146  1  0.10733000  0.55659000  0.37685000  1.0 -0.1683063234
C  C1147  1  0.87315000  0.69341000  0.14267000  1.0 -0.1683063234
C  C1148  1  0.29077000  0.87315000  0.14267000  1.0 -0.1683063234
C  C1149  1  0.10733000  0.37685000  0.95923000  1.0 -0.1683063234
C  C1150  1  0.87315000  0.14267000  0.29077000  1.0 -0.1683063234
C  C1151  1  0.55659000  0.10733000  0.95923000  1.0 -0.1683063234
C  C1152  1  0.10733000  0.95923000  0.55659000  1.0 -0.1683063234
C  C1153  1  0.82203000  0.17895000  0.63095000  1.0 0.0714952481
C  C1154  1  0.42797000  0.07105000  0.88193000  1.0 0.0714952481
C  C1155  1  0.07105000  0.88193000  0.42797000  1.0 0.0714952481
C  C1156  1  0.88193000  0.42797000  0.07105000  1.0 0.0714952481
C  C1157  1  0.07105000  0.61905000  0.88193000  1.0 0.0714952481
C  C1158  1  0.17895000  0.36807000  0.63095000  1.0 0.0714952481
C  C1159  1  0.61905000  0.42797000  0.88193000  1.0 0.0714952481
C  C1160  1  0.36807000  0.82203000  0.63095000  1.0 0.0714952481
C  C1161  1  0.61905000  0.88193000  0.07105000  1.0 0.0714952481
C  C1162  1  0.36807000  0.63095000  0.17895000  1.0 0.0714952481
C  C1163  1  0.17895000  0.82203000  0.36807000  1.0 0.0714952481
C  C1164  1  0.07105000  0.42797000  0.61905000  1.0 0.0714952481
C  C1165  1  0.61905000  0.07105000  0.42797000  1.0 0.0714952481
C  C1166  1  0.36807000  0.17895000  0.82203000  1.0 0.0714952481
C  C1167  1  0.42797000  0.61905000  0.07105000  1.0 0.0714952481
C  C1168  1  0.82203000  0.36807000  0.17895000  1.0 0.0714952481
C  C1169  1  0.82203000  0.63095000  0.36807000  1.0 0.0714952481
C  C1170  1  0.63095000  0.17895000  0.36807000  1.0 0.0714952481
C  C1171  1  0.88193000  0.07105000  0.61905000  1.0 0.0714952481
C  C1172  1  0.42797000  0.88193000  0.61905000  1.0 0.0714952481
C  C1173  1  0.63095000  0.36807000  0.82203000  1.0 0.0714952481
C  C1174  1  0.88193000  0.61905000  0.42797000  1.0 0.0714952481
C  C1175  1  0.17895000  0.63095000  0.82203000  1.0 0.0714952481
C  C1176  1  0.63095000  0.82203000  0.17895000  1.0 0.0714952481
C  C1177  1  0.92797000  0.57105000  0.11905000  1.0 0.0714952481
C  C1178  1  0.32203000  0.67895000  0.86807000  1.0 0.0714952481
C  C1179  1  0.67895000  0.86807000  0.32203000  1.0 0.0714952481
C  C1180  1  0.86807000  0.32203000  0.67895000  1.0 0.0714952481
C  C1181  1  0.67895000  0.13095000  0.86807000  1.0 0.0714952481
C  C1182  1  0.57105000  0.38193000  0.11905000  1.0 0.0714952481
C  C1183  1  0.13095000  0.32203000  0.86807000  1.0 0.0714952481
C  C1184  1  0.38193000  0.92797000  0.11905000  1.0 0.0714952481
C  C1185  1  0.13095000  0.86807000  0.67895000  1.0 0.0714952481
C  C1186  1  0.38193000  0.11905000  0.57105000  1.0 0.0714952481
C  C1187  1  0.57105000  0.92797000  0.38193000  1.0 0.0714952481
C  C1188  1  0.67895000  0.32203000  0.13095000  1.0 0.0714952481
C  C1189  1  0.13095000  0.67895000  0.32203000  1.0 0.0714952481
C  C1190  1  0.38193000  0.57105000  0.92797000  1.0 0.0714952481
C  C1191  1  0.32203000  0.13095000  0.67895000  1.0 0.0714952481
C  C1192  1  0.92797000  0.38193000  0.57105000  1.0 0.0714952481
C  C1193  1  0.92797000  0.11905000  0.38193000  1.0 0.0714952481
C  C1194  1  0.11905000  0.57105000  0.38193000  1.0 0.0714952481
C  C1195  1  0.86807000  0.67895000  0.13095000  1.0 0.0714952481
C  C1196  1  0.32203000  0.86807000  0.13095000  1.0 0.0714952481
C  C1197  1  0.11905000  0.38193000  0.92797000  1.0 0.0714952481
C  C1198  1  0.86807000  0.13095000  0.32203000  1.0 0.0714952481
C  C1199  1  0.57105000  0.11905000  0.92797000  1.0 0.0714952481
C  C1200  1  0.11905000  0.92797000  0.57105000  1.0 0.0714952481
C  C1201  1  0.58422000  0.19412000  0.85192000  1.0 0.2060519979
C  C1202  1  0.66578000  0.05588000  0.88026000  1.0 0.2060519979
C  C1203  1  0.05588000  0.88026000  0.66578000  1.0 0.2060519979
C  C1204  1  0.88026000  0.66578000  0.05588000  1.0 0.2060519979
C  C1205  1  0.05588000  0.39808000  0.88026000  1.0 0.2060519979
C  C1206  1  0.19412000  0.36974000  0.85192000  1.0 0.2060519979
C  C1207  1  0.39808000  0.66578000  0.88026000  1.0 0.2060519979
C  C1208  1  0.36974000  0.58422000  0.85192000  1.0 0.2003466211
C  C1209  1  0.39808000  0.88026000  0.05588000  1.0 0.2060519979
C  C1210  1  0.36974000  0.85192000  0.19412000  1.0 0.2060519979
C  C1211  1  0.19412000  0.58422000  0.36974000  1.0 0.2060519979
C  C1212  1  0.05588000  0.66578000  0.39808000  1.0 0.2060519979
C  C1213  1  0.39808000  0.05588000  0.66578000  1.0 0.2060519979
C  C1214  1  0.36974000  0.19412000  0.58422000  1.0 0.2060519979
C  C1215  1  0.66578000  0.39808000  0.05588000  1.0 0.2060519979
C  C1216  1  0.58422000  0.36974000  0.19412000  1.0 0.2060519979
C  C1217  1  0.58422000  0.85192000  0.36974000  1.0 0.2060519979
C  C1218  1  0.85192000  0.19412000  0.36974000  1.0 0.2003466211
C  C1219  1  0.88026000  0.05588000  0.39808000  1.0 0.2060519979
C  C1220  1  0.66578000  0.88026000  0.39808000  1.0 0.2060519979
C  C1221  1  0.85192000  0.36974000  0.58422000  1.0 0.2003466211
C  C1222  1  0.88026000  0.39808000  0.66578000  1.0 0.2060519979
C  C1223  1  0.19412000  0.85192000  0.58422000  1.0 0.2060519979
C  C1224  1  0.85192000  0.58422000  0.19412000  1.0 0.2003466211
C  C1225  1  0.16578000  0.55588000  0.89808000  1.0 0.2060519979
C  C1226  1  0.08422000  0.69412000  0.86974000  1.0 0.2060519979
C  C1227  1  0.69412000  0.86974000  0.08422000  1.0 0.2060519979
C  C1228  1  0.86974000  0.08422000  0.69412000  1.0 0.2060519979
C  C1229  1  0.69412000  0.35192000  0.86974000  1.0 0.2060519979
C  C1230  1  0.55588000  0.38026000  0.89808000  1.0 0.2060519979
C  C1231  1  0.35192000  0.08422000  0.86974000  1.0 0.2060519979
C  C1232  1  0.38026000  0.16578000  0.89808000  1.0 0.2060519979
C  C1233  1  0.35192000  0.86974000  0.69412000  1.0 0.2060519979
C  C1234  1  0.38026000  0.89808000  0.55588000  1.0 0.2060519979
C  C1235  1  0.55588000  0.16578000  0.38026000  1.0 0.2060519979
C  C1236  1  0.69412000  0.08422000  0.35192000  1.0 0.2060519979
C  C1237  1  0.35192000  0.69412000  0.08422000  1.0 0.2060519979
C  C1238  1  0.38026000  0.55588000  0.16578000  1.0 0.2060519979
C  C1239  1  0.08422000  0.35192000  0.69412000  1.0 0.2060519979
C  C1240  1  0.16578000  0.38026000  0.55588000  1.0 0.2060519979
C  C1241  1  0.16578000  0.89808000  0.38026000  1.0 0.2060519979
C  C1242  1  0.89808000  0.55588000  0.38026000  1.0 0.2003466211
C  C1243  1  0.86974000  0.69412000  0.35192000  1.0 0.2060519979
C  C1244  1  0.08422000  0.86974000  0.35192000  1.0 0.2060519979
C  C1245  1  0.89808000  0.38026000  0.16578000  1.0 0.2060519979
C  C1246  1  0.86974000  0.35192000  0.08422000  1.0 0.2060519979
C  C1247  1  0.55588000  0.89808000  0.16578000  1.0 0.2060519979
C  C1248  1  0.89808000  0.16578000  0.55588000  1.0 0.2060519979
S  S1  1  0.70926000  0.40076000  0.53434000  1.0 -0.1304099485
S  S2  1  0.54074000  0.84924000  0.89436000  1.0 -0.1304099485
S  S3  1  0.84924000  0.89436000  0.54074000  1.0 -0.1304099485
S  S4  1  0.89436000  0.54074000  0.84924000  1.0 -0.1304099485
S  S5  1  0.84924000  0.71566000  0.89436000  1.0 -0.1304099485
S  S6  1  0.40076000  0.35564000  0.53434000  1.0 -0.1304099485
S  S7  1  0.71566000  0.54074000  0.89436000  1.0 -0.1304099485
S  S8  1  0.35564000  0.70926000  0.53434000  1.0 -0.1304099485
S  S9  1  0.71566000  0.89436000  0.84924000  1.0 -0.1304099485
S  S10  1  0.35564000  0.53434000  0.40076000  1.0 -0.1304099485
S  S11  1  0.40076000  0.70926000  0.35564000  1.0 -0.1304099485
S  S12  1  0.84924000  0.54074000  0.71566000  1.0 -0.1304099485
S  S13  1  0.71566000  0.84924000  0.54074000  1.0 -0.1304099485
S  S14  1  0.35564000  0.40076000  0.70926000  1.0 -0.1304099485
S  S15  1  0.54074000  0.71566000  0.84924000  1.0 -0.1304099485
S  S16  1  0.70926000  0.35564000  0.40076000  1.0 -0.1304099485
S  S17  1  0.70926000  0.53434000  0.35564000  1.0 -0.1304099485
S  S18  1  0.53434000  0.40076000  0.35564000  1.0 -0.1304099485
S  S19  1  0.89436000  0.84924000  0.71566000  1.0 -0.1304099485
S  S20  1  0.54074000  0.89436000  0.71566000  1.0 -0.1304099485
S  S21  1  0.53434000  0.35564000  0.70926000  1.0 -0.1304099485
S  S22  1  0.89436000  0.71566000  0.54074000  1.0 -0.1304099485
S  S23  1  0.40076000  0.53434000  0.70926000  1.0 -0.1304099485
S  S24  1  0.53434000  0.70926000  0.40076000  1.0 -0.1304099485
S  S25  1  0.04074000  0.34924000  0.21566000  1.0 -0.1304099485
S  S26  1  0.20926000  0.90076000  0.85564000  1.0 -0.1304099485
S  S27  1  0.90076000  0.85564000  0.20926000  1.0 -0.1304099485
S  S28  1  0.85564000  0.20926000  0.90076000  1.0 -0.1304099485
S  S29  1  0.90076000  0.03434000  0.85564000  1.0 -0.1304099485
S  S30  1  0.34924000  0.39436000  0.21566000  1.0 -0.1304099485
S  S31  1  0.03434000  0.20926000  0.85564000  1.0 -0.1304099485
S  S32  1  0.39436000  0.04074000  0.21566000  1.0 -0.1304099485
S  S33  1  0.03434000  0.85564000  0.90076000  1.0 -0.1304099485
S  S34  1  0.39436000  0.21566000  0.34924000  1.0 -0.1304099485
S  S35  1  0.34924000  0.04074000  0.39436000  1.0 -0.1304099485
S  S36  1  0.90076000  0.20926000  0.03434000  1.0 -0.1304099485
S  S37  1  0.03434000  0.90076000  0.20926000  1.0 -0.1304099485
S  S38  1  0.39436000  0.34924000  0.04074000  1.0 -0.1304099485
S  S39  1  0.20926000  0.03434000  0.90076000  1.0 -0.1304099485
S  S40  1  0.04074000  0.39436000  0.34924000  1.0 -0.1304099485
S  S41  1  0.04074000  0.21566000  0.39436000  1.0 -0.1304099485
S  S42  1  0.21566000  0.34924000  0.39436000  1.0 -0.1304099485
S  S43  1  0.85564000  0.90076000  0.03434000  1.0 -0.1304099485
S  S44  1  0.20926000  0.85564000  0.03434000  1.0 -0.1304099485
S  S45  1  0.21566000  0.39436000  0.04074000  1.0 -0.1304099485
S  S46  1  0.85564000  0.03434000  0.20926000  1.0 -0.1304099485
S  S47  1  0.34924000  0.21566000  0.04074000  1.0 -0.1304099485
S  S48  1  0.21566000  0.04074000  0.34924000  1.0 -0.1304099485
S  S49  1  0.57747000  0.23105000  0.83877000  1.0 -0.2162817774
S  S50  1  0.67253000  0.01895000  0.89729000  1.0 -0.2162817774
S  S51  1  0.01895000  0.89729000  0.67253000  1.0 -0.2132326432
S  S52  1  0.89729000  0.67253000  0.01895000  1.0 -0.2162817774
S  S53  1  0.01895000  0.41123000  0.89729000  1.0 -0.2162817774
S  S54  1  0.23105000  0.35271000  0.83877000  1.0 -0.2162817774
S  S55  1  0.41123000  0.67253000  0.89729000  1.0 -0.2162817774
S  S56  1  0.35271000  0.57747000  0.83877000  1.0 -0.2162817774
S  S57  1  0.41123000  0.89729000  0.01895000  1.0 -0.2162817774
S  S58  1  0.35271000  0.83877000  0.23105000  1.0 -0.2162817774
S  S59  1  0.23105000  0.57747000  0.35271000  1.0 -0.2162817774
S  S60  1  0.01895000  0.67253000  0.41123000  1.0 -0.2162817774
S  S61  1  0.41123000  0.01895000  0.67253000  1.0 -0.2162817774
S  S62  1  0.35271000  0.23105000  0.57747000  1.0 -0.2162817774
S  S63  1  0.67253000  0.41123000  0.01895000  1.0 -0.2162817774
S  S64  1  0.57747000  0.35271000  0.23105000  1.0 -0.2162817774
S  S65  1  0.57747000  0.83877000  0.35271000  1.0 -0.2162817774
S  S66  1  0.83877000  0.23105000  0.35271000  1.0 -0.2132326432
S  S67  1  0.89729000  0.01895000  0.41123000  1.0 -0.2132326432
S  S68  1  0.67253000  0.89729000  0.41123000  1.0 -0.2162817774
S  S69  1  0.83877000  0.35271000  0.57747000  1.0 -0.2132326432
S  S70  1  0.89729000  0.41123000  0.67253000  1.0 -0.2162817774
S  S71  1  0.23105000  0.83877000  0.57747000  1.0 -0.2132326432
S  S72  1  0.83877000  0.57747000  0.23105000  1.0 -0.2132326432
S  S73  1  0.17253000  0.51895000  0.91123000  1.0 -0.2162817774
S  S74  1  0.07747000  0.73105000  0.85271000  1.0 -0.2132326432
S  S75  1  0.73105000  0.85271000  0.07747000  1.0 -0.2162817774
S  S76  1  0.85271000  0.07747000  0.73105000  1.0 -0.2162817774
S  S77  1  0.73105000  0.33877000  0.85271000  1.0 -0.2162817774
S  S78  1  0.51895000  0.39729000  0.91123000  1.0 -0.2132326432
S  S79  1  0.33877000  0.07747000  0.85271000  1.0 -0.2162817774
S  S80  1  0.39729000  0.17253000  0.91123000  1.0 -0.2162817774
S  S81  1  0.33877000  0.85271000  0.73105000  1.0 -0.2162817774
S  S82  1  0.39729000  0.91123000  0.51895000  1.0 -0.2162817774
S  S83  1  0.51895000  0.17253000  0.39729000  1.0 -0.2162817774
S  S84  1  0.73105000  0.07747000  0.33877000  1.0 -0.2162817774
S  S85  1  0.33877000  0.73105000  0.07747000  1.0 -0.2162817774
S  S86  1  0.39729000  0.51895000  0.17253000  1.0 -0.2162817774
S  S87  1  0.07747000  0.33877000  0.73105000  1.0 -0.2162817774
S  S88  1  0.17253000  0.39729000  0.51895000  1.0 -0.2162817774
S  S89  1  0.17253000  0.91123000  0.39729000  1.0 -0.2162817774
S  S90  1  0.91123000  0.51895000  0.39729000  1.0 -0.2132326432
S  S91  1  0.85271000  0.73105000  0.33877000  1.0 -0.2162817774
S  S92  1  0.07747000  0.85271000  0.33877000  1.0 -0.2162817774
S  S93  1  0.91123000  0.39729000  0.17253000  1.0 -0.2162817774
S  S94  1  0.85271000  0.33877000  0.07747000  1.0 -0.2162817774
S  S95  1  0.51895000  0.91123000  0.17253000  1.0 -0.2162817774
S  S96  1  0.91123000  0.17253000  0.51895000  1.0 -0.2132326432
N  N1  1  0.57695000  0.35817000  0.53203000  1.0 -0.4210093079
N  N2  1  0.67305000  0.89183000  0.71715000  1.0 -0.4210093079
N  N3  1  0.89183000  0.71715000  0.67305000  1.0 -0.4210093079
N  N4  1  0.71715000  0.67305000  0.89183000  1.0 -0.4210093079
N  N5  1  0.89183000  0.71797000  0.71715000  1.0 -0.4210093079
N  N6  1  0.35817000  0.53285000  0.53203000  1.0 -0.4210093079
N  N7  1  0.71797000  0.67305000  0.71715000  1.0 -0.4210093079
N  N8  1  0.53285000  0.57695000  0.53203000  1.0 -0.4210093079
N  N9  1  0.71797000  0.71715000  0.89183000  1.0 -0.4210093079
N  N10  1  0.53285000  0.53203000  0.35817000  1.0 -0.4210093079
N  N11  1  0.35817000  0.57695000  0.53285000  1.0 -0.4210093079
N  N12  1  0.89183000  0.67305000  0.71797000  1.0 -0.4210093079
N  N13  1  0.71797000  0.89183000  0.67305000  1.0 -0.4210093079
N  N14  1  0.53285000  0.35817000  0.57695000  1.0 -0.4210093079
N  N15  1  0.67305000  0.71797000  0.89183000  1.0 -0.4210093079
N  N16  1  0.57695000  0.53285000  0.35817000  1.0 -0.4210093079
N  N17  1  0.57695000  0.53203000  0.53285000  1.0 -0.4210093079
N  N18  1  0.53203000  0.35817000  0.53285000  1.0 -0.4210093079
N  N19  1  0.71715000  0.89183000  0.71797000  1.0 -0.4210093079
N  N20  1  0.67305000  0.71715000  0.71797000  1.0 -0.4210093079
N  N21  1  0.53203000  0.53285000  0.57695000  1.0 -0.4210093079
N  N22  1  0.71715000  0.71797000  0.67305000  1.0 -0.4210093079
N  N23  1  0.35817000  0.53203000  0.57695000  1.0 -0.4210093079
N  N24  1  0.53203000  0.57695000  0.35817000  1.0 -0.4210093079
N  N25  1  0.17305000  0.39183000  0.21797000  1.0 -0.4210093079
N  N26  1  0.07695000  0.85817000  0.03285000  1.0 -0.4210093079
N  N27  1  0.85817000  0.03285000  0.07695000  1.0 -0.4210093079
N  N28  1  0.03285000  0.07695000  0.85817000  1.0 -0.4210093079
N  N29  1  0.85817000  0.03203000  0.03285000  1.0 -0.4210093079
N  N30  1  0.39183000  0.21715000  0.21797000  1.0 -0.4210093079
N  N31  1  0.03203000  0.07695000  0.03285000  1.0 -0.4210093079
N  N32  1  0.21715000  0.17305000  0.21797000  1.0 -0.4210093079
N  N33  1  0.03203000  0.03285000  0.85817000  1.0 -0.4210093079
N  N34  1  0.21715000  0.21797000  0.39183000  1.0 -0.4210093079
N  N35  1  0.39183000  0.17305000  0.21715000  1.0 -0.4210093079
N  N36  1  0.85817000  0.07695000  0.03203000  1.0 -0.4210093079
N  N37  1  0.03203000  0.85817000  0.07695000  1.0 -0.4210093079
N  N38  1  0.21715000  0.39183000  0.17305000  1.0 -0.4210093079
N  N39  1  0.07695000  0.03203000  0.85817000  1.0 -0.4210093079
N  N40  1  0.17305000  0.21715000  0.39183000  1.0 -0.4210093079
N  N41  1  0.17305000  0.21797000  0.21715000  1.0 -0.4210093079
N  N42  1  0.21797000  0.39183000  0.21715000  1.0 -0.4210093079
N  N43  1  0.03285000  0.85817000  0.03203000  1.0 -0.4210093079
N  N44  1  0.07695000  0.03285000  0.03203000  1.0 -0.4210093079
N  N45  1  0.21797000  0.21715000  0.17305000  1.0 -0.4210093079
N  N46  1  0.03285000  0.03203000  0.07695000  1.0 -0.4210093079
N  N47  1  0.39183000  0.21797000  0.17305000  1.0 -0.4210093079
N  N48  1  0.21797000  0.17305000  0.39183000  1.0 -0.4210093079
N  N49  1  0.60533000  0.36749000  0.60339000  1.0 -0.2132326432
N  N50  1  0.64467000  0.88251000  0.82621000  1.0 -0.2132326432
N  N51  1  0.88251000  0.82621000  0.64467000  1.0 -0.2132326432
N  N52  1  0.82621000  0.64467000  0.88251000  1.0 -0.2132326432
N  N53  1  0.88251000  0.64661000  0.82621000  1.0 -0.2132326432
N  N54  1  0.36749000  0.42379000  0.60339000  1.0 -0.2132326432
N  N55  1  0.64661000  0.64467000  0.82621000  1.0 -0.2132326432
N  N56  1  0.42379000  0.60533000  0.60339000  1.0 -0.2132326432
N  N57  1  0.64661000  0.82621000  0.88251000  1.0 -0.2132326432
N  N58  1  0.42379000  0.60339000  0.36749000  1.0 -0.2132326432
N  N59  1  0.36749000  0.60533000  0.42379000  1.0 -0.2132326432
N  N60  1  0.88251000  0.64467000  0.64661000  1.0 -0.2132326432
N  N61  1  0.64661000  0.88251000  0.64467000  1.0 -0.2132326432
N  N62  1  0.42379000  0.36749000  0.60533000  1.0 -0.2132326432
N  N63  1  0.64467000  0.64661000  0.88251000  1.0 -0.2132326432
N  N64  1  0.60533000  0.42379000  0.36749000  1.0 -0.2132326432
N  N65  1  0.60533000  0.60339000  0.42379000  1.0 -0.2132326432
N  N66  1  0.60339000  0.36749000  0.42379000  1.0 -0.2132326432
N  N67  1  0.82621000  0.88251000  0.64661000  1.0 -0.2132326432
N  N68  1  0.64467000  0.82621000  0.64661000  1.0 -0.2132326432
N  N69  1  0.60339000  0.42379000  0.60533000  1.0 -0.2132326432
N  N70  1  0.82621000  0.64661000  0.64467000  1.0 -0.2132326432
N  N71  1  0.36749000  0.60339000  0.60533000  1.0 -0.2132326432
N  N72  1  0.60339000  0.60533000  0.36749000  1.0 -0.2132326432
N  N73  1  0.14467000  0.38251000  0.14661000  1.0 -0.2132326432
N  N74  1  0.10533000  0.86749000  0.92379000  1.0 -0.2132326432
N  N75  1  0.86749000  0.92379000  0.10533000  1.0 -0.2132326432
N  N76  1  0.92379000  0.10533000  0.86749000  1.0 -0.2132326432
N  N77  1  0.86749000  0.10339000  0.92379000  1.0 -0.2132326432
N  N78  1  0.38251000  0.32621000  0.14661000  1.0 -0.2132326432
N  N79  1  0.10339000  0.10533000  0.92379000  1.0 -0.2132326432
N  N80  1  0.32621000  0.14467000  0.14661000  1.0 -0.2132326432
N  N81  1  0.10339000  0.92379000  0.86749000  1.0 -0.2132326432
N  N82  1  0.32621000  0.14661000  0.38251000  1.0 -0.2132326432
N  N83  1  0.38251000  0.14467000  0.32621000  1.0 -0.2132326432
N  N84  1  0.86749000  0.10533000  0.10339000  1.0 -0.2132326432
N  N85  1  0.10339000  0.86749000  0.10533000  1.0 -0.2132326432
N  N86  1  0.32621000  0.38251000  0.14467000  1.0 -0.2132326432
N  N87  1  0.10533000  0.10339000  0.86749000  1.0 -0.2132326432
N  N88  1  0.14467000  0.32621000  0.38251000  1.0 -0.2132326432
N  N89  1  0.14467000  0.14661000  0.32621000  1.0 -0.2132326432
N  N90  1  0.14661000  0.38251000  0.32621000  1.0 -0.2132326432
N  N91  1  0.92379000  0.86749000  0.10339000  1.0 -0.2132326432
N  N92  1  0.10533000  0.92379000  0.10339000  1.0 -0.2132326432
N  N93  1  0.14661000  0.32621000  0.14467000  1.0 -0.2132326432
N  N94  1  0.92379000  0.10339000  0.10533000  1.0 -0.2132326432
N  N95  1  0.38251000  0.14661000  0.14467000  1.0 -0.2132326432
N  N96  1  0.14661000  0.14467000  0.38251000  1.0 -0.2132326432
N  N97  1  0.66514000  0.37598000  0.58632000  1.0 -0.4560770069
N  N98  1  0.58486000  0.87402000  0.87744000  1.0 -0.4544093849
N  N99  1  0.87402000  0.87744000  0.58486000  1.0 -0.4560770069
N  N100  1  0.87744000  0.58486000  0.87402000  1.0 -0.4560770069
N  N101  1  0.87402000  0.66368000  0.87744000  1.0 -0.4544093849
N  N102  1  0.37598000  0.37256000  0.58632000  1.0 -0.4544093849
N  N103  1  0.66368000  0.58486000  0.87744000  1.0 -0.4560770069
N  N104  1  0.37256000  0.66514000  0.58632000  1.0 -0.4560770069
N  N105  1  0.66368000  0.87744000  0.87402000  1.0 -0.4560770069
N  N106  1  0.37256000  0.58632000  0.37598000  1.0 -0.4560770069
N  N107  1  0.37598000  0.66514000  0.37256000  1.0 -0.4560770069
N  N108  1  0.87402000  0.58486000  0.66368000  1.0 -0.4560770069
N  N109  1  0.66368000  0.87402000  0.58486000  1.0 -0.4560770069
N  N110  1  0.37256000  0.37598000  0.66514000  1.0 -0.4560770069
N  N111  1  0.58486000  0.66368000  0.87402000  1.0 -0.4560770069
N  N112  1  0.66514000  0.37256000  0.37598000  1.0 -0.4544093849
N  N113  1  0.66514000  0.58632000  0.37256000  1.0 -0.4560770069
N  N114  1  0.58632000  0.37598000  0.37256000  1.0 -0.4560770069
N  N115  1  0.87744000  0.87402000  0.66368000  1.0 -0.4560770069
N  N116  1  0.58486000  0.87744000  0.66368000  1.0 -0.4560770069
N  N117  1  0.58632000  0.37256000  0.66514000  1.0 -0.4560770069
N  N118  1  0.87744000  0.66368000  0.58486000  1.0 -0.4560770069
N  N119  1  0.37598000  0.58632000  0.66514000  1.0 -0.4560770069
N  N120  1  0.58632000  0.66514000  0.37598000  1.0 -0.4560770069
N  N121  1  0.08486000  0.37402000  0.16368000  1.0 -0.4544093849
N  N122  1  0.16514000  0.87598000  0.87256000  1.0 -0.4560770069
N  N123  1  0.87598000  0.87256000  0.16514000  1.0 -0.4560770069
N  N124  1  0.87256000  0.16514000  0.87598000  1.0 -0.4560770069
N  N125  1  0.87598000  0.08632000  0.87256000  1.0 -0.4560770069
N  N126  1  0.37402000  0.37744000  0.16368000  1.0 -0.4544093849
N  N127  1  0.08632000  0.16514000  0.87256000  1.0 -0.4560770069
N  N128  1  0.37744000  0.08486000  0.16368000  1.0 -0.4544093849
N  N129  1  0.08632000  0.87256000  0.87598000  1.0 -0.4560770069
N  N130  1  0.37744000  0.16368000  0.37402000  1.0 -0.4544093849
N  N131  1  0.37402000  0.08486000  0.37744000  1.0 -0.4544093849
N  N132  1  0.87598000  0.16514000  0.08632000  1.0 -0.4544093849
N  N133  1  0.08632000  0.87598000  0.16514000  1.0 -0.4560770069
N  N134  1  0.37744000  0.37402000  0.08486000  1.0 -0.4544093849
N  N135  1  0.16514000  0.08632000  0.87598000  1.0 -0.4560770069
N  N136  1  0.08486000  0.37744000  0.37402000  1.0 -0.4544093849
N  N137  1  0.08486000  0.16368000  0.37744000  1.0 -0.4544093849
N  N138  1  0.16368000  0.37402000  0.37744000  1.0 -0.4544093849
N  N139  1  0.87256000  0.87598000  0.08632000  1.0 -0.4560770069
N  N140  1  0.16514000  0.87256000  0.08632000  1.0 -0.4560770069
N  N141  1  0.16368000  0.37744000  0.08486000  1.0 -0.4544093849
N  N142  1  0.87256000  0.08632000  0.16514000  1.0 -0.4544093849
N  N143  1  0.37402000  0.16368000  0.08486000  1.0 -0.4544093849
N  N144  1  0.16368000  0.08486000  0.37402000  1.0 -0.4544093849
N  N145  1  0.64766000  0.32530000  0.64428000  1.0 -0.2162817774
N  N146  1  0.60234000  0.92470000  0.86724000  1.0 -0.2162817774
N  N147  1  0.92470000  0.86724000  0.60234000  1.0 -0.2162817774
N  N148  1  0.86724000  0.60234000  0.92470000  1.0 -0.2162817774
N  N149  1  0.92470000  0.60572000  0.86724000  1.0 -0.2162817774
N  N150  1  0.32530000  0.38276000  0.64428000  1.0 -0.2162817774
N  N151  1  0.60572000  0.60234000  0.86724000  1.0 -0.2162817774
N  N152  1  0.38276000  0.64766000  0.64428000  1.0 -0.2132326432
N  N153  1  0.60572000  0.86724000  0.92470000  1.0 -0.2162817774
N  N154  1  0.38276000  0.64428000  0.32530000  1.0 -0.2132326432
N  N155  1  0.32530000  0.64766000  0.38276000  1.0 -0.2162817774
N  N156  1  0.92470000  0.60234000  0.60572000  1.0 -0.2162817774
N  N157  1  0.60572000  0.92470000  0.60234000  1.0 -0.2162817774
N  N158  1  0.38276000  0.32530000  0.64766000  1.0 -0.2162817774
N  N159  1  0.60234000  0.60572000  0.92470000  1.0 -0.2162817774
N  N160  1  0.64766000  0.38276000  0.32530000  1.0 -0.2162817774
N  N161  1  0.64766000  0.64428000  0.38276000  1.0 -0.2162817774
N  N162  1  0.64428000  0.32530000  0.38276000  1.0 -0.2162817774
N  N163  1  0.86724000  0.92470000  0.60572000  1.0 -0.2162817774
N  N164  1  0.60234000  0.86724000  0.60572000  1.0 -0.2162817774
N  N165  1  0.64428000  0.38276000  0.64766000  1.0 -0.2132326432
N  N166  1  0.86724000  0.60572000  0.60234000  1.0 -0.2162817774
N  N167  1  0.32530000  0.64428000  0.64766000  1.0 -0.2132326432
N  N168  1  0.64428000  0.64766000  0.32530000  1.0 -0.2162817774
N  N169  1  0.10234000  0.42470000  0.10572000  1.0 -0.2162817774
N  N170  1  0.14766000  0.82530000  0.88276000  1.0 -0.2162817774
N  N171  1  0.82530000  0.88276000  0.14766000  1.0 -0.2132326432
N  N172  1  0.88276000  0.14766000  0.82530000  1.0 -0.2162817774
N  N173  1  0.82530000  0.14428000  0.88276000  1.0 -0.2162817774
N  N174  1  0.42470000  0.36724000  0.10572000  1.0 -0.2132326432
N  N175  1  0.14428000  0.14766000  0.88276000  1.0 -0.2162817774
N  N176  1  0.36724000  0.10234000  0.10572000  1.0 -0.2162817774
N  N177  1  0.14428000  0.88276000  0.82530000  1.0 -0.2162817774
N  N178  1  0.36724000  0.10572000  0.42470000  1.0 -0.2162817774
N  N179  1  0.42470000  0.10234000  0.36724000  1.0 -0.2162817774
N  N180  1  0.82530000  0.14766000  0.14428000  1.0 -0.2162817774
N  N181  1  0.14428000  0.82530000  0.14766000  1.0 -0.2162817774
N  N182  1  0.36724000  0.42470000  0.10234000  1.0 -0.2162817774
N  N183  1  0.14766000  0.14428000  0.82530000  1.0 -0.2162817774
N  N184  1  0.10234000  0.36724000  0.42470000  1.0 -0.2132326432
N  N185  1  0.10234000  0.10572000  0.36724000  1.0 -0.2162817774
N  N186  1  0.10572000  0.42470000  0.36724000  1.0 -0.2162817774
N  N187  1  0.88276000  0.82530000  0.14428000  1.0 -0.2162817774
N  N188  1  0.14766000  0.88276000  0.14428000  1.0 -0.2162817774
N  N189  1  0.10572000  0.36724000  0.10234000  1.0 -0.2132326432
N  N190  1  0.88276000  0.14428000  0.14766000  1.0 -0.2132326432
N  N191  1  0.42470000  0.10572000  0.10234000  1.0 -0.2132326432
N  N192  1  0.10572000  0.10234000  0.42470000  1.0 -0.2162817774
N  N193  1  0.67872000  0.21420000  0.70948000  1.0 -0.4210093079
N  N194  1  0.57128000  0.03580000  0.85240000  1.0 -0.4210093079
N  N195  1  0.03580000  0.85240000  0.57128000  1.0 -0.4210093079
N  N196  1  0.85240000  0.57128000  0.03580000  1.0 -0.4210093079
N  N197  1  0.03580000  0.54052000  0.85240000  1.0 -0.4210093079
N  N198  1  0.21420000  0.39760000  0.70948000  1.0 -0.4210093079
N  N199  1  0.54052000  0.57128000  0.85240000  1.0 -0.4210093079
N  N200  1  0.39760000  0.67872000  0.70948000  1.0 -0.4210093079
N  N201  1  0.54052000  0.85240000  0.03580000  1.0 -0.4210093079
N  N202  1  0.39760000  0.70948000  0.21420000  1.0 -0.4210093079
N  N203  1  0.21420000  0.67872000  0.39760000  1.0 -0.4210093079
N  N204  1  0.03580000  0.57128000  0.54052000  1.0 -0.4210093079
N  N205  1  0.54052000  0.03580000  0.57128000  1.0 -0.4210093079
N  N206  1  0.39760000  0.21420000  0.67872000  1.0 -0.4210093079
N  N207  1  0.57128000  0.54052000  0.03580000  1.0 -0.4210093079
N  N208  1  0.67872000  0.39760000  0.21420000  1.0 -0.4210093079
N  N209  1  0.67872000  0.70948000  0.39760000  1.0 -0.4210093079
N  N210  1  0.70948000  0.21420000  0.39760000  1.0 -0.4210093079
N  N211  1  0.85240000  0.03580000  0.54052000  1.0 -0.4210093079
N  N212  1  0.57128000  0.85240000  0.54052000  1.0 -0.4210093079
N  N213  1  0.70948000  0.39760000  0.67872000  1.0 -0.4210093079
N  N214  1  0.85240000  0.54052000  0.57128000  1.0 -0.4210093079
N  N215  1  0.21420000  0.70948000  0.67872000  1.0 -0.4210093079
N  N216  1  0.70948000  0.67872000  0.21420000  1.0 -0.4210093079
N  N217  1  0.07128000  0.53580000  0.04052000  1.0 -0.4210093079
N  N218  1  0.17872000  0.71420000  0.89760000  1.0 -0.4210093079
N  N219  1  0.71420000  0.89760000  0.17872000  1.0 -0.4210093079
N  N220  1  0.89760000  0.17872000  0.71420000  1.0 -0.4210093079
N  N221  1  0.71420000  0.20948000  0.89760000  1.0 -0.4210093079
N  N222  1  0.53580000  0.35240000  0.04052000  1.0 -0.4210093079
N  N223  1  0.20948000  0.17872000  0.89760000  1.0 -0.4210093079
N  N224  1  0.35240000  0.07128000  0.04052000  1.0 -0.4210093079
N  N225  1  0.20948000  0.89760000  0.71420000  1.0 -0.4210093079
N  N226  1  0.35240000  0.04052000  0.53580000  1.0 -0.4210093079
N  N227  1  0.53580000  0.07128000  0.35240000  1.0 -0.4210093079
N  N228  1  0.71420000  0.17872000  0.20948000  1.0 -0.4210093079
N  N229  1  0.20948000  0.71420000  0.17872000  1.0 -0.4210093079
N  N230  1  0.35240000  0.53580000  0.07128000  1.0 -0.4210093079
N  N231  1  0.17872000  0.20948000  0.71420000  1.0 -0.4210093079
N  N232  1  0.07128000  0.35240000  0.53580000  1.0 -0.4210093079
N  N233  1  0.07128000  0.04052000  0.35240000  1.0 -0.4210093079
N  N234  1  0.04052000  0.53580000  0.35240000  1.0 -0.4210093079
N  N235  1  0.89760000  0.71420000  0.20948000  1.0 -0.4210093079
N  N236  1  0.17872000  0.89760000  0.20948000  1.0 -0.4210093079
N  N237  1  0.04052000  0.35240000  0.07128000  1.0 -0.4210093079
N  N238  1  0.89760000  0.20948000  0.17872000  1.0 -0.4210093079
N  N239  1  0.53580000  0.04052000  0.07128000  1.0 -0.4210093079
N  N240  1  0.04052000  0.07128000  0.53580000  1.0 -0.4210093079
N  N241  1  0.72487000  0.21889000  0.66679000  1.0 -0.4210093079
N  N242  1  0.52513000  0.03111000  0.86055000  1.0 -0.4210093079
N  N243  1  0.03111000  0.86055000  0.52513000  1.0 -0.4210093079
N  N244  1  0.86055000  0.52513000  0.03111000  1.0 -0.4210093079
N  N245  1  0.03111000  0.58321000  0.86055000  1.0 -0.4210093079
N  N246  1  0.21889000  0.38945000  0.66679000  1.0 -0.4210093079
N  N247  1  0.58321000  0.52513000  0.86055000  1.0 -0.4210093079
N  N248  1  0.38945000  0.72487000  0.66679000  1.0 -0.4210093079
N  N249  1  0.58321000  0.86055000  0.03111000  1.0 -0.4210093079
N  N250  1  0.38945000  0.66679000  0.21889000  1.0 -0.4210093079
N  N251  1  0.21889000  0.72487000  0.38945000  1.0 -0.4210093079
N  N252  1  0.03111000  0.52513000  0.58321000  1.0 -0.4210093079
N  N253  1  0.58321000  0.03111000  0.52513000  1.0 -0.4210093079
N  N254  1  0.38945000  0.21889000  0.72487000  1.0 -0.4210093079
N  N255  1  0.52513000  0.58321000  0.03111000  1.0 -0.4210093079
N  N256  1  0.72487000  0.38945000  0.21889000  1.0 -0.4210093079
N  N257  1  0.72487000  0.66679000  0.38945000  1.0 -0.4210093079
N  N258  1  0.66679000  0.21889000  0.38945000  1.0 -0.4210093079
N  N259  1  0.86055000  0.03111000  0.58321000  1.0 -0.4210093079
N  N260  1  0.52513000  0.86055000  0.58321000  1.0 -0.4210093079
N  N261  1  0.66679000  0.38945000  0.72487000  1.0 -0.4210093079
N  N262  1  0.86055000  0.58321000  0.52513000  1.0 -0.4254613593
N  N263  1  0.21889000  0.66679000  0.72487000  1.0 -0.4210093079
N  N264  1  0.66679000  0.72487000  0.21889000  1.0 -0.4210093079
N  N265  1  0.02513000  0.53111000  0.08321000  1.0 -0.4210093079
N  N266  1  0.22487000  0.71889000  0.88945000  1.0 -0.4210093079
N  N267  1  0.71889000  0.88945000  0.22487000  1.0 -0.4210093079
N  N268  1  0.88945000  0.22487000  0.71889000  1.0 -0.4210093079
N  N269  1  0.71889000  0.16679000  0.88945000  1.0 -0.4254613593
N  N270  1  0.53111000  0.36055000  0.08321000  1.0 -0.4254613593
N  N271  1  0.16679000  0.22487000  0.88945000  1.0 -0.4210093079
N  N272  1  0.36055000  0.02513000  0.08321000  1.0 -0.4210093079
N  N273  1  0.16679000  0.88945000  0.71889000  1.0 -0.4210093079
N  N274  1  0.36055000  0.08321000  0.53111000  1.0 -0.4210093079
N  N275  1  0.53111000  0.02513000  0.36055000  1.0 -0.4210093079
N  N276  1  0.71889000  0.22487000  0.16679000  1.0 -0.4210093079
N  N277  1  0.16679000  0.71889000  0.22487000  1.0 -0.4210093079
N  N278  1  0.36055000  0.53111000  0.02513000  1.0 -0.4254613593
N  N279  1  0.22487000  0.16679000  0.71889000  1.0 -0.4210093079
N  N280  1  0.02513000  0.36055000  0.53111000  1.0 -0.4210093079
N  N281  1  0.02513000  0.08321000  0.36055000  1.0 -0.4210093079
N  N282  1  0.08321000  0.53111000  0.36055000  1.0 -0.4210093079
N  N283  1  0.88945000  0.71889000  0.16679000  1.0 -0.4210093079
N  N284  1  0.22487000  0.88945000  0.16679000  1.0 -0.4210093079
N  N285  1  0.08321000  0.36055000  0.02513000  1.0 -0.4210093079
N  N286  1  0.88945000  0.16679000  0.22487000  1.0 -0.4210093079
N  N287  1  0.53111000  0.08321000  0.02513000  1.0 -0.4210093079
N  N288  1  0.08321000  0.02513000  0.53111000  1.0 -0.4210093079
N  N289  1  0.72526000  0.17152000  0.70852000  1.0 -0.4210093079
N  N290  1  0.52474000  0.07848000  0.85530000  1.0 -0.4210093079
N  N291  1  0.07848000  0.85530000  0.52474000  1.0 -0.4210093079
N  N292  1  0.85530000  0.52474000  0.07848000  1.0 -0.4210093079
N  N293  1  0.07848000  0.54148000  0.85530000  1.0 -0.4210093079
N  N294  1  0.17152000  0.39470000  0.70852000  1.0 -0.4210093079
N  N295  1  0.54148000  0.52474000  0.85530000  1.0 -0.4210093079
N  N296  1  0.39470000  0.72526000  0.70852000  1.0 -0.4210093079
N  N297  1  0.54148000  0.85530000  0.07848000  1.0 -0.4210093079
N  N298  1  0.39470000  0.70852000  0.17152000  1.0 -0.4210093079
N  N299  1  0.17152000  0.72526000  0.39470000  1.0 -0.4210093079
N  N300  1  0.07848000  0.52474000  0.54148000  1.0 -0.4210093079
N  N301  1  0.54148000  0.07848000  0.52474000  1.0 -0.4210093079
N  N302  1  0.39470000  0.17152000  0.72526000  1.0 -0.4210093079
N  N303  1  0.52474000  0.54148000  0.07848000  1.0 -0.4210093079
N  N304  1  0.72526000  0.39470000  0.17152000  1.0 -0.4210093079
N  N305  1  0.72526000  0.70852000  0.39470000  1.0 -0.4210093079
N  N306  1  0.70852000  0.17152000  0.39470000  1.0 -0.4210093079
N  N307  1  0.85530000  0.07848000  0.54148000  1.0 -0.4210093079
N  N308  1  0.52474000  0.85530000  0.54148000  1.0 -0.4210093079
N  N309  1  0.70852000  0.39470000  0.72526000  1.0 -0.4210093079
N  N310  1  0.85530000  0.54148000  0.52474000  1.0 -0.4210093079
N  N311  1  0.17152000  0.70852000  0.72526000  1.0 -0.4210093079
N  N312  1  0.70852000  0.72526000  0.17152000  1.0 -0.4210093079
N  N313  1  0.02474000  0.57848000  0.04148000  1.0 -0.4210093079
N  N314  1  0.22526000  0.67152000  0.89470000  1.0 -0.4210093079
N  N315  1  0.67152000  0.89470000  0.22526000  1.0 -0.4210093079
N  N316  1  0.89470000  0.22526000  0.67152000  1.0 -0.4210093079
N  N317  1  0.67152000  0.20852000  0.89470000  1.0 -0.4210093079
N  N318  1  0.57848000  0.35530000  0.04148000  1.0 -0.4210093079
N  N319  1  0.20852000  0.22526000  0.89470000  1.0 -0.4210093079
N  N320  1  0.35530000  0.02474000  0.04148000  1.0 -0.4210093079
N  N321  1  0.20852000  0.89470000  0.67152000  1.0 -0.4210093079
N  N322  1  0.35530000  0.04148000  0.57848000  1.0 -0.4210093079
N  N323  1  0.57848000  0.02474000  0.35530000  1.0 -0.4210093079
N  N324  1  0.67152000  0.22526000  0.20852000  1.0 -0.4210093079
N  N325  1  0.20852000  0.67152000  0.22526000  1.0 -0.4210093079
N  N326  1  0.35530000  0.57848000  0.02474000  1.0 -0.4210093079
N  N327  1  0.22526000  0.20852000  0.67152000  1.0 -0.4210093079
N  N328  1  0.02474000  0.35530000  0.57848000  1.0 -0.4210093079
N  N329  1  0.02474000  0.04148000  0.35530000  1.0 -0.4210093079
N  N330  1  0.04148000  0.57848000  0.35530000  1.0 -0.4210093079
N  N331  1  0.89470000  0.67152000  0.20852000  1.0 -0.4210093079
N  N332  1  0.22526000  0.89470000  0.20852000  1.0 -0.4210093079
N  N333  1  0.04148000  0.35530000  0.02474000  1.0 -0.4210093079
N  N334  1  0.89470000  0.20852000  0.22526000  1.0 -0.4210093079
N  N335  1  0.57848000  0.04148000  0.02474000  1.0 -0.4210093079
N  N336  1  0.04148000  0.02474000  0.57848000  1.0 -0.4210093079
N  N337  1  0.64890000  0.14026000  0.81468000  1.0 -0.2132326432
N  N338  1  0.60110000  0.10974000  0.85384000  1.0 -0.2162817774
N  N339  1  0.10974000  0.85384000  0.60110000  1.0 -0.2132326432
N  N340  1  0.85384000  0.60110000  0.10974000  1.0 -0.2132326432
N  N341  1  0.10974000  0.43532000  0.85384000  1.0 -0.2132326432
N  N342  1  0.14026000  0.39616000  0.81468000  1.0 -0.2162817774
N  N343  1  0.43532000  0.60110000  0.85384000  1.0 -0.2132326432
N  N344  1  0.39616000  0.64890000  0.81468000  1.0 -0.2162817774
N  N345  1  0.43532000  0.85384000  0.10974000  1.0 -0.2132326432
N  N346  1  0.39616000  0.81468000  0.14026000  1.0 -0.2132326432
N  N347  1  0.14026000  0.64890000  0.39616000  1.0 -0.2132326432
N  N348  1  0.10974000  0.60110000  0.43532000  1.0 -0.2132326432
N  N349  1  0.43532000  0.10974000  0.60110000  1.0 -0.2162817774
N  N350  1  0.39616000  0.14026000  0.64890000  1.0 -0.2132326432
N  N351  1  0.60110000  0.43532000  0.10974000  1.0 -0.2132326432
N  N352  1  0.64890000  0.39616000  0.14026000  1.0 -0.2132326432
N  N353  1  0.64890000  0.81468000  0.39616000  1.0 -0.2132326432
N  N354  1  0.81468000  0.14026000  0.39616000  1.0 -0.2162817774
N  N355  1  0.85384000  0.10974000  0.43532000  1.0 -0.2162817774
N  N356  1  0.60110000  0.85384000  0.43532000  1.0 -0.2132326432
N  N357  1  0.81468000  0.39616000  0.64890000  1.0 -0.2132326432
N  N358  1  0.85384000  0.43532000  0.60110000  1.0 -0.2132326432
N  N359  1  0.14026000  0.81468000  0.64890000  1.0 -0.2132326432
N  N360  1  0.81468000  0.64890000  0.14026000  1.0 -0.2132326432
N  N361  1  0.10110000  0.60974000  0.93532000  1.0 -0.2132326432
N  N362  1  0.14890000  0.64026000  0.89616000  1.0 -0.2132326432
N  N363  1  0.64026000  0.89616000  0.14890000  1.0 -0.2132326432
N  N364  1  0.89616000  0.14890000  0.64026000  1.0 -0.2132326432
N  N365  1  0.64026000  0.31468000  0.89616000  1.0 -0.2132326432
N  N366  1  0.60974000  0.35384000  0.93532000  1.0 -0.2132326432
N  N367  1  0.31468000  0.14890000  0.89616000  1.0 -0.2162817774
N  N368  1  0.35384000  0.10110000  0.93532000  1.0 -0.2162817774
N  N369  1  0.31468000  0.89616000  0.64026000  1.0 -0.2132326432
N  N370  1  0.35384000  0.93532000  0.60974000  1.0 -0.2132326432
N  N371  1  0.60974000  0.10110000  0.35384000  1.0 -0.2162817774
N  N372  1  0.64026000  0.14890000  0.31468000  1.0 -0.2162817774
N  N373  1  0.31468000  0.64026000  0.14890000  1.0 -0.2132326432
N  N374  1  0.35384000  0.60974000  0.10110000  1.0 -0.2132326432
N  N375  1  0.14890000  0.31468000  0.64026000  1.0 -0.2132326432
N  N376  1  0.10110000  0.35384000  0.60974000  1.0 -0.2132326432
N  N377  1  0.10110000  0.93532000  0.35384000  1.0 -0.2132326432
N  N378  1  0.93532000  0.60974000  0.35384000  1.0 -0.2132326432
N  N379  1  0.89616000  0.64026000  0.31468000  1.0 -0.2162817774
N  N380  1  0.14890000  0.89616000  0.31468000  1.0 -0.2132326432
N  N381  1  0.93532000  0.35384000  0.10110000  1.0 -0.2132326432
N  N382  1  0.89616000  0.31468000  0.14890000  1.0 -0.2132326432
N  N383  1  0.60974000  0.93532000  0.10110000  1.0 -0.2162817774
N  N384  1  0.93532000  0.10110000  0.60974000  1.0 -0.2162817774
N  N385  1  0.83571000  0.14815000  0.64087000  1.0 -0.2162817774
N  N386  1  0.41429000  0.10185000  0.87473000  1.0 -0.2162817774
N  N387  1  0.10185000  0.87473000  0.41429000  1.0 -0.2162817774
N  N388  1  0.87473000  0.41429000  0.10185000  1.0 -0.2162817774
N  N389  1  0.10185000  0.60913000  0.87473000  1.0 -0.2162817774
N  N390  1  0.14815000  0.37527000  0.64087000  1.0 -0.2162817774
N  N391  1  0.60913000  0.41429000  0.87473000  1.0 -0.2162817774
N  N392  1  0.37527000  0.83571000  0.64087000  1.0 -0.2132326432
N  N393  1  0.60913000  0.87473000  0.10185000  1.0 -0.2162817774
N  N394  1  0.37527000  0.64087000  0.14815000  1.0 -0.2162817774
N  N395  1  0.14815000  0.83571000  0.37527000  1.0 -0.2132326432
N  N396  1  0.10185000  0.41429000  0.60913000  1.0 -0.2162817774
N  N397  1  0.60913000  0.10185000  0.41429000  1.0 -0.2162817774
N  N398  1  0.37527000  0.14815000  0.83571000  1.0 -0.2162817774
N  N399  1  0.41429000  0.60913000  0.10185000  1.0 -0.2162817774
N  N400  1  0.83571000  0.37527000  0.14815000  1.0 -0.2132326432
N  N401  1  0.83571000  0.64087000  0.37527000  1.0 -0.2162817774
N  N402  1  0.64087000  0.14815000  0.37527000  1.0 -0.2162817774
N  N403  1  0.87473000  0.10185000  0.60913000  1.0 -0.2162817774
N  N404  1  0.41429000  0.87473000  0.60913000  1.0 -0.2162817774
N  N405  1  0.64087000  0.37527000  0.83571000  1.0 -0.2162817774
N  N406  1  0.87473000  0.60913000  0.41429000  1.0 -0.2162817774
N  N407  1  0.14815000  0.64087000  0.83571000  1.0 -0.2132326432
N  N408  1  0.64087000  0.83571000  0.14815000  1.0 -0.2162817774
N  N409  1  0.91429000  0.60185000  0.10913000  1.0 -0.2162817774
N  N410  1  0.33571000  0.64815000  0.87527000  1.0 -0.2132326432
N  N411  1  0.64815000  0.87527000  0.33571000  1.0 -0.2162817774
N  N412  1  0.87527000  0.33571000  0.64815000  1.0 -0.2162817774
N  N413  1  0.64815000  0.14087000  0.87527000  1.0 -0.2132326432
N  N414  1  0.60185000  0.37473000  0.10913000  1.0 -0.2162817774
N  N415  1  0.14087000  0.33571000  0.87527000  1.0 -0.2162817774
N  N416  1  0.37473000  0.91429000  0.10913000  1.0 -0.2162817774
N  N417  1  0.14087000  0.87527000  0.64815000  1.0 -0.2162817774
N  N418  1  0.37473000  0.10913000  0.60185000  1.0 -0.2162817774
N  N419  1  0.60185000  0.91429000  0.37473000  1.0 -0.2162817774
N  N420  1  0.64815000  0.33571000  0.14087000  1.0 -0.2162817774
N  N421  1  0.14087000  0.64815000  0.33571000  1.0 -0.2162817774
N  N422  1  0.37473000  0.60185000  0.91429000  1.0 -0.2162817774
N  N423  1  0.33571000  0.14087000  0.64815000  1.0 -0.2162817774
N  N424  1  0.91429000  0.37473000  0.60185000  1.0 -0.2162817774
N  N425  1  0.91429000  0.10913000  0.37473000  1.0 -0.2162817774
N  N426  1  0.10913000  0.60185000  0.37473000  1.0 -0.2162817774
N  N427  1  0.87527000  0.64815000  0.14087000  1.0 -0.2162817774
N  N428  1  0.33571000  0.87527000  0.14087000  1.0 -0.2162817774
N  N429  1  0.10913000  0.37473000  0.91429000  1.0 -0.2162817774
N  N430  1  0.87527000  0.14087000  0.33571000  1.0 -0.2162817774
N  N431  1  0.60185000  0.10913000  0.91429000  1.0 -0.2162817774
N  N432  1  0.10913000  0.91429000  0.60185000  1.0 -0.2162817774
N  N433  1  0.58968000  0.16728000  0.86148000  1.0 -0.4764434389
N  N434  1  0.66032000  0.08272000  0.86844000  1.0 -0.4764434389
N  N435  1  0.08272000  0.86844000  0.66032000  1.0 -0.4764434389
N  N436  1  0.86844000  0.66032000  0.08272000  1.0 -0.4764434389
N  N437  1  0.08272000  0.38852000  0.86844000  1.0 -0.4764434389
N  N438  1  0.16728000  0.38156000  0.86148000  1.0 -0.4764434389
N  N439  1  0.38852000  0.66032000  0.86844000  1.0 -0.4764434389
N  N440  1  0.38156000  0.58968000  0.86148000  1.0 -0.4764434389
N  N441  1  0.38852000  0.86844000  0.08272000  1.0 -0.4764434389
N  N442  1  0.38156000  0.86148000  0.16728000  1.0 -0.4764434389
N  N443  1  0.16728000  0.58968000  0.38156000  1.0 -0.4764434389
N  N444  1  0.08272000  0.66032000  0.38852000  1.0 -0.4764434389
N  N445  1  0.38852000  0.08272000  0.66032000  1.0 -0.4764434389
N  N446  1  0.38156000  0.16728000  0.58968000  1.0 -0.4764434389
N  N447  1  0.66032000  0.38852000  0.08272000  1.0 -0.4764434389
N  N448  1  0.58968000  0.38156000  0.16728000  1.0 -0.4764434389
N  N449  1  0.58968000  0.86148000  0.38156000  1.0 -0.4764434389
N  N450  1  0.86148000  0.16728000  0.38156000  1.0 -0.4764434389
N  N451  1  0.86844000  0.08272000  0.38852000  1.0 -0.4764434389
N  N452  1  0.66032000  0.86844000  0.38852000  1.0 -0.4764434389
N  N453  1  0.86148000  0.38156000  0.58968000  1.0 -0.4764434389
N  N454  1  0.86844000  0.38852000  0.66032000  1.0 -0.4764434389
N  N455  1  0.16728000  0.86148000  0.58968000  1.0 -0.4764434389
N  N456  1  0.86148000  0.58968000  0.16728000  1.0 -0.4764434389
N  N457  1  0.16032000  0.58272000  0.88852000  1.0 -0.4764434389
N  N458  1  0.08968000  0.66728000  0.88156000  1.0 -0.4764434389
N  N459  1  0.66728000  0.88156000  0.08968000  1.0 -0.4764434389
N  N460  1  0.88156000  0.08968000  0.66728000  1.0 -0.4764434389
N  N461  1  0.66728000  0.36148000  0.88156000  1.0 -0.4746622219
N  N462  1  0.58272000  0.36844000  0.88852000  1.0 -0.4764434389
N  N463  1  0.36148000  0.08968000  0.88156000  1.0 -0.4764434389
N  N464  1  0.36844000  0.16032000  0.88852000  1.0 -0.4764434389
N  N465  1  0.36148000  0.88156000  0.66728000  1.0 -0.4764434389
N  N466  1  0.36844000  0.88852000  0.58272000  1.0 -0.4764434389
N  N467  1  0.58272000  0.16032000  0.36844000  1.0 -0.4764434389
N  N468  1  0.66728000  0.08968000  0.36148000  1.0 -0.4764434389
N  N469  1  0.36148000  0.66728000  0.08968000  1.0 -0.4764434389
N  N470  1  0.36844000  0.58272000  0.16032000  1.0 -0.4764434389
N  N471  1  0.08968000  0.36148000  0.66728000  1.0 -0.4764434389
N  N472  1  0.16032000  0.36844000  0.58272000  1.0 -0.4764434389
N  N473  1  0.16032000  0.88852000  0.36844000  1.0 -0.4764434389
N  N474  1  0.88852000  0.58272000  0.36844000  1.0 -0.4764434389
N  N475  1  0.88156000  0.66728000  0.36148000  1.0 -0.4764434389
N  N476  1  0.08968000  0.88156000  0.36148000  1.0 -0.4764434389
N  N477  1  0.88852000  0.36844000  0.16032000  1.0 -0.4764434389
N  N478  1  0.88156000  0.36148000  0.08968000  1.0 -0.4764434389
N  N479  1  0.58272000  0.88852000  0.16032000  1.0 -0.4764434389
N  N480  1  0.88852000  0.16032000  0.58272000  1.0 -0.4764434389
