# DDEC6 charges by PACMAN v1.1 (https://github.com/mtap-research/PACMAN-charge/)
data_PUZMAZ_ASR_pacman
_symmetry_space_group_name_H-M   'P 1'
_cell_length_a   53.01320000
_cell_length_b   53.01320000
_cell_length_c   53.01320000
_cell_angle_alpha   60.00000000
_cell_angle_beta   60.00000000
_cell_angle_gamma   60.00000000
_symmetry_Int_Tables_number   1
_chemical_formula_structural   CoH16C26(SN5)2
_chemical_formula_sum   'Co48 H768 C1248 S96 N480'
_cell_volume   105350.61186689
_cell_formula_units_Z   48
loop_
 _symmetry_equiv_pos_site_id
 _symmetry_equiv_pos_as_xyz
  1  'x, y, z'
loop_
 _atom_site_type_symbol
 _atom_site_label
 _atom_site_symmetry_multiplicity
 _atom_site_fract_x
 _atom_site_fract_y
 _atom_site_fract_z
 _atom_site_occupancy
 _atom_site_charge
Co  Co1  1  0.75040000  0.49960000  0.75040000  1.0 0.6384708688
Co  Co2  1  0.49960000  0.75040000  0.49960000  1.0 0.6347745291
Co  Co3  1  0.75040000  0.75040000  0.49960000  1.0 0.6384708688
Co  Co4  1  0.49960000  0.49960000  0.75040000  1.0 0.6384708688
Co  Co5  1  0.49960000  0.75040000  0.75040000  1.0 0.6384708688
Co  Co6  1  0.75040000  0.49960000  0.49960000  1.0 0.6384708688
Co  Co7  1  0.74960000  0.00040000  0.00040000  1.0 0.6384708688
Co  Co8  1  0.00040000  0.74960000  0.74960000  1.0 0.6347745291
Co  Co9  1  0.74960000  0.74960000  0.00040000  1.0 0.6384708688
Co  Co10  1  0.00040000  0.00040000  0.74960000  1.0 0.6347745291
Co  Co11  1  0.00040000  0.74960000  0.00040000  1.0 0.6384708688
Co  Co12  1  0.74960000  0.00040000  0.74960000  1.0 0.6384708688
Co  Co13  1  0.24960000  0.50040000  0.24960000  1.0 0.6384708688
Co  Co14  1  0.50040000  0.24960000  0.50040000  1.0 0.6384708688
Co  Co15  1  0.24960000  0.24960000  0.50040000  1.0 0.6347745291
Co  Co16  1  0.50040000  0.50040000  0.24960000  1.0 0.6384708688
Co  Co17  1  0.50040000  0.24960000  0.24960000  1.0 0.6347745291
Co  Co18  1  0.24960000  0.50040000  0.50040000  1.0 0.6347745291
Co  Co19  1  0.25040000  0.99960000  0.99960000  1.0 0.6347745291
Co  Co20  1  0.99960000  0.25040000  0.25040000  1.0 0.6384708688
Co  Co21  1  0.25040000  0.25040000  0.99960000  1.0 0.6347745291
Co  Co22  1  0.99960000  0.99960000  0.25040000  1.0 0.6384708688
Co  Co23  1  0.99960000  0.25040000  0.99960000  1.0 0.6384708688
Co  Co24  1  0.25040000  0.99960000  0.25040000  1.0 0.6347745291
Co  Co25  1  0.75000000  0.25000000  0.98924000  1.0 0.6384708688
Co  Co26  1  0.25000000  0.75000000  0.51076000  1.0 0.6384708688
Co  Co27  1  0.98924000  0.51076000  0.75000000  1.0 0.6384708688
Co  Co28  1  0.51076000  0.98924000  0.25000000  1.0 0.6384708688
Co  Co29  1  0.98924000  0.75000000  0.25000000  1.0 0.6384708688
Co  Co30  1  0.51076000  0.25000000  0.75000000  1.0 0.6384708688
Co  Co31  1  0.75000000  0.98924000  0.51076000  1.0 0.6384708688
Co  Co32  1  0.25000000  0.51076000  0.98924000  1.0 0.6384708688
Co  Co33  1  0.25000000  0.98924000  0.75000000  1.0 0.6384708688
Co  Co34  1  0.75000000  0.51076000  0.25000000  1.0 0.6384708688
Co  Co35  1  0.51076000  0.75000000  0.98924000  1.0 0.6384708688
Co  Co36  1  0.98924000  0.25000000  0.51076000  1.0 0.6384708688
Co  Co37  1  0.25000000  0.75000000  0.01076000  1.0 0.6384708688
Co  Co38  1  0.75000000  0.25000000  0.48924000  1.0 0.6384708688
Co  Co39  1  0.01076000  0.48924000  0.25000000  1.0 0.6384708688
Co  Co40  1  0.48924000  0.01076000  0.75000000  1.0 0.6384708688
Co  Co41  1  0.01076000  0.25000000  0.75000000  1.0 0.6384708688
Co  Co42  1  0.48924000  0.75000000  0.25000000  1.0 0.6384708688
Co  Co43  1  0.25000000  0.01076000  0.48924000  1.0 0.6384708688
Co  Co44  1  0.75000000  0.48924000  0.01076000  1.0 0.6384708688
Co  Co45  1  0.75000000  0.01076000  0.25000000  1.0 0.6384708688
Co  Co46  1  0.25000000  0.48924000  0.75000000  1.0 0.6384708688
Co  Co47  1  0.48924000  0.25000000  0.01076000  1.0 0.6384708688
Co  Co48  1  0.01076000  0.75000000  0.48924000  1.0 0.6384708688
H  H1  1  0.76810000  0.47930000  0.69570000  1.0 0.0994340972
H  H2  1  0.74580000  0.47500000  0.67080000  1.0 0.1314017923
H  H3  1  0.66360000  0.49840000  0.73540000  1.0 0.1314017923
H  H4  1  0.68800000  0.50480000  0.75700000  1.0 0.0994340972
H  H5  1  0.80190000  0.44430000  0.72930000  1.0 0.0994340972
H  H6  1  0.82840000  0.39240000  0.74820000  1.0 0.1314017923
H  H7  1  0.77060000  0.39420000  0.83460000  1.0 0.1314017923
H  H8  1  0.74810000  0.44650000  0.81330000  1.0 0.0994340972
H  H9  1  0.73640000  0.29860000  0.93020000  1.0 0.0994340972
H  H10  1  0.76060000  0.32240000  0.87860000  1.0 0.1314017923
H  H11  1  0.84180000  0.25640000  0.88780000  1.0 0.1314017923
H  H12  1  0.81540000  0.23440000  0.93880000  1.0 0.0994340972
H  H13  1  0.95160000  0.23440000  0.79420000  1.0 0.0994340972
H  H14  1  0.89950000  0.25550000  0.81730000  1.0 0.1314017923
H  H15  1  0.90680000  0.34020000  0.75960000  1.0 0.1314017923
H  H16  1  0.95950000  0.31630000  0.74010000  1.0 0.0994340972
H  H17  1  0.47930000  0.76810000  0.55690000  1.0 0.0994340972
H  H18  1  0.47500000  0.74580000  0.60840000  1.0 0.1314017923
H  H19  1  0.49840000  0.66360000  0.60260000  1.0 0.1314017923
H  H20  1  0.50480000  0.68800000  0.55020000  1.0 0.0994340972
H  H21  1  0.44430000  0.80190000  0.52450000  1.0 0.0994340972
H  H22  1  0.39240000  0.82840000  0.53100000  1.0 0.1314017923
H  H23  1  0.39420000  0.77060000  0.50060000  1.0 0.1314017923
H  H24  1  0.44650000  0.74810000  0.49210000  1.0 0.0994340972
H  H25  1  0.29860000  0.73640000  0.53480000  1.0 0.0994340972
H  H26  1  0.32240000  0.76060000  0.53840000  1.0 0.1314017923
H  H27  1  0.25640000  0.84180000  0.51400000  1.0 0.1314017923
H  H28  1  0.23440000  0.81540000  0.51140000  1.0 0.0994340972
H  H29  1  0.23440000  0.95160000  0.51980000  1.0 0.0994340972
H  H30  1  0.25550000  0.89950000  0.52770000  1.0 0.1314017923
H  H31  1  0.34020000  0.90680000  0.49340000  1.0 0.1314017923
H  H32  1  0.31630000  0.95950000  0.48410000  1.0 0.0994340972
H  H33  1  0.69570000  0.55690000  0.76810000  1.0 0.0994340972
H  H34  1  0.67080000  0.60840000  0.74580000  1.0 0.1314017923
H  H35  1  0.73540000  0.60260000  0.66360000  1.0 0.1314017923
H  H36  1  0.75700000  0.55020000  0.68800000  1.0 0.0994340972
H  H37  1  0.72930000  0.52450000  0.80190000  1.0 0.0994340972
H  H38  1  0.74820000  0.53100000  0.82840000  1.0 0.1314017923
H  H39  1  0.83460000  0.50060000  0.77060000  1.0 0.1314017923
H  H40  1  0.81330000  0.49210000  0.74810000  1.0 0.0994340972
H  H41  1  0.93020000  0.53480000  0.73640000  1.0 0.0994340972
H  H42  1  0.87860000  0.53840000  0.76060000  1.0 0.1314017923
H  H43  1  0.88780000  0.51400000  0.84180000  1.0 0.1314017923
H  H44  1  0.93880000  0.51140000  0.81540000  1.0 0.0994340972
H  H45  1  0.79420000  0.51980000  0.95160000  1.0 0.0994340972
H  H46  1  0.81730000  0.52770000  0.89950000  1.0 0.1314017923
H  H47  1  0.75960000  0.49340000  0.90680000  1.0 0.1314017923
H  H48  1  0.74010000  0.48410000  0.95950000  1.0 0.0994340972
H  H49  1  0.55690000  0.69570000  0.47930000  1.0 0.0994340972
H  H50  1  0.60840000  0.67080000  0.47500000  1.0 0.1314017923
H  H51  1  0.60260000  0.73540000  0.49840000  1.0 0.1314017923
H  H52  1  0.55020000  0.75700000  0.50480000  1.0 0.0994340972
H  H53  1  0.52450000  0.72930000  0.44430000  1.0 0.0994340972
H  H54  1  0.53100000  0.74820000  0.39240000  1.0 0.1314017923
H  H55  1  0.50060000  0.83460000  0.39420000  1.0 0.1314017923
H  H56  1  0.49210000  0.81330000  0.44650000  1.0 0.0994340972
H  H57  1  0.53480000  0.93020000  0.29860000  1.0 0.0994340972
H  H58  1  0.53840000  0.87860000  0.32240000  1.0 0.1314017923
H  H59  1  0.51400000  0.88780000  0.25640000  1.0 0.1314017923
H  H60  1  0.51140000  0.93880000  0.23440000  1.0 0.0994340972
H  H61  1  0.51980000  0.79420000  0.23440000  1.0 0.0994340972
H  H62  1  0.52770000  0.81730000  0.25550000  1.0 0.1314017923
H  H63  1  0.49340000  0.75960000  0.34020000  1.0 0.1314017923
H  H64  1  0.48410000  0.74010000  0.31630000  1.0 0.0994340972
H  H65  1  0.69570000  0.76810000  0.47930000  1.0 0.0994340972
H  H66  1  0.67080000  0.74580000  0.47500000  1.0 0.1314017923
H  H67  1  0.73540000  0.66360000  0.49840000  1.0 0.1314017923
H  H68  1  0.75700000  0.68800000  0.50480000  1.0 0.0994340972
H  H69  1  0.72930000  0.80190000  0.44430000  1.0 0.0994340972
H  H70  1  0.74820000  0.82840000  0.39240000  1.0 0.1314017923
H  H71  1  0.83460000  0.77060000  0.39420000  1.0 0.1314017923
H  H72  1  0.81330000  0.74810000  0.44650000  1.0 0.0994340972
H  H73  1  0.93020000  0.73640000  0.29860000  1.0 0.0994340972
H  H74  1  0.87860000  0.76060000  0.32240000  1.0 0.1314017923
H  H75  1  0.88780000  0.84180000  0.25640000  1.0 0.1314017923
H  H76  1  0.93880000  0.81540000  0.23440000  1.0 0.0994340972
H  H77  1  0.79420000  0.95160000  0.23440000  1.0 0.0994340972
H  H78  1  0.81730000  0.89950000  0.25550000  1.0 0.1314017923
H  H79  1  0.75960000  0.90680000  0.34020000  1.0 0.1314017923
H  H80  1  0.74010000  0.95950000  0.31630000  1.0 0.0994340972
H  H81  1  0.55690000  0.47930000  0.76810000  1.0 0.0994340972
H  H82  1  0.60840000  0.47500000  0.74580000  1.0 0.1314017923
H  H83  1  0.60260000  0.49840000  0.66360000  1.0 0.1314017923
H  H84  1  0.55020000  0.50480000  0.68800000  1.0 0.0994340972
H  H85  1  0.52450000  0.44430000  0.80190000  1.0 0.0994340972
H  H86  1  0.53100000  0.39240000  0.82840000  1.0 0.1314017923
H  H87  1  0.50060000  0.39420000  0.77060000  1.0 0.1314017923
H  H88  1  0.49210000  0.44650000  0.74810000  1.0 0.0994340972
H  H89  1  0.53480000  0.29860000  0.73640000  1.0 0.0994340972
H  H90  1  0.53840000  0.32240000  0.76060000  1.0 0.1314017923
H  H91  1  0.51400000  0.25640000  0.84180000  1.0 0.1314017923
H  H92  1  0.51140000  0.23440000  0.81540000  1.0 0.0994340972
H  H93  1  0.51980000  0.23440000  0.95160000  1.0 0.0994340972
H  H94  1  0.52770000  0.25550000  0.89950000  1.0 0.1314017923
H  H95  1  0.49340000  0.34020000  0.90680000  1.0 0.1314017923
H  H96  1  0.48410000  0.31630000  0.95950000  1.0 0.0994340972
H  H97  1  0.76810000  0.69570000  0.55690000  1.0 0.0994340972
H  H98  1  0.74580000  0.67080000  0.60840000  1.0 0.1314017923
H  H99  1  0.66360000  0.73540000  0.60260000  1.0 0.1314017923
H  H100  1  0.68800000  0.75700000  0.55020000  1.0 0.0994340972
H  H101  1  0.80190000  0.72930000  0.52450000  1.0 0.0994340972
H  H102  1  0.82840000  0.74820000  0.53100000  1.0 0.1314017923
H  H103  1  0.77060000  0.83460000  0.50060000  1.0 0.1314017923
H  H104  1  0.74810000  0.81330000  0.49210000  1.0 0.0994340972
H  H105  1  0.73640000  0.93020000  0.53480000  1.0 0.0994340972
H  H106  1  0.76060000  0.87860000  0.53840000  1.0 0.1314017923
H  H107  1  0.84180000  0.88780000  0.51400000  1.0 0.1314017923
H  H108  1  0.81540000  0.93880000  0.51140000  1.0 0.0994340972
H  H109  1  0.95160000  0.79420000  0.51980000  1.0 0.0994340972
H  H110  1  0.89950000  0.81730000  0.52770000  1.0 0.1314017923
H  H111  1  0.90680000  0.75960000  0.49340000  1.0 0.1314017923
H  H112  1  0.95950000  0.74010000  0.48410000  1.0 0.0994340972
H  H113  1  0.47930000  0.55690000  0.69570000  1.0 0.0994340972
H  H114  1  0.47500000  0.60840000  0.67080000  1.0 0.1314017923
H  H115  1  0.49840000  0.60260000  0.73540000  1.0 0.1314017923
H  H116  1  0.50480000  0.55020000  0.75700000  1.0 0.0994340972
H  H117  1  0.44430000  0.52450000  0.72930000  1.0 0.0994340972
H  H118  1  0.39240000  0.53100000  0.74820000  1.0 0.1314017923
H  H119  1  0.39420000  0.50060000  0.83460000  1.0 0.1314017923
H  H120  1  0.44650000  0.49210000  0.81330000  1.0 0.0994340972
H  H121  1  0.29860000  0.53480000  0.93020000  1.0 0.0994340972
H  H122  1  0.32240000  0.53840000  0.87860000  1.0 0.1314017923
H  H123  1  0.25640000  0.51400000  0.88780000  1.0 0.1314017923
H  H124  1  0.23440000  0.51140000  0.93880000  1.0 0.0994340972
H  H125  1  0.23440000  0.51980000  0.79420000  1.0 0.0994340972
H  H126  1  0.25550000  0.52770000  0.81730000  1.0 0.1314017923
H  H127  1  0.34020000  0.49340000  0.75960000  1.0 0.1314017923
H  H128  1  0.31630000  0.48410000  0.74010000  1.0 0.0994340972
H  H129  1  0.47930000  0.69570000  0.76810000  1.0 0.0994340972
H  H130  1  0.47500000  0.67080000  0.74580000  1.0 0.1314017923
H  H131  1  0.49840000  0.73540000  0.66360000  1.0 0.1314017923
H  H132  1  0.50480000  0.75700000  0.68800000  1.0 0.0994340972
H  H133  1  0.44430000  0.72930000  0.80190000  1.0 0.0994340972
H  H134  1  0.39240000  0.74820000  0.82840000  1.0 0.1314017923
H  H135  1  0.39420000  0.83460000  0.77060000  1.0 0.1314017923
H  H136  1  0.44650000  0.81330000  0.74810000  1.0 0.0994340972
H  H137  1  0.29860000  0.93020000  0.73640000  1.0 0.0994340972
H  H138  1  0.32240000  0.87860000  0.76060000  1.0 0.1314017923
H  H139  1  0.25640000  0.88780000  0.84180000  1.0 0.1314017923
H  H140  1  0.23440000  0.93880000  0.81540000  1.0 0.0994340972
H  H141  1  0.23440000  0.79420000  0.95160000  1.0 0.0994340972
H  H142  1  0.25550000  0.81730000  0.89950000  1.0 0.1314017923
H  H143  1  0.34020000  0.75960000  0.90680000  1.0 0.1314017923
H  H144  1  0.31630000  0.74010000  0.95950000  1.0 0.0994340972
H  H145  1  0.76810000  0.55690000  0.47930000  1.0 0.0994340972
H  H146  1  0.74580000  0.60840000  0.47500000  1.0 0.1314017923
H  H147  1  0.66360000  0.60260000  0.49840000  1.0 0.1314017923
H  H148  1  0.68800000  0.55020000  0.50480000  1.0 0.0994340972
H  H149  1  0.80190000  0.52450000  0.44430000  1.0 0.0994340972
H  H150  1  0.82840000  0.53100000  0.39240000  1.0 0.1314017923
H  H151  1  0.77060000  0.50060000  0.39420000  1.0 0.1314017923
H  H152  1  0.74810000  0.49210000  0.44650000  1.0 0.0994340972
H  H153  1  0.73640000  0.53480000  0.29860000  1.0 0.0994340972
H  H154  1  0.76060000  0.53840000  0.32240000  1.0 0.1314017923
H  H155  1  0.84180000  0.51400000  0.25640000  1.0 0.1314017923
H  H156  1  0.81540000  0.51140000  0.23440000  1.0 0.0994340972
H  H157  1  0.95160000  0.51980000  0.23440000  1.0 0.0994340972
H  H158  1  0.89950000  0.52770000  0.25550000  1.0 0.1314017923
H  H159  1  0.90680000  0.49340000  0.34020000  1.0 0.1314017923
H  H160  1  0.95950000  0.48410000  0.31630000  1.0 0.0994340972
H  H161  1  0.55690000  0.76810000  0.69570000  1.0 0.0994340972
H  H162  1  0.60840000  0.74580000  0.67080000  1.0 0.1314017923
H  H163  1  0.60260000  0.66360000  0.73540000  1.0 0.1314017923
H  H164  1  0.55020000  0.68800000  0.75700000  1.0 0.0994340972
H  H165  1  0.52450000  0.80190000  0.72930000  1.0 0.0994340972
H  H166  1  0.53100000  0.82840000  0.74820000  1.0 0.1314017923
H  H167  1  0.50060000  0.77060000  0.83460000  1.0 0.1314017923
H  H168  1  0.49210000  0.74810000  0.81330000  1.0 0.0994340972
H  H169  1  0.53480000  0.73640000  0.93020000  1.0 0.0994340972
H  H170  1  0.53840000  0.76060000  0.87860000  1.0 0.1314017923
H  H171  1  0.51400000  0.84180000  0.88780000  1.0 0.1314017923
H  H172  1  0.51140000  0.81540000  0.93880000  1.0 0.0994340972
H  H173  1  0.51980000  0.95160000  0.79420000  1.0 0.0994340972
H  H174  1  0.52770000  0.89950000  0.81730000  1.0 0.1314017923
H  H175  1  0.49340000  0.90680000  0.75960000  1.0 0.1314017923
H  H176  1  0.48410000  0.95950000  0.74010000  1.0 0.0994340972
H  H177  1  0.69570000  0.47930000  0.55690000  1.0 0.0994340972
H  H178  1  0.67080000  0.47500000  0.60840000  1.0 0.1314017923
H  H179  1  0.73540000  0.49840000  0.60260000  1.0 0.1314017923
H  H180  1  0.75700000  0.50480000  0.55020000  1.0 0.0994340972
H  H181  1  0.72930000  0.44430000  0.52450000  1.0 0.0994340972
H  H182  1  0.74820000  0.39240000  0.53100000  1.0 0.1314017923
H  H183  1  0.83460000  0.39420000  0.50060000  1.0 0.1314017923
H  H184  1  0.81330000  0.44650000  0.49210000  1.0 0.0994340972
H  H185  1  0.93020000  0.29860000  0.53480000  1.0 0.0994340972
H  H186  1  0.87860000  0.32240000  0.53840000  1.0 0.1314017923
H  H187  1  0.88780000  0.25640000  0.51400000  1.0 0.1314017923
H  H188  1  0.93880000  0.23440000  0.51140000  1.0 0.0994340972
H  H189  1  0.79420000  0.23440000  0.51980000  1.0 0.0994340972
H  H190  1  0.81730000  0.25550000  0.52770000  1.0 0.1314017923
H  H191  1  0.75960000  0.34020000  0.49340000  1.0 0.1314017923
H  H192  1  0.74010000  0.31630000  0.48410000  1.0 0.0994340972
H  H193  1  0.73190000  0.02070000  0.94310000  1.0 0.0994340972
H  H194  1  0.75420000  0.02500000  0.89160000  1.0 0.1314017923
H  H195  1  0.83640000  0.00160000  0.89740000  1.0 0.1314017923
H  H196  1  0.81200000  0.99520000  0.94980000  1.0 0.0994340972
H  H197  1  0.69810000  0.05570000  0.97550000  1.0 0.0994340972
H  H198  1  0.67160000  0.10760000  0.96900000  1.0 0.1314017923
H  H199  1  0.72940000  0.10580000  0.99940000  1.0 0.1314017923
H  H200  1  0.75190000  0.05350000  0.00790000  1.0 0.0994340972
H  H201  1  0.76360000  0.20140000  0.96520000  1.0 0.0994340972
H  H202  1  0.73940000  0.17760000  0.96160000  1.0 0.1314017923
H  H203  1  0.65820000  0.24360000  0.98600000  1.0 0.1314017923
H  H204  1  0.68460000  0.26560000  0.98860000  1.0 0.0994340972
H  H205  1  0.54840000  0.26560000  0.98020000  1.0 0.0994340972
H  H206  1  0.60050000  0.24450000  0.97230000  1.0 0.1314017923
H  H207  1  0.59320000  0.15980000  0.00660000  1.0 0.1314017923
H  H208  1  0.54050000  0.18370000  0.01590000  1.0 0.0994340972
H  H209  1  0.02070000  0.73190000  0.80430000  1.0 0.0994340972
H  H210  1  0.02500000  0.75420000  0.82920000  1.0 0.1314017923
H  H211  1  0.00160000  0.83640000  0.76460000  1.0 0.1314017923
H  H212  1  0.99520000  0.81200000  0.74300000  1.0 0.0994340972
H  H213  1  0.05570000  0.69810000  0.77070000  1.0 0.0994340972
H  H214  1  0.10760000  0.67160000  0.75180000  1.0 0.1314017923
H  H215  1  0.10580000  0.72940000  0.66540000  1.0 0.1314017923
H  H216  1  0.05350000  0.75190000  0.68670000  1.0 0.0994340972
H  H217  1  0.20140000  0.76360000  0.56980000  1.0 0.0994340972
H  H218  1  0.17760000  0.73940000  0.62140000  1.0 0.1314017923
H  H219  1  0.24360000  0.65820000  0.61220000  1.0 0.1314017923
H  H220  1  0.26560000  0.68460000  0.56120000  1.0 0.0994340972
H  H221  1  0.26560000  0.54840000  0.70580000  1.0 0.0994340972
H  H222  1  0.24450000  0.60050000  0.68270000  1.0 0.1314017923
H  H223  1  0.15980000  0.59320000  0.74040000  1.0 0.1314017923
H  H224  1  0.18370000  0.54050000  0.75990000  1.0 0.0994340972
H  H225  1  0.80430000  0.94310000  0.02070000  1.0 0.0994340972
H  H226  1  0.82920000  0.89160000  0.02500000  1.0 0.1314017923
H  H227  1  0.76460000  0.89740000  0.00160000  1.0 0.1314017923
H  H228  1  0.74300000  0.94980000  0.99520000  1.0 0.0994340972
H  H229  1  0.77070000  0.97550000  0.05570000  1.0 0.0994340972
H  H230  1  0.75180000  0.96900000  0.10760000  1.0 0.1314017923
H  H231  1  0.66540000  0.99940000  0.10580000  1.0 0.1314017923
H  H232  1  0.68670000  0.00790000  0.05350000  1.0 0.0994340972
H  H233  1  0.56980000  0.96520000  0.20140000  1.0 0.0994340972
H  H234  1  0.62140000  0.96160000  0.17760000  1.0 0.1314017923
H  H235  1  0.61220000  0.98600000  0.24360000  1.0 0.1314017923
H  H236  1  0.56120000  0.98860000  0.26560000  1.0 0.0994340972
H  H237  1  0.70580000  0.98020000  0.26560000  1.0 0.0994340972
H  H238  1  0.68270000  0.97230000  0.24450000  1.0 0.1314017923
H  H239  1  0.74040000  0.00660000  0.15980000  1.0 0.1314017923
H  H240  1  0.75990000  0.01590000  0.18370000  1.0 0.0994340972
H  H241  1  0.94310000  0.80430000  0.73190000  1.0 0.0994340972
H  H242  1  0.89160000  0.82920000  0.75420000  1.0 0.1314017923
H  H243  1  0.89740000  0.76460000  0.83640000  1.0 0.1314017923
H  H244  1  0.94980000  0.74300000  0.81200000  1.0 0.0994340972
H  H245  1  0.97550000  0.77070000  0.69810000  1.0 0.0994340972
H  H246  1  0.96900000  0.75180000  0.67160000  1.0 0.1314017923
H  H247  1  0.99940000  0.66540000  0.72940000  1.0 0.1314017923
H  H248  1  0.00790000  0.68670000  0.75190000  1.0 0.0994340972
H  H249  1  0.96520000  0.56980000  0.76360000  1.0 0.0994340972
H  H250  1  0.96160000  0.62140000  0.73940000  1.0 0.1314017923
H  H251  1  0.98600000  0.61220000  0.65820000  1.0 0.1314017923
H  H252  1  0.98860000  0.56120000  0.68460000  1.0 0.0994340972
H  H253  1  0.98020000  0.70580000  0.54840000  1.0 0.0994340972
H  H254  1  0.97230000  0.68270000  0.60050000  1.0 0.1314017923
H  H255  1  0.00660000  0.74040000  0.59320000  1.0 0.1314017923
H  H256  1  0.01590000  0.75990000  0.54050000  1.0 0.0994340972
H  H257  1  0.80430000  0.73190000  0.94310000  1.0 0.0994340972
H  H258  1  0.82920000  0.75420000  0.89160000  1.0 0.1314017923
H  H259  1  0.76460000  0.83640000  0.89740000  1.0 0.1314017923
H  H260  1  0.74300000  0.81200000  0.94980000  1.0 0.0994340972
H  H261  1  0.77070000  0.69810000  0.97550000  1.0 0.0994340972
H  H262  1  0.75180000  0.67160000  0.96900000  1.0 0.1314017923
H  H263  1  0.66540000  0.72940000  0.99940000  1.0 0.1314017923
H  H264  1  0.68670000  0.75190000  0.00790000  1.0 0.0994340972
H  H265  1  0.56980000  0.76360000  0.96520000  1.0 0.0994340972
H  H266  1  0.62140000  0.73940000  0.96160000  1.0 0.1314017923
H  H267  1  0.61220000  0.65820000  0.98600000  1.0 0.1314017923
H  H268  1  0.56120000  0.68460000  0.98860000  1.0 0.0994340972
H  H269  1  0.70580000  0.54840000  0.98020000  1.0 0.0994340972
H  H270  1  0.68270000  0.60050000  0.97230000  1.0 0.1314017923
H  H271  1  0.74040000  0.59320000  0.00660000  1.0 0.1314017923
H  H272  1  0.75990000  0.54050000  0.01590000  1.0 0.0994340972
H  H273  1  0.94310000  0.02070000  0.80430000  1.0 0.0994340972
H  H274  1  0.89160000  0.02500000  0.82920000  1.0 0.1314017923
H  H275  1  0.89740000  0.00160000  0.76460000  1.0 0.1314017923
H  H276  1  0.94980000  0.99520000  0.74300000  1.0 0.0994340972
H  H277  1  0.97550000  0.05570000  0.77070000  1.0 0.0994340972
H  H278  1  0.96900000  0.10760000  0.75180000  1.0 0.1314017923
H  H279  1  0.99940000  0.10580000  0.66540000  1.0 0.1314017923
H  H280  1  0.00790000  0.05350000  0.68670000  1.0 0.0994340972
H  H281  1  0.96520000  0.20140000  0.56980000  1.0 0.0994340972
H  H282  1  0.96160000  0.17760000  0.62140000  1.0 0.1314017923
H  H283  1  0.98600000  0.24360000  0.61220000  1.0 0.1314017923
H  H284  1  0.98860000  0.26560000  0.56120000  1.0 0.0994340972
H  H285  1  0.98020000  0.26560000  0.70580000  1.0 0.0994340972
H  H286  1  0.97230000  0.24450000  0.68270000  1.0 0.1314017923
H  H287  1  0.00660000  0.15980000  0.74040000  1.0 0.1314017923
H  H288  1  0.01590000  0.18370000  0.75990000  1.0 0.0994340972
H  H289  1  0.73190000  0.80430000  0.02070000  1.0 0.0994340972
H  H290  1  0.75420000  0.82920000  0.02500000  1.0 0.1314017923
H  H291  1  0.83640000  0.76460000  0.00160000  1.0 0.1314017923
H  H292  1  0.81200000  0.74300000  0.99520000  1.0 0.0994340972
H  H293  1  0.69810000  0.77070000  0.05570000  1.0 0.0994340972
H  H294  1  0.67160000  0.75180000  0.10760000  1.0 0.1314017923
H  H295  1  0.72940000  0.66540000  0.10580000  1.0 0.1314017923
H  H296  1  0.75190000  0.68670000  0.05350000  1.0 0.0994340972
H  H297  1  0.76360000  0.56980000  0.20140000  1.0 0.0994340972
H  H298  1  0.73940000  0.62140000  0.17760000  1.0 0.1314017923
H  H299  1  0.65820000  0.61220000  0.24360000  1.0 0.1314017923
H  H300  1  0.68460000  0.56120000  0.26560000  1.0 0.0994340972
H  H301  1  0.54840000  0.70580000  0.26560000  1.0 0.0994340972
H  H302  1  0.60050000  0.68270000  0.24450000  1.0 0.1314017923
H  H303  1  0.59320000  0.74040000  0.15980000  1.0 0.1314017923
H  H304  1  0.54050000  0.75990000  0.18370000  1.0 0.0994340972
H  H305  1  0.02070000  0.94310000  0.73190000  1.0 0.0994340972
H  H306  1  0.02500000  0.89160000  0.75420000  1.0 0.1314017923
H  H307  1  0.00160000  0.89740000  0.83640000  1.0 0.1314017923
H  H308  1  0.99520000  0.94980000  0.81200000  1.0 0.0994340972
H  H309  1  0.05570000  0.97550000  0.69810000  1.0 0.0994340972
H  H310  1  0.10760000  0.96900000  0.67160000  1.0 0.1314017923
H  H311  1  0.10580000  0.99940000  0.72940000  1.0 0.1314017923
H  H312  1  0.05350000  0.00790000  0.75190000  1.0 0.0994340972
H  H313  1  0.20140000  0.96520000  0.76360000  1.0 0.0994340972
H  H314  1  0.17760000  0.96160000  0.73940000  1.0 0.1314017923
H  H315  1  0.24360000  0.98600000  0.65820000  1.0 0.1314017923
H  H316  1  0.26560000  0.98860000  0.68460000  1.0 0.0994340972
H  H317  1  0.26560000  0.98020000  0.54840000  1.0 0.0994340972
H  H318  1  0.24450000  0.97230000  0.60050000  1.0 0.1314017923
H  H319  1  0.15980000  0.00660000  0.59320000  1.0 0.1314017923
H  H320  1  0.18370000  0.01590000  0.54050000  1.0 0.0994340972
H  H321  1  0.02070000  0.80430000  0.94310000  1.0 0.0994340972
H  H322  1  0.02500000  0.82920000  0.89160000  1.0 0.1314017923
H  H323  1  0.00160000  0.76460000  0.89740000  1.0 0.1314017923
H  H324  1  0.99520000  0.74300000  0.94980000  1.0 0.0994340972
H  H325  1  0.05570000  0.77070000  0.97550000  1.0 0.0994340972
H  H326  1  0.10760000  0.75180000  0.96900000  1.0 0.1314017923
H  H327  1  0.10580000  0.66540000  0.99940000  1.0 0.1314017923
H  H328  1  0.05350000  0.68670000  0.00790000  1.0 0.0994340972
H  H329  1  0.20140000  0.56980000  0.96520000  1.0 0.0994340972
H  H330  1  0.17760000  0.62140000  0.96160000  1.0 0.1314017923
H  H331  1  0.24360000  0.61220000  0.98600000  1.0 0.1314017923
H  H332  1  0.26560000  0.56120000  0.98860000  1.0 0.0994340972
H  H333  1  0.26560000  0.70580000  0.98020000  1.0 0.0994340972
H  H334  1  0.24450000  0.68270000  0.97230000  1.0 0.1314017923
H  H335  1  0.15980000  0.74040000  0.00660000  1.0 0.1314017923
H  H336  1  0.18370000  0.75990000  0.01590000  1.0 0.0994340972
H  H337  1  0.73190000  0.94310000  0.80430000  1.0 0.0994340972
H  H338  1  0.75420000  0.89160000  0.82920000  1.0 0.1314017923
H  H339  1  0.83640000  0.89740000  0.76460000  1.0 0.1314017923
H  H340  1  0.81200000  0.94980000  0.74300000  1.0 0.0994340972
H  H341  1  0.69810000  0.97550000  0.77070000  1.0 0.0994340972
H  H342  1  0.67160000  0.96900000  0.75180000  1.0 0.1314017923
H  H343  1  0.72940000  0.99940000  0.66540000  1.0 0.1314017923
H  H344  1  0.75190000  0.00790000  0.68670000  1.0 0.0994340972
H  H345  1  0.76360000  0.96520000  0.56980000  1.0 0.0994340972
H  H346  1  0.73940000  0.96160000  0.62140000  1.0 0.1314017923
H  H347  1  0.65820000  0.98600000  0.61220000  1.0 0.1314017923
H  H348  1  0.68460000  0.98860000  0.56120000  1.0 0.0994340972
H  H349  1  0.54840000  0.98020000  0.70580000  1.0 0.0994340972
H  H350  1  0.60050000  0.97230000  0.68270000  1.0 0.1314017923
H  H351  1  0.59320000  0.00660000  0.74040000  1.0 0.1314017923
H  H352  1  0.54050000  0.01590000  0.75990000  1.0 0.0994340972
H  H353  1  0.94310000  0.73190000  0.02070000  1.0 0.0994340972
H  H354  1  0.89160000  0.75420000  0.02500000  1.0 0.1314017923
H  H355  1  0.89740000  0.83640000  0.00160000  1.0 0.1314017923
H  H356  1  0.94980000  0.81200000  0.99520000  1.0 0.0994340972
H  H357  1  0.97550000  0.69810000  0.05570000  1.0 0.0994340972
H  H358  1  0.96900000  0.67160000  0.10760000  1.0 0.1314017923
H  H359  1  0.99940000  0.72940000  0.10580000  1.0 0.1314017923
H  H360  1  0.00790000  0.75190000  0.05350000  1.0 0.0994340972
H  H361  1  0.96520000  0.76360000  0.20140000  1.0 0.0994340972
H  H362  1  0.96160000  0.73940000  0.17760000  1.0 0.1314017923
H  H363  1  0.98600000  0.65820000  0.24360000  1.0 0.1314017923
H  H364  1  0.98860000  0.68460000  0.26560000  1.0 0.0994340972
H  H365  1  0.98020000  0.54840000  0.26560000  1.0 0.0994340972
H  H366  1  0.97230000  0.60050000  0.24450000  1.0 0.1314017923
H  H367  1  0.00660000  0.59320000  0.15980000  1.0 0.1314017923
H  H368  1  0.01590000  0.54050000  0.18370000  1.0 0.0994340972
H  H369  1  0.80430000  0.02070000  0.73190000  1.0 0.0994340972
H  H370  1  0.82920000  0.02500000  0.75420000  1.0 0.1314017923
H  H371  1  0.76460000  0.00160000  0.83640000  1.0 0.1314017923
H  H372  1  0.74300000  0.99520000  0.81200000  1.0 0.0994340972
H  H373  1  0.77070000  0.05570000  0.69810000  1.0 0.0994340972
H  H374  1  0.75180000  0.10760000  0.67160000  1.0 0.1314017923
H  H375  1  0.66540000  0.10580000  0.72940000  1.0 0.1314017923
H  H376  1  0.68670000  0.05350000  0.75190000  1.0 0.0994340972
H  H377  1  0.56980000  0.20140000  0.76360000  1.0 0.0994340972
H  H378  1  0.62140000  0.17760000  0.73940000  1.0 0.1314017923
H  H379  1  0.61220000  0.24360000  0.65820000  1.0 0.1314017923
H  H380  1  0.56120000  0.26560000  0.68460000  1.0 0.0994340972
H  H381  1  0.70580000  0.26560000  0.54840000  1.0 0.0994340972
H  H382  1  0.68270000  0.24450000  0.60050000  1.0 0.1314017923
H  H383  1  0.74040000  0.15980000  0.59320000  1.0 0.1314017923
H  H384  1  0.75990000  0.18370000  0.54050000  1.0 0.0994340972
H  H385  1  0.23190000  0.52070000  0.30430000  1.0 0.0994340972
H  H386  1  0.25420000  0.52500000  0.32920000  1.0 0.1314017923
H  H387  1  0.33640000  0.50160000  0.26460000  1.0 0.1314017923
H  H388  1  0.31200000  0.49520000  0.24300000  1.0 0.0994340972
H  H389  1  0.19810000  0.55570000  0.27070000  1.0 0.0994340972
H  H390  1  0.17160000  0.60760000  0.25180000  1.0 0.1314017923
H  H391  1  0.22940000  0.60580000  0.16540000  1.0 0.1314017923
H  H392  1  0.25190000  0.55350000  0.18670000  1.0 0.0994340972
H  H393  1  0.26360000  0.70140000  0.06980000  1.0 0.0994340972
H  H394  1  0.23940000  0.67760000  0.12140000  1.0 0.1314017923
H  H395  1  0.15820000  0.74360000  0.11220000  1.0 0.1314017923
H  H396  1  0.18460000  0.76560000  0.06120000  1.0 0.0994340972
H  H397  1  0.04840000  0.76560000  0.20580000  1.0 0.0994340972
H  H398  1  0.10050000  0.74450000  0.18270000  1.0 0.1314017923
H  H399  1  0.09320000  0.65980000  0.24040000  1.0 0.1314017923
H  H400  1  0.04050000  0.68370000  0.25990000  1.0 0.0994340972
H  H401  1  0.52070000  0.23190000  0.44310000  1.0 0.0994340972
H  H402  1  0.52500000  0.25420000  0.39160000  1.0 0.1314017923
H  H403  1  0.50160000  0.33640000  0.39740000  1.0 0.1314017923
H  H404  1  0.49520000  0.31200000  0.44980000  1.0 0.0994340972
H  H405  1  0.55570000  0.19810000  0.47550000  1.0 0.0994340972
H  H406  1  0.60760000  0.17160000  0.46900000  1.0 0.1314017923
H  H407  1  0.60580000  0.22940000  0.49940000  1.0 0.1314017923
H  H408  1  0.55350000  0.25190000  0.50790000  1.0 0.0994340972
H  H409  1  0.70140000  0.26360000  0.46520000  1.0 0.0994340972
H  H410  1  0.67760000  0.23940000  0.46160000  1.0 0.1314017923
H  H411  1  0.74360000  0.15820000  0.48600000  1.0 0.1314017923
H  H412  1  0.76560000  0.18460000  0.48860000  1.0 0.0994340972
H  H413  1  0.76560000  0.04840000  0.48020000  1.0 0.0994340972
H  H414  1  0.74450000  0.10050000  0.47230000  1.0 0.1314017923
H  H415  1  0.65980000  0.09320000  0.50660000  1.0 0.1314017923
H  H416  1  0.68370000  0.04050000  0.51590000  1.0 0.0994340972
H  H417  1  0.30430000  0.44310000  0.23190000  1.0 0.0994340972
H  H418  1  0.32920000  0.39160000  0.25420000  1.0 0.1314017923
H  H419  1  0.26460000  0.39740000  0.33640000  1.0 0.1314017923
H  H420  1  0.24300000  0.44980000  0.31200000  1.0 0.0994340972
H  H421  1  0.27070000  0.47550000  0.19810000  1.0 0.0994340972
H  H422  1  0.25180000  0.46900000  0.17160000  1.0 0.1314017923
H  H423  1  0.16540000  0.49940000  0.22940000  1.0 0.1314017923
H  H424  1  0.18670000  0.50790000  0.25190000  1.0 0.0994340972
H  H425  1  0.06980000  0.46520000  0.26360000  1.0 0.0994340972
H  H426  1  0.12140000  0.46160000  0.23940000  1.0 0.1314017923
H  H427  1  0.11220000  0.48600000  0.15820000  1.0 0.1314017923
H  H428  1  0.06120000  0.48860000  0.18460000  1.0 0.0994340972
H  H429  1  0.20580000  0.48020000  0.04840000  1.0 0.0994340972
H  H430  1  0.18270000  0.47230000  0.10050000  1.0 0.1314017923
H  H431  1  0.24040000  0.50660000  0.09320000  1.0 0.1314017923
H  H432  1  0.25990000  0.51590000  0.04050000  1.0 0.0994340972
H  H433  1  0.44310000  0.30430000  0.52070000  1.0 0.0994340972
H  H434  1  0.39160000  0.32920000  0.52500000  1.0 0.1314017923
H  H435  1  0.39740000  0.26460000  0.50160000  1.0 0.1314017923
H  H436  1  0.44980000  0.24300000  0.49520000  1.0 0.0994340972
H  H437  1  0.47550000  0.27070000  0.55570000  1.0 0.0994340972
H  H438  1  0.46900000  0.25180000  0.60760000  1.0 0.1314017923
H  H439  1  0.49940000  0.16540000  0.60580000  1.0 0.1314017923
H  H440  1  0.50790000  0.18670000  0.55350000  1.0 0.0994340972
H  H441  1  0.46520000  0.06980000  0.70140000  1.0 0.0994340972
H  H442  1  0.46160000  0.12140000  0.67760000  1.0 0.1314017923
H  H443  1  0.48600000  0.11220000  0.74360000  1.0 0.1314017923
H  H444  1  0.48860000  0.06120000  0.76560000  1.0 0.0994340972
H  H445  1  0.48020000  0.20580000  0.76560000  1.0 0.0994340972
H  H446  1  0.47230000  0.18270000  0.74450000  1.0 0.1314017923
H  H447  1  0.50660000  0.24040000  0.65980000  1.0 0.1314017923
H  H448  1  0.51590000  0.25990000  0.68370000  1.0 0.0994340972
H  H449  1  0.30430000  0.23190000  0.52070000  1.0 0.0994340972
H  H450  1  0.32920000  0.25420000  0.52500000  1.0 0.1314017923
H  H451  1  0.26460000  0.33640000  0.50160000  1.0 0.1314017923
H  H452  1  0.24300000  0.31200000  0.49520000  1.0 0.0994340972
H  H453  1  0.27070000  0.19810000  0.55570000  1.0 0.0994340972
H  H454  1  0.25180000  0.17160000  0.60760000  1.0 0.1314017923
H  H455  1  0.16540000  0.22940000  0.60580000  1.0 0.1314017923
H  H456  1  0.18670000  0.25190000  0.55350000  1.0 0.0994340972
H  H457  1  0.06980000  0.26360000  0.70140000  1.0 0.0994340972
H  H458  1  0.12140000  0.23940000  0.67760000  1.0 0.1314017923
H  H459  1  0.11220000  0.15820000  0.74360000  1.0 0.1314017923
H  H460  1  0.06120000  0.18460000  0.76560000  1.0 0.0994340972
H  H461  1  0.20580000  0.04840000  0.76560000  1.0 0.0994340972
H  H462  1  0.18270000  0.10050000  0.74450000  1.0 0.1314017923
H  H463  1  0.24040000  0.09320000  0.65980000  1.0 0.1314017923
H  H464  1  0.25990000  0.04050000  0.68370000  1.0 0.0994340972
H  H465  1  0.44310000  0.52070000  0.23190000  1.0 0.0994340972
H  H466  1  0.39160000  0.52500000  0.25420000  1.0 0.1314017923
H  H467  1  0.39740000  0.50160000  0.33640000  1.0 0.1314017923
H  H468  1  0.44980000  0.49520000  0.31200000  1.0 0.0994340972
H  H469  1  0.47550000  0.55570000  0.19810000  1.0 0.0994340972
H  H470  1  0.46900000  0.60760000  0.17160000  1.0 0.1314017923
H  H471  1  0.49940000  0.60580000  0.22940000  1.0 0.1314017923
H  H472  1  0.50790000  0.55350000  0.25190000  1.0 0.0994340972
H  H473  1  0.46520000  0.70140000  0.26360000  1.0 0.0994340972
H  H474  1  0.46160000  0.67760000  0.23940000  1.0 0.1314017923
H  H475  1  0.48600000  0.74360000  0.15820000  1.0 0.1314017923
H  H476  1  0.48860000  0.76560000  0.18460000  1.0 0.0994340972
H  H477  1  0.48020000  0.76560000  0.04840000  1.0 0.0994340972
H  H478  1  0.47230000  0.74450000  0.10050000  1.0 0.1314017923
H  H479  1  0.50660000  0.65980000  0.09320000  1.0 0.1314017923
H  H480  1  0.51590000  0.68370000  0.04050000  1.0 0.0994340972
H  H481  1  0.23190000  0.30430000  0.44310000  1.0 0.0994340972
H  H482  1  0.25420000  0.32920000  0.39160000  1.0 0.1314017923
H  H483  1  0.33640000  0.26460000  0.39740000  1.0 0.1314017923
H  H484  1  0.31200000  0.24300000  0.44980000  1.0 0.0994340972
H  H485  1  0.19810000  0.27070000  0.47550000  1.0 0.0994340972
H  H486  1  0.17160000  0.25180000  0.46900000  1.0 0.1314017923
H  H487  1  0.22940000  0.16540000  0.49940000  1.0 0.1314017923
H  H488  1  0.25190000  0.18670000  0.50790000  1.0 0.0994340972
H  H489  1  0.26360000  0.06980000  0.46520000  1.0 0.0994340972
H  H490  1  0.23940000  0.12140000  0.46160000  1.0 0.1314017923
H  H491  1  0.15820000  0.11220000  0.48600000  1.0 0.1314017923
H  H492  1  0.18460000  0.06120000  0.48860000  1.0 0.0994340972
H  H493  1  0.04840000  0.20580000  0.48020000  1.0 0.0994340972
H  H494  1  0.10050000  0.18270000  0.47230000  1.0 0.1314017923
H  H495  1  0.09320000  0.24040000  0.50660000  1.0 0.1314017923
H  H496  1  0.04050000  0.25990000  0.51590000  1.0 0.0994340972
H  H497  1  0.52070000  0.44310000  0.30430000  1.0 0.0994340972
H  H498  1  0.52500000  0.39160000  0.32920000  1.0 0.1314017923
H  H499  1  0.50160000  0.39740000  0.26460000  1.0 0.1314017923
H  H500  1  0.49520000  0.44980000  0.24300000  1.0 0.0994340972
H  H501  1  0.55570000  0.47550000  0.27070000  1.0 0.0994340972
H  H502  1  0.60760000  0.46900000  0.25180000  1.0 0.1314017923
H  H503  1  0.60580000  0.49940000  0.16540000  1.0 0.1314017923
H  H504  1  0.55350000  0.50790000  0.18670000  1.0 0.0994340972
H  H505  1  0.70140000  0.46520000  0.06980000  1.0 0.0994340972
H  H506  1  0.67760000  0.46160000  0.12140000  1.0 0.1314017923
H  H507  1  0.74360000  0.48600000  0.11220000  1.0 0.1314017923
H  H508  1  0.76560000  0.48860000  0.06120000  1.0 0.0994340972
H  H509  1  0.76560000  0.48020000  0.20580000  1.0 0.0994340972
H  H510  1  0.74450000  0.47230000  0.18270000  1.0 0.1314017923
H  H511  1  0.65980000  0.50660000  0.24040000  1.0 0.1314017923
H  H512  1  0.68370000  0.51590000  0.25990000  1.0 0.0994340972
H  H513  1  0.52070000  0.30430000  0.23190000  1.0 0.0994340972
H  H514  1  0.52500000  0.32920000  0.25420000  1.0 0.1314017923
H  H515  1  0.50160000  0.26460000  0.33640000  1.0 0.1314017923
H  H516  1  0.49520000  0.24300000  0.31200000  1.0 0.0994340972
H  H517  1  0.55570000  0.27070000  0.19810000  1.0 0.0994340972
H  H518  1  0.60760000  0.25180000  0.17160000  1.0 0.1314017923
H  H519  1  0.60580000  0.16540000  0.22940000  1.0 0.1314017923
H  H520  1  0.55350000  0.18670000  0.25190000  1.0 0.0994340972
H  H521  1  0.70140000  0.06980000  0.26360000  1.0 0.0994340972
H  H522  1  0.67760000  0.12140000  0.23940000  1.0 0.1314017923
H  H523  1  0.74360000  0.11220000  0.15820000  1.0 0.1314017923
H  H524  1  0.76560000  0.06120000  0.18460000  1.0 0.0994340972
H  H525  1  0.76560000  0.20580000  0.04840000  1.0 0.0994340972
H  H526  1  0.74450000  0.18270000  0.10050000  1.0 0.1314017923
H  H527  1  0.65980000  0.24040000  0.09320000  1.0 0.1314017923
H  H528  1  0.68370000  0.25990000  0.04050000  1.0 0.0994340972
H  H529  1  0.23190000  0.44310000  0.52070000  1.0 0.0994340972
H  H530  1  0.25420000  0.39160000  0.52500000  1.0 0.1314017923
H  H531  1  0.33640000  0.39740000  0.50160000  1.0 0.1314017923
H  H532  1  0.31200000  0.44980000  0.49520000  1.0 0.0994340972
H  H533  1  0.19810000  0.47550000  0.55570000  1.0 0.0994340972
H  H534  1  0.17160000  0.46900000  0.60760000  1.0 0.1314017923
H  H535  1  0.22940000  0.49940000  0.60580000  1.0 0.1314017923
H  H536  1  0.25190000  0.50790000  0.55350000  1.0 0.0994340972
H  H537  1  0.26360000  0.46520000  0.70140000  1.0 0.0994340972
H  H538  1  0.23940000  0.46160000  0.67760000  1.0 0.1314017923
H  H539  1  0.15820000  0.48600000  0.74360000  1.0 0.1314017923
H  H540  1  0.18460000  0.48860000  0.76560000  1.0 0.0994340972
H  H541  1  0.04840000  0.48020000  0.76560000  1.0 0.0994340972
H  H542  1  0.10050000  0.47230000  0.74450000  1.0 0.1314017923
H  H543  1  0.09320000  0.50660000  0.65980000  1.0 0.1314017923
H  H544  1  0.04050000  0.51590000  0.68370000  1.0 0.0994340972
H  H545  1  0.44310000  0.23190000  0.30430000  1.0 0.0994340972
H  H546  1  0.39160000  0.25420000  0.32920000  1.0 0.1314017923
H  H547  1  0.39740000  0.33640000  0.26460000  1.0 0.1314017923
H  H548  1  0.44980000  0.31200000  0.24300000  1.0 0.0994340972
H  H549  1  0.47550000  0.19810000  0.27070000  1.0 0.0994340972
H  H550  1  0.46900000  0.17160000  0.25180000  1.0 0.1314017923
H  H551  1  0.49940000  0.22940000  0.16540000  1.0 0.1314017923
H  H552  1  0.50790000  0.25190000  0.18670000  1.0 0.0994340972
H  H553  1  0.46520000  0.26360000  0.06980000  1.0 0.0994340972
H  H554  1  0.46160000  0.23940000  0.12140000  1.0 0.1314017923
H  H555  1  0.48600000  0.15820000  0.11220000  1.0 0.1314017923
H  H556  1  0.48860000  0.18460000  0.06120000  1.0 0.0994340972
H  H557  1  0.48020000  0.04840000  0.20580000  1.0 0.0994340972
H  H558  1  0.47230000  0.10050000  0.18270000  1.0 0.1314017923
H  H559  1  0.50660000  0.09320000  0.24040000  1.0 0.1314017923
H  H560  1  0.51590000  0.04050000  0.25990000  1.0 0.0994340972
H  H561  1  0.30430000  0.52070000  0.44310000  1.0 0.0994340972
H  H562  1  0.32920000  0.52500000  0.39160000  1.0 0.1314017923
H  H563  1  0.26460000  0.50160000  0.39740000  1.0 0.1314017923
H  H564  1  0.24300000  0.49520000  0.44980000  1.0 0.0994340972
H  H565  1  0.27070000  0.55570000  0.47550000  1.0 0.0994340972
H  H566  1  0.25180000  0.60760000  0.46900000  1.0 0.1314017923
H  H567  1  0.16540000  0.60580000  0.49940000  1.0 0.1314017923
H  H568  1  0.18670000  0.55350000  0.50790000  1.0 0.0994340972
H  H569  1  0.06980000  0.70140000  0.46520000  1.0 0.0994340972
H  H570  1  0.12140000  0.67760000  0.46160000  1.0 0.1314017923
H  H571  1  0.11220000  0.74360000  0.48600000  1.0 0.1314017923
H  H572  1  0.06120000  0.76560000  0.48860000  1.0 0.0994340972
H  H573  1  0.20580000  0.76560000  0.48020000  1.0 0.0994340972
H  H574  1  0.18270000  0.74450000  0.47230000  1.0 0.1314017923
H  H575  1  0.24040000  0.65980000  0.50660000  1.0 0.1314017923
H  H576  1  0.25990000  0.68370000  0.51590000  1.0 0.0994340972
H  H577  1  0.26810000  0.97930000  0.05690000  1.0 0.0994340972
H  H578  1  0.24580000  0.97500000  0.10840000  1.0 0.1314017923
H  H579  1  0.16360000  0.99840000  0.10260000  1.0 0.1314017923
H  H580  1  0.18800000  0.00480000  0.05020000  1.0 0.0994340972
H  H581  1  0.30190000  0.94430000  0.02450000  1.0 0.0994340972
H  H582  1  0.32840000  0.89240000  0.03100000  1.0 0.1314017923
H  H583  1  0.27060000  0.89420000  0.00060000  1.0 0.1314017923
H  H584  1  0.24810000  0.94650000  0.99210000  1.0 0.0994340972
H  H585  1  0.23640000  0.79860000  0.03480000  1.0 0.0994340972
H  H586  1  0.26060000  0.82240000  0.03840000  1.0 0.1314017923
H  H587  1  0.34180000  0.75640000  0.01400000  1.0 0.1314017923
H  H588  1  0.31540000  0.73440000  0.01140000  1.0 0.0994340972
H  H589  1  0.45160000  0.73440000  0.01980000  1.0 0.0994340972
H  H590  1  0.39950000  0.75550000  0.02770000  1.0 0.1314017923
H  H591  1  0.40680000  0.84020000  0.99340000  1.0 0.1314017923
H  H592  1  0.45950000  0.81630000  0.98410000  1.0 0.0994340972
H  H593  1  0.97930000  0.26810000  0.19570000  1.0 0.0994340972
H  H594  1  0.97500000  0.24580000  0.17080000  1.0 0.1314017923
H  H595  1  0.99840000  0.16360000  0.23540000  1.0 0.1314017923
H  H596  1  0.00480000  0.18800000  0.25700000  1.0 0.0994340972
H  H597  1  0.94430000  0.30190000  0.22930000  1.0 0.0994340972
H  H598  1  0.89240000  0.32840000  0.24820000  1.0 0.1314017923
H  H599  1  0.89420000  0.27060000  0.33460000  1.0 0.1314017923
H  H600  1  0.94650000  0.24810000  0.31330000  1.0 0.0994340972
H  H601  1  0.79860000  0.23640000  0.43020000  1.0 0.0994340972
H  H602  1  0.82240000  0.26060000  0.37860000  1.0 0.1314017923
H  H603  1  0.75640000  0.34180000  0.38780000  1.0 0.1314017923
H  H604  1  0.73440000  0.31540000  0.43880000  1.0 0.0994340972
H  H605  1  0.73440000  0.45160000  0.29420000  1.0 0.0994340972
H  H606  1  0.75550000  0.39950000  0.31730000  1.0 0.1314017923
H  H607  1  0.84020000  0.40680000  0.25960000  1.0 0.1314017923
H  H608  1  0.81630000  0.45950000  0.24010000  1.0 0.0994340972
H  H609  1  0.19570000  0.05690000  0.97930000  1.0 0.0994340972
H  H610  1  0.17080000  0.10840000  0.97500000  1.0 0.1314017923
H  H611  1  0.23540000  0.10260000  0.99840000  1.0 0.1314017923
H  H612  1  0.25700000  0.05020000  0.00480000  1.0 0.0994340972
H  H613  1  0.22930000  0.02450000  0.94430000  1.0 0.0994340972
H  H614  1  0.24820000  0.03100000  0.89240000  1.0 0.1314017923
H  H615  1  0.33460000  0.00060000  0.89420000  1.0 0.1314017923
H  H616  1  0.31330000  0.99210000  0.94650000  1.0 0.0994340972
H  H617  1  0.43020000  0.03480000  0.79860000  1.0 0.0994340972
H  H618  1  0.37860000  0.03840000  0.82240000  1.0 0.1314017923
H  H619  1  0.38780000  0.01400000  0.75640000  1.0 0.1314017923
H  H620  1  0.43880000  0.01140000  0.73440000  1.0 0.0994340972
H  H621  1  0.29420000  0.01980000  0.73440000  1.0 0.0994340972
H  H622  1  0.31730000  0.02770000  0.75550000  1.0 0.1314017923
H  H623  1  0.25960000  0.99340000  0.84020000  1.0 0.1314017923
H  H624  1  0.24010000  0.98410000  0.81630000  1.0 0.0994340972
H  H625  1  0.05690000  0.19570000  0.26810000  1.0 0.0994340972
H  H626  1  0.10840000  0.17080000  0.24580000  1.0 0.1314017923
H  H627  1  0.10260000  0.23540000  0.16360000  1.0 0.1314017923
H  H628  1  0.05020000  0.25700000  0.18800000  1.0 0.0994340972
H  H629  1  0.02450000  0.22930000  0.30190000  1.0 0.0994340972
H  H630  1  0.03100000  0.24820000  0.32840000  1.0 0.1314017923
H  H631  1  0.00060000  0.33460000  0.27060000  1.0 0.1314017923
H  H632  1  0.99210000  0.31330000  0.24810000  1.0 0.0994340972
H  H633  1  0.03480000  0.43020000  0.23640000  1.0 0.0994340972
H  H634  1  0.03840000  0.37860000  0.26060000  1.0 0.1314017923
H  H635  1  0.01400000  0.38780000  0.34180000  1.0 0.1314017923
H  H636  1  0.01140000  0.43880000  0.31540000  1.0 0.0994340972
H  H637  1  0.01980000  0.29420000  0.45160000  1.0 0.0994340972
H  H638  1  0.02770000  0.31730000  0.39950000  1.0 0.1314017923
H  H639  1  0.99340000  0.25960000  0.40680000  1.0 0.1314017923
H  H640  1  0.98410000  0.24010000  0.45950000  1.0 0.0994340972
H  H641  1  0.19570000  0.26810000  0.05690000  1.0 0.0994340972
H  H642  1  0.17080000  0.24580000  0.10840000  1.0 0.1314017923
H  H643  1  0.23540000  0.16360000  0.10260000  1.0 0.1314017923
H  H644  1  0.25700000  0.18800000  0.05020000  1.0 0.0994340972
H  H645  1  0.22930000  0.30190000  0.02450000  1.0 0.0994340972
H  H646  1  0.24820000  0.32840000  0.03100000  1.0 0.1314017923
H  H647  1  0.33460000  0.27060000  0.00060000  1.0 0.1314017923
H  H648  1  0.31330000  0.24810000  0.99210000  1.0 0.0994340972
H  H649  1  0.43020000  0.23640000  0.03480000  1.0 0.0994340972
H  H650  1  0.37860000  0.26060000  0.03840000  1.0 0.1314017923
H  H651  1  0.38780000  0.34180000  0.01400000  1.0 0.1314017923
H  H652  1  0.43880000  0.31540000  0.01140000  1.0 0.0994340972
H  H653  1  0.29420000  0.45160000  0.01980000  1.0 0.0994340972
H  H654  1  0.31730000  0.39950000  0.02770000  1.0 0.1314017923
H  H655  1  0.25960000  0.40680000  0.99340000  1.0 0.1314017923
H  H656  1  0.24010000  0.45950000  0.98410000  1.0 0.0994340972
H  H657  1  0.05690000  0.97930000  0.19570000  1.0 0.0994340972
H  H658  1  0.10840000  0.97500000  0.17080000  1.0 0.1314017923
H  H659  1  0.10260000  0.99840000  0.23540000  1.0 0.1314017923
H  H660  1  0.05020000  0.00480000  0.25700000  1.0 0.0994340972
H  H661  1  0.02450000  0.94430000  0.22930000  1.0 0.0994340972
H  H662  1  0.03100000  0.89240000  0.24820000  1.0 0.1314017923
H  H663  1  0.00060000  0.89420000  0.33460000  1.0 0.1314017923
H  H664  1  0.99210000  0.94650000  0.31330000  1.0 0.0994340972
H  H665  1  0.03480000  0.79860000  0.43020000  1.0 0.0994340972
H  H666  1  0.03840000  0.82240000  0.37860000  1.0 0.1314017923
H  H667  1  0.01400000  0.75640000  0.38780000  1.0 0.1314017923
H  H668  1  0.01140000  0.73440000  0.43880000  1.0 0.0994340972
H  H669  1  0.01980000  0.73440000  0.29420000  1.0 0.0994340972
H  H670  1  0.02770000  0.75550000  0.31730000  1.0 0.1314017923
H  H671  1  0.99340000  0.84020000  0.25960000  1.0 0.1314017923
H  H672  1  0.98410000  0.81630000  0.24010000  1.0 0.0994340972
H  H673  1  0.26810000  0.19570000  0.97930000  1.0 0.0994340972
H  H674  1  0.24580000  0.17080000  0.97500000  1.0 0.1314017923
H  H675  1  0.16360000  0.23540000  0.99840000  1.0 0.1314017923
H  H676  1  0.18800000  0.25700000  0.00480000  1.0 0.0994340972
H  H677  1  0.30190000  0.22930000  0.94430000  1.0 0.0994340972
H  H678  1  0.32840000  0.24820000  0.89240000  1.0 0.1314017923
H  H679  1  0.27060000  0.33460000  0.89420000  1.0 0.1314017923
H  H680  1  0.24810000  0.31330000  0.94650000  1.0 0.0994340972
H  H681  1  0.23640000  0.43020000  0.79860000  1.0 0.0994340972
H  H682  1  0.26060000  0.37860000  0.82240000  1.0 0.1314017923
H  H683  1  0.34180000  0.38780000  0.75640000  1.0 0.1314017923
H  H684  1  0.31540000  0.43880000  0.73440000  1.0 0.0994340972
H  H685  1  0.45160000  0.29420000  0.73440000  1.0 0.0994340972
H  H686  1  0.39950000  0.31730000  0.75550000  1.0 0.1314017923
H  H687  1  0.40680000  0.25960000  0.84020000  1.0 0.1314017923
H  H688  1  0.45950000  0.24010000  0.81630000  1.0 0.0994340972
H  H689  1  0.97930000  0.05690000  0.26810000  1.0 0.0994340972
H  H690  1  0.97500000  0.10840000  0.24580000  1.0 0.1314017923
H  H691  1  0.99840000  0.10260000  0.16360000  1.0 0.1314017923
H  H692  1  0.00480000  0.05020000  0.18800000  1.0 0.0994340972
H  H693  1  0.94430000  0.02450000  0.30190000  1.0 0.0994340972
H  H694  1  0.89240000  0.03100000  0.32840000  1.0 0.1314017923
H  H695  1  0.89420000  0.00060000  0.27060000  1.0 0.1314017923
H  H696  1  0.94650000  0.99210000  0.24810000  1.0 0.0994340972
H  H697  1  0.79860000  0.03480000  0.23640000  1.0 0.0994340972
H  H698  1  0.82240000  0.03840000  0.26060000  1.0 0.1314017923
H  H699  1  0.75640000  0.01400000  0.34180000  1.0 0.1314017923
H  H700  1  0.73440000  0.01140000  0.31540000  1.0 0.0994340972
H  H701  1  0.73440000  0.01980000  0.45160000  1.0 0.0994340972
H  H702  1  0.75550000  0.02770000  0.39950000  1.0 0.1314017923
H  H703  1  0.84020000  0.99340000  0.40680000  1.0 0.1314017923
H  H704  1  0.81630000  0.98410000  0.45950000  1.0 0.0994340972
H  H705  1  0.97930000  0.19570000  0.05690000  1.0 0.0994340972
H  H706  1  0.97500000  0.17080000  0.10840000  1.0 0.1314017923
H  H707  1  0.99840000  0.23540000  0.10260000  1.0 0.1314017923
H  H708  1  0.00480000  0.25700000  0.05020000  1.0 0.0994340972
H  H709  1  0.94430000  0.22930000  0.02450000  1.0 0.0994340972
H  H710  1  0.89240000  0.24820000  0.03100000  1.0 0.1314017923
H  H711  1  0.89420000  0.33460000  0.00060000  1.0 0.1314017923
H  H712  1  0.94650000  0.31330000  0.99210000  1.0 0.0994340972
H  H713  1  0.79860000  0.43020000  0.03480000  1.0 0.0994340972
H  H714  1  0.82240000  0.37860000  0.03840000  1.0 0.1314017923
H  H715  1  0.75640000  0.38780000  0.01400000  1.0 0.1314017923
H  H716  1  0.73440000  0.43880000  0.01140000  1.0 0.0994340972
H  H717  1  0.73440000  0.29420000  0.01980000  1.0 0.0994340972
H  H718  1  0.75550000  0.31730000  0.02770000  1.0 0.1314017923
H  H719  1  0.84020000  0.25960000  0.99340000  1.0 0.1314017923
H  H720  1  0.81630000  0.24010000  0.98410000  1.0 0.0994340972
H  H721  1  0.26810000  0.05690000  0.19570000  1.0 0.0994340972
H  H722  1  0.24580000  0.10840000  0.17080000  1.0 0.1314017923
H  H723  1  0.16360000  0.10260000  0.23540000  1.0 0.1314017923
H  H724  1  0.18800000  0.05020000  0.25700000  1.0 0.0994340972
H  H725  1  0.30190000  0.02450000  0.22930000  1.0 0.0994340972
H  H726  1  0.32840000  0.03100000  0.24820000  1.0 0.1314017923
H  H727  1  0.27060000  0.00060000  0.33460000  1.0 0.1314017923
H  H728  1  0.24810000  0.99210000  0.31330000  1.0 0.0994340972
H  H729  1  0.23640000  0.03480000  0.43020000  1.0 0.0994340972
H  H730  1  0.26060000  0.03840000  0.37860000  1.0 0.1314017923
H  H731  1  0.34180000  0.01400000  0.38780000  1.0 0.1314017923
H  H732  1  0.31540000  0.01140000  0.43880000  1.0 0.0994340972
H  H733  1  0.45160000  0.01980000  0.29420000  1.0 0.0994340972
H  H734  1  0.39950000  0.02770000  0.31730000  1.0 0.1314017923
H  H735  1  0.40680000  0.99340000  0.25960000  1.0 0.1314017923
H  H736  1  0.45950000  0.98410000  0.24010000  1.0 0.0994340972
H  H737  1  0.05690000  0.26810000  0.97930000  1.0 0.0994340972
H  H738  1  0.10840000  0.24580000  0.97500000  1.0 0.1314017923
H  H739  1  0.10260000  0.16360000  0.99840000  1.0 0.1314017923
H  H740  1  0.05020000  0.18800000  0.00480000  1.0 0.0994340972
H  H741  1  0.02450000  0.30190000  0.94430000  1.0 0.0994340972
H  H742  1  0.03100000  0.32840000  0.89240000  1.0 0.1314017923
H  H743  1  0.00060000  0.27060000  0.89420000  1.0 0.1314017923
H  H744  1  0.99210000  0.24810000  0.94650000  1.0 0.0994340972
H  H745  1  0.03480000  0.23640000  0.79860000  1.0 0.0994340972
H  H746  1  0.03840000  0.26060000  0.82240000  1.0 0.1314017923
H  H747  1  0.01400000  0.34180000  0.75640000  1.0 0.1314017923
H  H748  1  0.01140000  0.31540000  0.73440000  1.0 0.0994340972
H  H749  1  0.01980000  0.45160000  0.73440000  1.0 0.0994340972
H  H750  1  0.02770000  0.39950000  0.75550000  1.0 0.1314017923
H  H751  1  0.99340000  0.40680000  0.84020000  1.0 0.1314017923
H  H752  1  0.98410000  0.45950000  0.81630000  1.0 0.0994340972
H  H753  1  0.19570000  0.97930000  0.26810000  1.0 0.0994340972
H  H754  1  0.17080000  0.97500000  0.24580000  1.0 0.1314017923
H  H755  1  0.23540000  0.99840000  0.16360000  1.0 0.1314017923
H  H756  1  0.25700000  0.00480000  0.18800000  1.0 0.0994340972
H  H757  1  0.22930000  0.94430000  0.30190000  1.0 0.0994340972
H  H758  1  0.24820000  0.89240000  0.32840000  1.0 0.1314017923
H  H759  1  0.33460000  0.89420000  0.27060000  1.0 0.1314017923
H  H760  1  0.31330000  0.94650000  0.24810000  1.0 0.0994340972
H  H761  1  0.43020000  0.79860000  0.23640000  1.0 0.0994340972
H  H762  1  0.37860000  0.82240000  0.26060000  1.0 0.1314017923
H  H763  1  0.38780000  0.75640000  0.34180000  1.0 0.1314017923
H  H764  1  0.43880000  0.73440000  0.31540000  1.0 0.0994340972
H  H765  1  0.29420000  0.73440000  0.45160000  1.0 0.0994340972
H  H766  1  0.31730000  0.75550000  0.39950000  1.0 0.1314017923
H  H767  1  0.25960000  0.84020000  0.40680000  1.0 0.1314017923
H  H768  1  0.24010000  0.81630000  0.45950000  1.0 0.0994340972
C  C1  1  0.68661000  0.48305000  0.68627000  1.0 0.3673323514
C  C2  1  0.74636000  0.48368000  0.70376000  1.0 0.0713996989
C  C3  1  0.73343000  0.48047000  0.68897000  1.0 -0.1613044325
C  C4  1  0.70267000  0.48523000  0.70085000  1.0 0.050081264
C  C5  1  0.68522000  0.49454000  0.72674000  1.0 -0.1613044325
C  C6  1  0.70001000  0.49805000  0.73955000  1.0 0.0778603431
C  C7  1  0.80874000  0.51038000  0.68992000  1.0 0.2019168111
C  C8  1  0.79594000  0.43402000  0.75100000  1.0 0.0713996989
C  C9  1  0.81176000  0.40300000  0.76200000  1.0 -0.1682057175
C  C10  1  0.80299000  0.38779000  0.79333000  1.0 0.050081264
C  C11  1  0.77793000  0.40423000  0.81293000  1.0 -0.1613044325
C  C12  1  0.76438000  0.43502000  0.79998000  1.0 0.0713996989
C  C13  1  0.82022000  0.31032000  0.84686000  1.0 0.3673323514
C  C14  1  0.81966000  0.35506000  0.80714000  1.0 0.3615760468
C  C15  1  0.86374000  0.31434000  0.80636000  1.0 0.3673323514
C  C16  1  0.75818000  0.29034000  0.92152000  1.0 0.0778603431
C  C17  1  0.77240000  0.30462000  0.89082000  1.0 -0.1613044325
C  C18  1  0.80414000  0.29274000  0.87808000  1.0 0.050081264
C  C19  1  0.82017000  0.26585000  0.89619000  1.0 -0.1682057175
C  C20  1  0.80425000  0.25295000  0.92657000  1.0 0.0713996989
C  C21  1  0.94239000  0.25625000  0.78779000  1.0 0.0778603431
C  C22  1  0.91133000  0.26853000  0.80143000  1.0 -0.1613044325
C  C23  1  0.89740000  0.30036000  0.79174000  1.0 0.050081264
C  C24  1  0.91577000  0.31841000  0.76767000  1.0 -0.1682057175
C  C25  1  0.94703000  0.30395000  0.75595000  1.0 0.0713996989
C  C26  1  0.70922000  0.31912000  0.97692000  1.0 0.2069062416
C  C27  1  0.48305000  0.68661000  0.64407000  1.0 0.3673323514
C  C28  1  0.48368000  0.74636000  0.56620000  1.0 0.0713996989
C  C29  1  0.48047000  0.73343000  0.59713000  1.0 -0.1613044325
C  C30  1  0.48523000  0.70267000  0.61125000  1.0 0.050081264
C  C31  1  0.49454000  0.68522000  0.59350000  1.0 -0.1613044325
C  C32  1  0.49805000  0.70001000  0.56239000  1.0 0.0778603431
C  C33  1  0.51038000  0.80874000  0.49096000  1.0 0.2019168111
C  C34  1  0.43402000  0.79594000  0.51904000  1.0 0.0713996989
C  C35  1  0.40300000  0.81176000  0.52324000  1.0 -0.1682057175
C  C36  1  0.38779000  0.80299000  0.51589000  1.0 0.050081264
C  C37  1  0.40423000  0.77793000  0.50491000  1.0 -0.1613044325
C  C38  1  0.43502000  0.76438000  0.50062000  1.0 0.0713996989
C  C39  1  0.31032000  0.82022000  0.52260000  1.0 0.3673323514
C  C40  1  0.35506000  0.81966000  0.51814000  1.0 0.3615760468
C  C41  1  0.31434000  0.86374000  0.51556000  1.0 0.3673323514
C  C42  1  0.29034000  0.75818000  0.52996000  1.0 0.0778603431
C  C43  1  0.30462000  0.77240000  0.53216000  1.0 -0.1613044325
C  C44  1  0.29274000  0.80414000  0.52504000  1.0 0.044503191
C  C45  1  0.26585000  0.82017000  0.51779000  1.0 -0.1682057175
C  C46  1  0.25295000  0.80425000  0.51623000  1.0 0.0713996989
C  C47  1  0.25625000  0.94239000  0.51357000  1.0 0.0778603431
C  C48  1  0.26853000  0.91133000  0.51871000  1.0 -0.1613044325
C  C49  1  0.30036000  0.89740000  0.51050000  1.0 0.050081264
C  C50  1  0.31841000  0.91577000  0.49815000  1.0 -0.1682057175
C  C51  1  0.30395000  0.94703000  0.49307000  1.0 0.0713996989
C  C52  1  0.31912000  0.70922000  0.49474000  1.0 0.2069062416
C  C53  1  0.68627000  0.64407000  0.68661000  1.0 0.3673323514
C  C54  1  0.70376000  0.56620000  0.74636000  1.0 0.0713996989
C  C55  1  0.68897000  0.59713000  0.73343000  1.0 -0.1682057175
C  C56  1  0.70085000  0.61125000  0.70267000  1.0 0.050081264
C  C57  1  0.72674000  0.59350000  0.68522000  1.0 -0.1613044325
C  C58  1  0.73955000  0.56239000  0.70001000  1.0 0.0778603431
C  C59  1  0.68992000  0.49096000  0.80874000  1.0 0.2019168111
C  C60  1  0.75100000  0.51904000  0.79594000  1.0 0.0713996989
C  C61  1  0.76200000  0.52324000  0.81176000  1.0 -0.1682057175
C  C62  1  0.79333000  0.51589000  0.80299000  1.0 0.050081264
C  C63  1  0.81293000  0.50491000  0.77793000  1.0 -0.1613044325
C  C64  1  0.79998000  0.50062000  0.76438000  1.0 0.0713996989
C  C65  1  0.84686000  0.52260000  0.82022000  1.0 0.3673323514
C  C66  1  0.80714000  0.51814000  0.81966000  1.0 0.3615760468
C  C67  1  0.80636000  0.51556000  0.86374000  1.0 0.3673323514
C  C68  1  0.92152000  0.52996000  0.75818000  1.0 0.0778603431
C  C69  1  0.89082000  0.53216000  0.77240000  1.0 -0.1613044325
C  C70  1  0.87808000  0.52504000  0.80414000  1.0 0.050081264
C  C71  1  0.89619000  0.51779000  0.82017000  1.0 -0.1682057175
C  C72  1  0.92657000  0.51623000  0.80425000  1.0 0.0713996989
C  C73  1  0.78779000  0.51357000  0.94239000  1.0 0.0778603431
C  C74  1  0.80143000  0.51871000  0.91133000  1.0 -0.1613044325
C  C75  1  0.79174000  0.51050000  0.89740000  1.0 0.050081264
C  C76  1  0.76767000  0.49815000  0.91577000  1.0 -0.1682057175
C  C77  1  0.75595000  0.49307000  0.94703000  1.0 0.0713996989
C  C78  1  0.97692000  0.49474000  0.70922000  1.0 0.2069062416
C  C79  1  0.64407000  0.68627000  0.48305000  1.0 0.3673323514
C  C80  1  0.56620000  0.70376000  0.48368000  1.0 0.0713996989
C  C81  1  0.59713000  0.68897000  0.48047000  1.0 -0.1613044325
C  C82  1  0.61125000  0.70085000  0.48523000  1.0 0.050081264
C  C83  1  0.59350000  0.72674000  0.49454000  1.0 -0.1613044325
C  C84  1  0.56239000  0.73955000  0.49805000  1.0 0.0778603431
C  C85  1  0.49096000  0.68992000  0.51038000  1.0 0.2019168111
C  C86  1  0.51904000  0.75100000  0.43402000  1.0 0.0713996989
C  C87  1  0.52324000  0.76200000  0.40300000  1.0 -0.1682057175
C  C88  1  0.51589000  0.79333000  0.38779000  1.0 0.050081264
C  C89  1  0.50491000  0.81293000  0.40423000  1.0 -0.1613044325
C  C90  1  0.50062000  0.79998000  0.43502000  1.0 0.0713996989
C  C91  1  0.52260000  0.84686000  0.31032000  1.0 0.3673323514
C  C92  1  0.51814000  0.80714000  0.35506000  1.0 0.3615760468
C  C93  1  0.51556000  0.80636000  0.31434000  1.0 0.3673323514
C  C94  1  0.52996000  0.92152000  0.29034000  1.0 0.0778603431
C  C95  1  0.53216000  0.89082000  0.30462000  1.0 -0.1613044325
C  C96  1  0.52504000  0.87808000  0.29274000  1.0 0.044503191
C  C97  1  0.51779000  0.89619000  0.26585000  1.0 -0.1682057175
C  C98  1  0.51623000  0.92657000  0.25295000  1.0 0.0713996989
C  C99  1  0.51357000  0.78779000  0.25625000  1.0 0.0778603431
C  C100  1  0.51871000  0.80143000  0.26853000  1.0 -0.1613044325
C  C101  1  0.51050000  0.79174000  0.30036000  1.0 0.050081264
C  C102  1  0.49815000  0.76767000  0.31841000  1.0 -0.1682057175
C  C103  1  0.49307000  0.75595000  0.30395000  1.0 0.0713996989
C  C104  1  0.49474000  0.97692000  0.31912000  1.0 0.2069062416
C  C105  1  0.68627000  0.68661000  0.48305000  1.0 0.3673323514
C  C106  1  0.70376000  0.74636000  0.48368000  1.0 0.0713996989
C  C107  1  0.68897000  0.73343000  0.48047000  1.0 -0.1613044325
C  C108  1  0.70085000  0.70267000  0.48523000  1.0 0.050081264
C  C109  1  0.72674000  0.68522000  0.49454000  1.0 -0.1613044325
C  C110  1  0.73955000  0.70001000  0.49805000  1.0 0.0778603431
C  C111  1  0.68992000  0.80874000  0.51038000  1.0 0.2019168111
C  C112  1  0.75100000  0.79594000  0.43402000  1.0 0.0713996989
C  C113  1  0.76200000  0.81176000  0.40300000  1.0 -0.1682057175
C  C114  1  0.79333000  0.80299000  0.38779000  1.0 0.050081264
C  C115  1  0.81293000  0.77793000  0.40423000  1.0 -0.1613044325
C  C116  1  0.79998000  0.76438000  0.43502000  1.0 0.0713996989
C  C117  1  0.84686000  0.82022000  0.31032000  1.0 0.3673323514
C  C118  1  0.80714000  0.81966000  0.35506000  1.0 0.3615760468
C  C119  1  0.80636000  0.86374000  0.31434000  1.0 0.3673323514
C  C120  1  0.92152000  0.75818000  0.29034000  1.0 0.0778603431
C  C121  1  0.89082000  0.77240000  0.30462000  1.0 -0.1613044325
C  C122  1  0.87808000  0.80414000  0.29274000  1.0 0.044503191
C  C123  1  0.89619000  0.82017000  0.26585000  1.0 -0.1682057175
C  C124  1  0.92657000  0.80425000  0.25295000  1.0 0.0713996989
C  C125  1  0.78779000  0.94239000  0.25625000  1.0 0.0778603431
C  C126  1  0.80143000  0.91133000  0.26853000  1.0 -0.1613044325
C  C127  1  0.79174000  0.89740000  0.30036000  1.0 0.050081264
C  C128  1  0.76767000  0.91577000  0.31841000  1.0 -0.1682057175
C  C129  1  0.75595000  0.94703000  0.30395000  1.0 0.0713996989
C  C130  1  0.97692000  0.70922000  0.31912000  1.0 0.2019168111
C  C131  1  0.64407000  0.48305000  0.68661000  1.0 0.3673323514
C  C132  1  0.56620000  0.48368000  0.74636000  1.0 0.0713996989
C  C133  1  0.59713000  0.48047000  0.73343000  1.0 -0.1613044325
C  C134  1  0.61125000  0.48523000  0.70267000  1.0 0.050081264
C  C135  1  0.59350000  0.49454000  0.68522000  1.0 -0.1613044325
C  C136  1  0.56239000  0.49805000  0.70001000  1.0 0.0778603431
C  C137  1  0.49096000  0.51038000  0.80874000  1.0 0.2019168111
C  C138  1  0.51904000  0.43402000  0.79594000  1.0 0.0713996989
C  C139  1  0.52324000  0.40300000  0.81176000  1.0 -0.1682057175
C  C140  1  0.51589000  0.38779000  0.80299000  1.0 0.050081264
C  C141  1  0.50491000  0.40423000  0.77793000  1.0 -0.1613044325
C  C142  1  0.50062000  0.43502000  0.76438000  1.0 0.0713996989
C  C143  1  0.52260000  0.31032000  0.82022000  1.0 0.3615760468
C  C144  1  0.51814000  0.35506000  0.81966000  1.0 0.3615760468
C  C145  1  0.51556000  0.31434000  0.86374000  1.0 0.3673323514
C  C146  1  0.52996000  0.29034000  0.75818000  1.0 0.0778603431
C  C147  1  0.53216000  0.30462000  0.77240000  1.0 -0.1613044325
C  C148  1  0.52504000  0.29274000  0.80414000  1.0 0.044503191
C  C149  1  0.51779000  0.26585000  0.82017000  1.0 -0.1682057175
C  C150  1  0.51623000  0.25295000  0.80425000  1.0 0.0713996989
C  C151  1  0.51357000  0.25625000  0.94239000  1.0 0.0778603431
C  C152  1  0.51871000  0.26853000  0.91133000  1.0 -0.1613044325
C  C153  1  0.51050000  0.30036000  0.89740000  1.0 0.050081264
C  C154  1  0.49815000  0.31841000  0.91577000  1.0 -0.1682057175
C  C155  1  0.49307000  0.30395000  0.94703000  1.0 0.0713996989
C  C156  1  0.49474000  0.31912000  0.70922000  1.0 0.2069062416
C  C157  1  0.68661000  0.68627000  0.64407000  1.0 0.3673323514
C  C158  1  0.74636000  0.70376000  0.56620000  1.0 0.0713996989
C  C159  1  0.73343000  0.68897000  0.59713000  1.0 -0.1682057175
C  C160  1  0.70267000  0.70085000  0.61125000  1.0 0.050081264
C  C161  1  0.68522000  0.72674000  0.59350000  1.0 -0.1613044325
C  C162  1  0.70001000  0.73955000  0.56239000  1.0 0.0778603431
C  C163  1  0.80874000  0.68992000  0.49096000  1.0 0.2019168111
C  C164  1  0.79594000  0.75100000  0.51904000  1.0 0.0713996989
C  C165  1  0.81176000  0.76200000  0.52324000  1.0 -0.1682057175
C  C166  1  0.80299000  0.79333000  0.51589000  1.0 0.050081264
C  C167  1  0.77793000  0.81293000  0.50491000  1.0 -0.1613044325
C  C168  1  0.76438000  0.79998000  0.50062000  1.0 0.0713996989
C  C169  1  0.82022000  0.84686000  0.52260000  1.0 0.3673323514
C  C170  1  0.81966000  0.80714000  0.51814000  1.0 0.3615760468
C  C171  1  0.86374000  0.80636000  0.51556000  1.0 0.3673323514
C  C172  1  0.75818000  0.92152000  0.52996000  1.0 0.0778603431
C  C173  1  0.77240000  0.89082000  0.53216000  1.0 -0.1613044325
C  C174  1  0.80414000  0.87808000  0.52504000  1.0 0.044503191
C  C175  1  0.82017000  0.89619000  0.51779000  1.0 -0.1682057175
C  C176  1  0.80425000  0.92657000  0.51623000  1.0 0.0713996989
C  C177  1  0.94239000  0.78779000  0.51357000  1.0 0.0778603431
C  C178  1  0.91133000  0.80143000  0.51871000  1.0 -0.1613044325
C  C179  1  0.89740000  0.79174000  0.51050000  1.0 0.050081264
C  C180  1  0.91577000  0.76767000  0.49815000  1.0 -0.1682057175
C  C181  1  0.94703000  0.75595000  0.49307000  1.0 0.0713996989
C  C182  1  0.70922000  0.97692000  0.49474000  1.0 0.2069062416
C  C183  1  0.48305000  0.64407000  0.68627000  1.0 0.3673323514
C  C184  1  0.48368000  0.56620000  0.70376000  1.0 0.0713996989
C  C185  1  0.48047000  0.59713000  0.68897000  1.0 -0.1682057175
C  C186  1  0.48523000  0.61125000  0.70085000  1.0 0.050081264
C  C187  1  0.49454000  0.59350000  0.72674000  1.0 -0.1613044325
C  C188  1  0.49805000  0.56239000  0.73955000  1.0 0.0778603431
C  C189  1  0.51038000  0.49096000  0.68992000  1.0 0.2019168111
C  C190  1  0.43402000  0.51904000  0.75100000  1.0 0.0713996989
C  C191  1  0.40300000  0.52324000  0.76200000  1.0 -0.1682057175
C  C192  1  0.38779000  0.51589000  0.79333000  1.0 0.050081264
C  C193  1  0.40423000  0.50491000  0.81293000  1.0 -0.1613044325
C  C194  1  0.43502000  0.50062000  0.79998000  1.0 0.0713996989
C  C195  1  0.31032000  0.52260000  0.84686000  1.0 0.3673323514
C  C196  1  0.35506000  0.51814000  0.80714000  1.0 0.3615760468
C  C197  1  0.31434000  0.51556000  0.80636000  1.0 0.3673323514
C  C198  1  0.29034000  0.52996000  0.92152000  1.0 0.0778603431
C  C199  1  0.30462000  0.53216000  0.89082000  1.0 -0.1613044325
C  C200  1  0.29274000  0.52504000  0.87808000  1.0 0.044503191
C  C201  1  0.26585000  0.51779000  0.89619000  1.0 -0.1682057175
C  C202  1  0.25295000  0.51623000  0.92657000  1.0 0.0713996989
C  C203  1  0.25625000  0.51357000  0.78779000  1.0 0.0778603431
C  C204  1  0.26853000  0.51871000  0.80143000  1.0 -0.1613044325
C  C205  1  0.30036000  0.51050000  0.79174000  1.0 0.050081264
C  C206  1  0.31841000  0.49815000  0.76767000  1.0 -0.1682057175
C  C207  1  0.30395000  0.49307000  0.75595000  1.0 0.0713996989
C  C208  1  0.31912000  0.49474000  0.97692000  1.0 0.2069062416
C  C209  1  0.48305000  0.68627000  0.68661000  1.0 0.3673323514
C  C210  1  0.48368000  0.70376000  0.74636000  1.0 0.0713996989
C  C211  1  0.48047000  0.68897000  0.73343000  1.0 -0.1682057175
C  C212  1  0.48523000  0.70085000  0.70267000  1.0 0.050081264
C  C213  1  0.49454000  0.72674000  0.68522000  1.0 -0.1613044325
C  C214  1  0.49805000  0.73955000  0.70001000  1.0 0.0778603431
C  C215  1  0.51038000  0.68992000  0.80874000  1.0 0.2019168111
C  C216  1  0.43402000  0.75100000  0.79594000  1.0 0.0713996989
C  C217  1  0.40300000  0.76200000  0.81176000  1.0 -0.1682057175
C  C218  1  0.38779000  0.79333000  0.80299000  1.0 0.050081264
C  C219  1  0.40423000  0.81293000  0.77793000  1.0 -0.1613044325
C  C220  1  0.43502000  0.79998000  0.76438000  1.0 0.0713996989
C  C221  1  0.31032000  0.84686000  0.82022000  1.0 0.3673323514
C  C222  1  0.35506000  0.80714000  0.81966000  1.0 0.3615760468
C  C223  1  0.31434000  0.80636000  0.86374000  1.0 0.3673323514
C  C224  1  0.29034000  0.92152000  0.75818000  1.0 0.0778603431
C  C225  1  0.30462000  0.89082000  0.77240000  1.0 -0.1613044325
C  C226  1  0.29274000  0.87808000  0.80414000  1.0 0.044503191
C  C227  1  0.26585000  0.89619000  0.82017000  1.0 -0.1682057175
C  C228  1  0.25295000  0.92657000  0.80425000  1.0 0.0713996989
C  C229  1  0.25625000  0.78779000  0.94239000  1.0 0.0778603431
C  C230  1  0.26853000  0.80143000  0.91133000  1.0 -0.1613044325
C  C231  1  0.30036000  0.79174000  0.89740000  1.0 0.050081264
C  C232  1  0.31841000  0.76767000  0.91577000  1.0 -0.1682057175
C  C233  1  0.30395000  0.75595000  0.94703000  1.0 0.0713996989
C  C234  1  0.31912000  0.97692000  0.70922000  1.0 0.2069062416
C  C235  1  0.68661000  0.64407000  0.48305000  1.0 0.3673323514
C  C236  1  0.74636000  0.56620000  0.48368000  1.0 0.0713996989
C  C237  1  0.73343000  0.59713000  0.48047000  1.0 -0.1613044325
C  C238  1  0.70267000  0.61125000  0.48523000  1.0 0.050081264
C  C239  1  0.68522000  0.59350000  0.49454000  1.0 -0.1613044325
C  C240  1  0.70001000  0.56239000  0.49805000  1.0 0.0778603431
C  C241  1  0.80874000  0.49096000  0.51038000  1.0 0.2019168111
C  C242  1  0.79594000  0.51904000  0.43402000  1.0 0.0713996989
C  C243  1  0.81176000  0.52324000  0.40300000  1.0 -0.1682057175
C  C244  1  0.80299000  0.51589000  0.38779000  1.0 0.050081264
C  C245  1  0.77793000  0.50491000  0.40423000  1.0 -0.1613044325
C  C246  1  0.76438000  0.50062000  0.43502000  1.0 0.0713996989
C  C247  1  0.82022000  0.52260000  0.31032000  1.0 0.3673323514
C  C248  1  0.81966000  0.51814000  0.35506000  1.0 0.3615760468
C  C249  1  0.86374000  0.51556000  0.31434000  1.0 0.3673323514
C  C250  1  0.75818000  0.52996000  0.29034000  1.0 0.0778603431
C  C251  1  0.77240000  0.53216000  0.30462000  1.0 -0.1613044325
C  C252  1  0.80414000  0.52504000  0.29274000  1.0 0.044503191
C  C253  1  0.82017000  0.51779000  0.26585000  1.0 -0.1682057175
C  C254  1  0.80425000  0.51623000  0.25295000  1.0 0.0713996989
C  C255  1  0.94239000  0.51357000  0.25625000  1.0 0.0778603431
C  C256  1  0.91133000  0.51871000  0.26853000  1.0 -0.1613044325
C  C257  1  0.89740000  0.51050000  0.30036000  1.0 0.050081264
C  C258  1  0.91577000  0.49815000  0.31841000  1.0 -0.1682057175
C  C259  1  0.94703000  0.49307000  0.30395000  1.0 0.0713996989
C  C260  1  0.70922000  0.49474000  0.31912000  1.0 0.2069062416
C  C261  1  0.64407000  0.68661000  0.68627000  1.0 0.3673323514
C  C262  1  0.56620000  0.74636000  0.70376000  1.0 0.0713996989
C  C263  1  0.59713000  0.73343000  0.68897000  1.0 -0.1682057175
C  C264  1  0.61125000  0.70267000  0.70085000  1.0 0.050081264
C  C265  1  0.59350000  0.68522000  0.72674000  1.0 -0.1613044325
C  C266  1  0.56239000  0.70001000  0.73955000  1.0 0.0778603431
C  C267  1  0.49096000  0.80874000  0.68992000  1.0 0.2019168111
C  C268  1  0.51904000  0.79594000  0.75100000  1.0 0.0713996989
C  C269  1  0.52324000  0.81176000  0.76200000  1.0 -0.1682057175
C  C270  1  0.51589000  0.80299000  0.79333000  1.0 0.050081264
C  C271  1  0.50491000  0.77793000  0.81293000  1.0 -0.1613044325
C  C272  1  0.50062000  0.76438000  0.79998000  1.0 0.0713996989
C  C273  1  0.52260000  0.82022000  0.84686000  1.0 0.3673323514
C  C274  1  0.51814000  0.81966000  0.80714000  1.0 0.3615760468
C  C275  1  0.51556000  0.86374000  0.80636000  1.0 0.3673323514
C  C276  1  0.52996000  0.75818000  0.92152000  1.0 0.0778603431
C  C277  1  0.53216000  0.77240000  0.89082000  1.0 -0.1613044325
C  C278  1  0.52504000  0.80414000  0.87808000  1.0 0.044503191
C  C279  1  0.51779000  0.82017000  0.89619000  1.0 -0.1682057175
C  C280  1  0.51623000  0.80425000  0.92657000  1.0 0.0713996989
C  C281  1  0.51357000  0.94239000  0.78779000  1.0 0.0778603431
C  C282  1  0.51871000  0.91133000  0.80143000  1.0 -0.1613044325
C  C283  1  0.51050000  0.89740000  0.79174000  1.0 0.050081264
C  C284  1  0.49815000  0.91577000  0.76767000  1.0 -0.1682057175
C  C285  1  0.49307000  0.94703000  0.75595000  1.0 0.0713996989
C  C286  1  0.49474000  0.70922000  0.97692000  1.0 0.2069062416
C  C287  1  0.68627000  0.48305000  0.64407000  1.0 0.3673323514
C  C288  1  0.70376000  0.48368000  0.56620000  1.0 0.0713996989
C  C289  1  0.68897000  0.48047000  0.59713000  1.0 -0.1613044325
C  C290  1  0.70085000  0.48523000  0.61125000  1.0 0.050081264
C  C291  1  0.72674000  0.49454000  0.59350000  1.0 -0.1613044325
C  C292  1  0.73955000  0.49805000  0.56239000  1.0 0.0778603431
C  C293  1  0.68992000  0.51038000  0.49096000  1.0 0.2019168111
C  C294  1  0.75100000  0.43402000  0.51904000  1.0 0.0713996989
C  C295  1  0.76200000  0.40300000  0.52324000  1.0 -0.1682057175
C  C296  1  0.79333000  0.38779000  0.51589000  1.0 0.050081264
C  C297  1  0.81293000  0.40423000  0.50491000  1.0 -0.1613044325
C  C298  1  0.79998000  0.43502000  0.50062000  1.0 0.0713996989
C  C299  1  0.84686000  0.31032000  0.52260000  1.0 0.3673323514
C  C300  1  0.80714000  0.35506000  0.51814000  1.0 0.3615760468
C  C301  1  0.80636000  0.31434000  0.51556000  1.0 0.3673323514
C  C302  1  0.92152000  0.29034000  0.52996000  1.0 0.0778603431
C  C303  1  0.89082000  0.30462000  0.53216000  1.0 -0.1613044325
C  C304  1  0.87808000  0.29274000  0.52504000  1.0 0.044503191
C  C305  1  0.89619000  0.26585000  0.51779000  1.0 -0.1682057175
C  C306  1  0.92657000  0.25295000  0.51623000  1.0 0.0713996989
C  C307  1  0.78779000  0.25625000  0.51357000  1.0 0.0778603431
C  C308  1  0.80143000  0.26853000  0.51871000  1.0 -0.1613044325
C  C309  1  0.79174000  0.30036000  0.51050000  1.0 0.050081264
C  C310  1  0.76767000  0.31841000  0.49815000  1.0 -0.1682057175
C  C311  1  0.75595000  0.30395000  0.49307000  1.0 0.0713996989
C  C312  1  0.97692000  0.31912000  0.49474000  1.0 0.2069062416
C  C313  1  0.81339000  0.01695000  0.85593000  1.0 0.3673323514
C  C314  1  0.75364000  0.01632000  0.93380000  1.0 0.0713996989
C  C315  1  0.76657000  0.01953000  0.90287000  1.0 -0.1682057175
C  C316  1  0.79733000  0.01477000  0.88875000  1.0 0.050081264
C  C317  1  0.81478000  0.00546000  0.90650000  1.0 -0.1613044325
C  C318  1  0.79999000  0.00195000  0.93761000  1.0 0.0778603431
C  C319  1  0.69126000  0.98962000  0.00904000  1.0 0.2019168111
C  C320  1  0.70406000  0.06598000  0.98096000  1.0 0.0713996989
C  C321  1  0.68824000  0.09700000  0.97676000  1.0 -0.1682057175
C  C322  1  0.69701000  0.11221000  0.98411000  1.0 0.050081264
C  C323  1  0.72207000  0.09577000  0.99509000  1.0 -0.1613044325
C  C324  1  0.73562000  0.06498000  0.99938000  1.0 0.0713996989
C  C325  1  0.67978000  0.18968000  0.97740000  1.0 0.3615760468
C  C326  1  0.68034000  0.14494000  0.98186000  1.0 0.3615760468
C  C327  1  0.63626000  0.18566000  0.98444000  1.0 0.3673323514
C  C328  1  0.74182000  0.20966000  0.97004000  1.0 0.0778603431
C  C329  1  0.72760000  0.19538000  0.96784000  1.0 -0.1613044325
C  C330  1  0.69586000  0.20726000  0.97496000  1.0 0.050081264
C  C331  1  0.67983000  0.23415000  0.98221000  1.0 -0.1682057175
C  C332  1  0.69575000  0.24705000  0.98377000  1.0 0.0713996989
C  C333  1  0.55761000  0.24375000  0.98643000  1.0 0.0778603431
C  C334  1  0.58867000  0.23147000  0.98129000  1.0 -0.1613044325
C  C335  1  0.60260000  0.19964000  0.98950000  1.0 0.050081264
C  C336  1  0.58423000  0.18159000  0.00185000  1.0 -0.1682057175
C  C337  1  0.55297000  0.19605000  0.00693000  1.0 0.0713996989
C  C338  1  0.79078000  0.18088000  0.00526000  1.0 0.2069062416
C  C339  1  0.01695000  0.81339000  0.81373000  1.0 0.3673323514
C  C340  1  0.01632000  0.75364000  0.79624000  1.0 0.0713996989
C  C341  1  0.01953000  0.76657000  0.81103000  1.0 -0.1682057175
C  C342  1  0.01477000  0.79733000  0.79915000  1.0 0.050081264
C  C343  1  0.00546000  0.81478000  0.77326000  1.0 -0.1613044325
C  C344  1  0.00195000  0.79999000  0.76045000  1.0 0.0778603431
C  C345  1  0.98962000  0.69126000  0.81008000  1.0 0.2019168111
C  C346  1  0.06598000  0.70406000  0.74900000  1.0 0.0713996989
C  C347  1  0.09700000  0.68824000  0.73800000  1.0 -0.1682057175
C  C348  1  0.11221000  0.69701000  0.70667000  1.0 0.050081264
C  C349  1  0.09577000  0.72207000  0.68707000  1.0 -0.1613044325
C  C350  1  0.06498000  0.73562000  0.70002000  1.0 0.0713996989
C  C351  1  0.18968000  0.67978000  0.65314000  1.0 0.3673323514
C  C352  1  0.14494000  0.68034000  0.69286000  1.0 0.3615760468
C  C353  1  0.18566000  0.63626000  0.69364000  1.0 0.3673323514
C  C354  1  0.20966000  0.74182000  0.57848000  1.0 0.0778603431
C  C355  1  0.19538000  0.72760000  0.60918000  1.0 -0.1613044325
C  C356  1  0.20726000  0.69586000  0.62192000  1.0 0.044503191
C  C357  1  0.23415000  0.67983000  0.60381000  1.0 -0.1682057175
C  C358  1  0.24705000  0.69575000  0.57343000  1.0 0.0713996989
C  C359  1  0.24375000  0.55761000  0.71221000  1.0 0.0778603431
C  C360  1  0.23147000  0.58867000  0.69857000  1.0 -0.1613044325
C  C361  1  0.19964000  0.60260000  0.70826000  1.0 0.050081264
C  C362  1  0.18159000  0.58423000  0.73233000  1.0 -0.1682057175
C  C363  1  0.19605000  0.55297000  0.74405000  1.0 0.0713996989
C  C364  1  0.18088000  0.79078000  0.52308000  1.0 0.2069062416
C  C365  1  0.81373000  0.85593000  0.01695000  1.0 0.3673323514
C  C366  1  0.79624000  0.93380000  0.01632000  1.0 0.0713996989
C  C367  1  0.81103000  0.90287000  0.01953000  1.0 -0.1613044325
C  C368  1  0.79915000  0.88875000  0.01477000  1.0 0.050081264
C  C369  1  0.77326000  0.90650000  0.00546000  1.0 -0.1613044325
C  C370  1  0.76045000  0.93761000  0.00195000  1.0 0.0778603431
C  C371  1  0.81008000  0.00904000  0.98962000  1.0 0.2019168111
C  C372  1  0.74900000  0.98096000  0.06598000  1.0 0.0713996989
C  C373  1  0.73800000  0.97676000  0.09700000  1.0 -0.1682057175
C  C374  1  0.70667000  0.98411000  0.11221000  1.0 0.050081264
C  C375  1  0.68707000  0.99509000  0.09577000  1.0 -0.1613044325
C  C376  1  0.70002000  0.99938000  0.06498000  1.0 0.0713996989
C  C377  1  0.65314000  0.97740000  0.18968000  1.0 0.3673323514
C  C378  1  0.69286000  0.98186000  0.14494000  1.0 0.3615760468
C  C379  1  0.69364000  0.98444000  0.18566000  1.0 0.3673323514
C  C380  1  0.57848000  0.97004000  0.20966000  1.0 0.0778603431
C  C381  1  0.60918000  0.96784000  0.19538000  1.0 -0.1613044325
C  C382  1  0.62192000  0.97496000  0.20726000  1.0 0.044503191
C  C383  1  0.60381000  0.98221000  0.23415000  1.0 -0.1682057175
C  C384  1  0.57343000  0.98377000  0.24705000  1.0 0.0713996989
C  C385  1  0.71221000  0.98643000  0.24375000  1.0 0.0778603431
C  C386  1  0.69857000  0.98129000  0.23147000  1.0 -0.1613044325
C  C387  1  0.70826000  0.98950000  0.19964000  1.0 0.050081264
C  C388  1  0.73233000  0.00185000  0.18159000  1.0 -0.1682057175
C  C389  1  0.74405000  0.00693000  0.19605000  1.0 0.0713996989
C  C390  1  0.52308000  0.00526000  0.18088000  1.0 0.2069062416
C  C391  1  0.85593000  0.81373000  0.81339000  1.0 0.3673323514
C  C392  1  0.93380000  0.79624000  0.75364000  1.0 0.0713996989
C  C393  1  0.90287000  0.81103000  0.76657000  1.0 -0.1613044325
C  C394  1  0.88875000  0.79915000  0.79733000  1.0 0.050081264
C  C395  1  0.90650000  0.77326000  0.81478000  1.0 -0.1613044325
C  C396  1  0.93761000  0.76045000  0.79999000  1.0 0.0778603431
C  C397  1  0.00904000  0.81008000  0.69126000  1.0 0.2019168111
C  C398  1  0.98096000  0.74900000  0.70406000  1.0 0.0713996989
C  C399  1  0.97676000  0.73800000  0.68824000  1.0 -0.1682057175
C  C400  1  0.98411000  0.70667000  0.69701000  1.0 0.050081264
C  C401  1  0.99509000  0.68707000  0.72207000  1.0 -0.1613044325
C  C402  1  0.99938000  0.70002000  0.73562000  1.0 0.0713996989
C  C403  1  0.97740000  0.65314000  0.67978000  1.0 0.3673323514
C  C404  1  0.98186000  0.69286000  0.68034000  1.0 0.3615760468
C  C405  1  0.98444000  0.69364000  0.63626000  1.0 0.3673323514
C  C406  1  0.97004000  0.57848000  0.74182000  1.0 0.0778603431
C  C407  1  0.96784000  0.60918000  0.72760000  1.0 -0.1613044325
C  C408  1  0.97496000  0.62192000  0.69586000  1.0 0.044503191
C  C409  1  0.98221000  0.60381000  0.67983000  1.0 -0.1682057175
C  C410  1  0.98377000  0.57343000  0.69575000  1.0 0.0713996989
C  C411  1  0.98643000  0.71221000  0.55761000  1.0 0.0778603431
C  C412  1  0.98129000  0.69857000  0.58867000  1.0 -0.1613044325
C  C413  1  0.98950000  0.70826000  0.60260000  1.0 0.050081264
C  C414  1  0.00185000  0.73233000  0.58423000  1.0 -0.1682057175
C  C415  1  0.00693000  0.74405000  0.55297000  1.0 0.0713996989
C  C416  1  0.00526000  0.52308000  0.79078000  1.0 0.2069062416
C  C417  1  0.81373000  0.81339000  0.85593000  1.0 0.3673323514
C  C418  1  0.79624000  0.75364000  0.93380000  1.0 0.0713996989
C  C419  1  0.81103000  0.76657000  0.90287000  1.0 -0.1613044325
C  C420  1  0.79915000  0.79733000  0.88875000  1.0 0.050081264
C  C421  1  0.77326000  0.81478000  0.90650000  1.0 -0.1613044325
C  C422  1  0.76045000  0.79999000  0.93761000  1.0 0.0778603431
C  C423  1  0.81008000  0.69126000  0.00904000  1.0 0.2019168111
C  C424  1  0.74900000  0.70406000  0.98096000  1.0 0.0713996989
C  C425  1  0.73800000  0.68824000  0.97676000  1.0 -0.1682057175
C  C426  1  0.70667000  0.69701000  0.98411000  1.0 0.050081264
C  C427  1  0.68707000  0.72207000  0.99509000  1.0 -0.1613044325
C  C428  1  0.70002000  0.73562000  0.99938000  1.0 0.0713996989
C  C429  1  0.65314000  0.67978000  0.97740000  1.0 0.3673323514
C  C430  1  0.69286000  0.68034000  0.98186000  1.0 0.3615760468
C  C431  1  0.69364000  0.63626000  0.98444000  1.0 0.3673323514
C  C432  1  0.57848000  0.74182000  0.97004000  1.0 0.0778603431
C  C433  1  0.60918000  0.72760000  0.96784000  1.0 -0.1613044325
C  C434  1  0.62192000  0.69586000  0.97496000  1.0 0.050081264
C  C435  1  0.60381000  0.67983000  0.98221000  1.0 -0.1682057175
C  C436  1  0.57343000  0.69575000  0.98377000  1.0 0.0713996989
C  C437  1  0.71221000  0.55761000  0.98643000  1.0 0.0778603431
C  C438  1  0.69857000  0.58867000  0.98129000  1.0 -0.1613044325
C  C439  1  0.70826000  0.60260000  0.98950000  1.0 0.050081264
C  C440  1  0.73233000  0.58423000  0.00185000  1.0 -0.1682057175
C  C441  1  0.74405000  0.55297000  0.00693000  1.0 0.0713996989
C  C442  1  0.52308000  0.79078000  0.00526000  1.0 0.2069062416
C  C443  1  0.85593000  0.01695000  0.81373000  1.0 0.3673323514
C  C444  1  0.93380000  0.01632000  0.79624000  1.0 0.0713996989
C  C445  1  0.90287000  0.01953000  0.81103000  1.0 -0.1682057175
C  C446  1  0.88875000  0.01477000  0.79915000  1.0 0.050081264
C  C447  1  0.90650000  0.00546000  0.77326000  1.0 -0.1613044325
C  C448  1  0.93761000  0.00195000  0.76045000  1.0 0.0778603431
C  C449  1  0.00904000  0.98962000  0.81008000  1.0 0.2019168111
C  C450  1  0.98096000  0.06598000  0.74900000  1.0 0.0713996989
C  C451  1  0.97676000  0.09700000  0.73800000  1.0 -0.1682057175
C  C452  1  0.98411000  0.11221000  0.70667000  1.0 0.050081264
C  C453  1  0.99509000  0.09577000  0.68707000  1.0 -0.1613044325
C  C454  1  0.99938000  0.06498000  0.70002000  1.0 0.0713996989
C  C455  1  0.97740000  0.18968000  0.65314000  1.0 0.3673323514
C  C456  1  0.98186000  0.14494000  0.69286000  1.0 0.3615760468
C  C457  1  0.98444000  0.18566000  0.69364000  1.0 0.3673323514
C  C458  1  0.97004000  0.20966000  0.57848000  1.0 0.0778603431
C  C459  1  0.96784000  0.19538000  0.60918000  1.0 -0.1613044325
C  C460  1  0.97496000  0.20726000  0.62192000  1.0 0.050081264
C  C461  1  0.98221000  0.23415000  0.60381000  1.0 -0.1682057175
C  C462  1  0.98377000  0.24705000  0.57343000  1.0 0.0713996989
C  C463  1  0.98643000  0.24375000  0.71221000  1.0 0.0778603431
C  C464  1  0.98129000  0.23147000  0.69857000  1.0 -0.1613044325
C  C465  1  0.98950000  0.19964000  0.70826000  1.0 0.050081264
C  C466  1  0.00185000  0.18159000  0.73233000  1.0 -0.1682057175
C  C467  1  0.00693000  0.19605000  0.74405000  1.0 0.0713996989
C  C468  1  0.00526000  0.18088000  0.52308000  1.0 0.2069062416
C  C469  1  0.81339000  0.81373000  0.01695000  1.0 0.3673323514
C  C470  1  0.75364000  0.79624000  0.01632000  1.0 0.0713996989
C  C471  1  0.76657000  0.81103000  0.01953000  1.0 -0.1682057175
C  C472  1  0.79733000  0.79915000  0.01477000  1.0 0.050081264
C  C473  1  0.81478000  0.77326000  0.00546000  1.0 -0.1613044325
C  C474  1  0.79999000  0.76045000  0.00195000  1.0 0.0778603431
C  C475  1  0.69126000  0.81008000  0.98962000  1.0 0.2019168111
C  C476  1  0.70406000  0.74900000  0.06598000  1.0 0.0713996989
C  C477  1  0.68824000  0.73800000  0.09700000  1.0 -0.1682057175
C  C478  1  0.69701000  0.70667000  0.11221000  1.0 0.050081264
C  C479  1  0.72207000  0.68707000  0.09577000  1.0 -0.1613044325
C  C480  1  0.73562000  0.70002000  0.06498000  1.0 0.0713996989
C  C481  1  0.67978000  0.65314000  0.18968000  1.0 0.3673323514
C  C482  1  0.68034000  0.69286000  0.14494000  1.0 0.3615760468
C  C483  1  0.63626000  0.69364000  0.18566000  1.0 0.3673323514
C  C484  1  0.74182000  0.57848000  0.20966000  1.0 0.0778603431
C  C485  1  0.72760000  0.60918000  0.19538000  1.0 -0.1613044325
C  C486  1  0.69586000  0.62192000  0.20726000  1.0 0.044503191
C  C487  1  0.67983000  0.60381000  0.23415000  1.0 -0.1682057175
C  C488  1  0.69575000  0.57343000  0.24705000  1.0 0.0713996989
C  C489  1  0.55761000  0.71221000  0.24375000  1.0 0.0778603431
C  C490  1  0.58867000  0.69857000  0.23147000  1.0 -0.1613044325
C  C491  1  0.60260000  0.70826000  0.19964000  1.0 0.050081264
C  C492  1  0.58423000  0.73233000  0.18159000  1.0 -0.1682057175
C  C493  1  0.55297000  0.74405000  0.19605000  1.0 0.0713996989
C  C494  1  0.79078000  0.52308000  0.18088000  1.0 0.2069062416
C  C495  1  0.01695000  0.85593000  0.81339000  1.0 0.3673323514
C  C496  1  0.01632000  0.93380000  0.75364000  1.0 0.0713996989
C  C497  1  0.01953000  0.90287000  0.76657000  1.0 -0.1682057175
C  C498  1  0.01477000  0.88875000  0.79733000  1.0 0.050081264
C  C499  1  0.00546000  0.90650000  0.81478000  1.0 -0.1613044325
C  C500  1  0.00195000  0.93761000  0.79999000  1.0 0.0778603431
C  C501  1  0.98962000  0.00904000  0.69126000  1.0 0.2019168111
C  C502  1  0.06598000  0.98096000  0.70406000  1.0 0.0713996989
C  C503  1  0.09700000  0.97676000  0.68824000  1.0 -0.1682057175
C  C504  1  0.11221000  0.98411000  0.69701000  1.0 0.050081264
C  C505  1  0.09577000  0.99509000  0.72207000  1.0 -0.1613044325
C  C506  1  0.06498000  0.99938000  0.73562000  1.0 0.0713996989
C  C507  1  0.18968000  0.97740000  0.67978000  1.0 0.3673323514
C  C508  1  0.14494000  0.98186000  0.68034000  1.0 0.3615760468
C  C509  1  0.18566000  0.98444000  0.63626000  1.0 0.3673323514
C  C510  1  0.20966000  0.97004000  0.74182000  1.0 0.0778603431
C  C511  1  0.19538000  0.96784000  0.72760000  1.0 -0.1613044325
C  C512  1  0.20726000  0.97496000  0.69586000  1.0 0.044503191
C  C513  1  0.23415000  0.98221000  0.67983000  1.0 -0.1682057175
C  C514  1  0.24705000  0.98377000  0.69575000  1.0 0.0713996989
C  C515  1  0.24375000  0.98643000  0.55761000  1.0 0.0778603431
C  C516  1  0.23147000  0.98129000  0.58867000  1.0 -0.1613044325
C  C517  1  0.19964000  0.98950000  0.60260000  1.0 0.050081264
C  C518  1  0.18159000  0.00185000  0.58423000  1.0 -0.1682057175
C  C519  1  0.19605000  0.00693000  0.55297000  1.0 0.0713996989
C  C520  1  0.18088000  0.00526000  0.79078000  1.0 0.2069062416
C  C521  1  0.01695000  0.81373000  0.85593000  1.0 0.3673323514
C  C522  1  0.01632000  0.79624000  0.93380000  1.0 0.0713996989
C  C523  1  0.01953000  0.81103000  0.90287000  1.0 -0.1682057175
C  C524  1  0.01477000  0.79915000  0.88875000  1.0 0.050081264
C  C525  1  0.00546000  0.77326000  0.90650000  1.0 -0.1613044325
C  C526  1  0.00195000  0.76045000  0.93761000  1.0 0.0778603431
C  C527  1  0.98962000  0.81008000  0.00904000  1.0 0.2019168111
C  C528  1  0.06598000  0.74900000  0.98096000  1.0 0.0713996989
C  C529  1  0.09700000  0.73800000  0.97676000  1.0 -0.1682057175
C  C530  1  0.11221000  0.70667000  0.98411000  1.0 0.050081264
C  C531  1  0.09577000  0.68707000  0.99509000  1.0 -0.1613044325
C  C532  1  0.06498000  0.70002000  0.99938000  1.0 0.0713996989
C  C533  1  0.18968000  0.65314000  0.97740000  1.0 0.3673323514
C  C534  1  0.14494000  0.69286000  0.98186000  1.0 0.3615760468
C  C535  1  0.18566000  0.69364000  0.98444000  1.0 0.3673323514
C  C536  1  0.20966000  0.57848000  0.97004000  1.0 0.0778603431
C  C537  1  0.19538000  0.60918000  0.96784000  1.0 -0.1613044325
C  C538  1  0.20726000  0.62192000  0.97496000  1.0 0.044503191
C  C539  1  0.23415000  0.60381000  0.98221000  1.0 -0.1682057175
C  C540  1  0.24705000  0.57343000  0.98377000  1.0 0.0713996989
C  C541  1  0.24375000  0.71221000  0.98643000  1.0 0.0778603431
C  C542  1  0.23147000  0.69857000  0.98129000  1.0 -0.1613044325
C  C543  1  0.19964000  0.70826000  0.98950000  1.0 0.050081264
C  C544  1  0.18159000  0.73233000  0.00185000  1.0 -0.1682057175
C  C545  1  0.19605000  0.74405000  0.00693000  1.0 0.0713996989
C  C546  1  0.18088000  0.52308000  0.00526000  1.0 0.2069062416
C  C547  1  0.81339000  0.85593000  0.81373000  1.0 0.3673323514
C  C548  1  0.75364000  0.93380000  0.79624000  1.0 0.0713996989
C  C549  1  0.76657000  0.90287000  0.81103000  1.0 -0.1613044325
C  C550  1  0.79733000  0.88875000  0.79915000  1.0 0.050081264
C  C551  1  0.81478000  0.90650000  0.77326000  1.0 -0.1613044325
C  C552  1  0.79999000  0.93761000  0.76045000  1.0 0.0778603431
C  C553  1  0.69126000  0.00904000  0.81008000  1.0 0.2019168111
C  C554  1  0.70406000  0.98096000  0.74900000  1.0 0.0713996989
C  C555  1  0.68824000  0.97676000  0.73800000  1.0 -0.1682057175
C  C556  1  0.69701000  0.98411000  0.70667000  1.0 0.050081264
C  C557  1  0.72207000  0.99509000  0.68707000  1.0 -0.1613044325
C  C558  1  0.73562000  0.99938000  0.70002000  1.0 0.0713996989
C  C559  1  0.67978000  0.97740000  0.65314000  1.0 0.3673323514
C  C560  1  0.68034000  0.98186000  0.69286000  1.0 0.3615760468
C  C561  1  0.63626000  0.98444000  0.69364000  1.0 0.3673323514
C  C562  1  0.74182000  0.97004000  0.57848000  1.0 0.0778603431
C  C563  1  0.72760000  0.96784000  0.60918000  1.0 -0.1613044325
C  C564  1  0.69586000  0.97496000  0.62192000  1.0 0.044503191
C  C565  1  0.67983000  0.98221000  0.60381000  1.0 -0.1682057175
C  C566  1  0.69575000  0.98377000  0.57343000  1.0 0.0713996989
C  C567  1  0.55761000  0.98643000  0.71221000  1.0 0.0778603431
C  C568  1  0.58867000  0.98129000  0.69857000  1.0 -0.1613044325
C  C569  1  0.60260000  0.98950000  0.70826000  1.0 0.050081264
C  C570  1  0.58423000  0.00185000  0.73233000  1.0 -0.1682057175
C  C571  1  0.55297000  0.00693000  0.74405000  1.0 0.0713996989
C  C572  1  0.79078000  0.00526000  0.52308000  1.0 0.2019168111
C  C573  1  0.85593000  0.81339000  0.01695000  1.0 0.3673323514
C  C574  1  0.93380000  0.75364000  0.01632000  1.0 0.0713996989
C  C575  1  0.90287000  0.76657000  0.01953000  1.0 -0.1613044325
C  C576  1  0.88875000  0.79733000  0.01477000  1.0 0.050081264
C  C577  1  0.90650000  0.81478000  0.00546000  1.0 -0.1613044325
C  C578  1  0.93761000  0.79999000  0.00195000  1.0 0.0778603431
C  C579  1  0.00904000  0.69126000  0.98962000  1.0 0.2019168111
C  C580  1  0.98096000  0.70406000  0.06598000  1.0 0.0713996989
C  C581  1  0.97676000  0.68824000  0.09700000  1.0 -0.1682057175
C  C582  1  0.98411000  0.69701000  0.11221000  1.0 0.050081264
C  C583  1  0.99509000  0.72207000  0.09577000  1.0 -0.1613044325
C  C584  1  0.99938000  0.73562000  0.06498000  1.0 0.0713996989
C  C585  1  0.97740000  0.67978000  0.18968000  1.0 0.3673323514
C  C586  1  0.98186000  0.68034000  0.14494000  1.0 0.3615760468
C  C587  1  0.98444000  0.63626000  0.18566000  1.0 0.3673323514
C  C588  1  0.97004000  0.74182000  0.20966000  1.0 0.0778603431
C  C589  1  0.96784000  0.72760000  0.19538000  1.0 -0.1613044325
C  C590  1  0.97496000  0.69586000  0.20726000  1.0 0.044503191
C  C591  1  0.98221000  0.67983000  0.23415000  1.0 -0.1682057175
C  C592  1  0.98377000  0.69575000  0.24705000  1.0 0.0713996989
C  C593  1  0.98643000  0.55761000  0.24375000  1.0 0.0778603431
C  C594  1  0.98129000  0.58867000  0.23147000  1.0 -0.1613044325
C  C595  1  0.98950000  0.60260000  0.19964000  1.0 0.050081264
C  C596  1  0.00185000  0.58423000  0.18159000  1.0 -0.1682057175
C  C597  1  0.00693000  0.55297000  0.19605000  1.0 0.0713996989
C  C598  1  0.00526000  0.79078000  0.18088000  1.0 0.2069062416
C  C599  1  0.81373000  0.01695000  0.81339000  1.0 0.3673323514
C  C600  1  0.79624000  0.01632000  0.75364000  1.0 0.0713996989
C  C601  1  0.81103000  0.01953000  0.76657000  1.0 -0.1613044325
C  C602  1  0.79915000  0.01477000  0.79733000  1.0 0.050081264
C  C603  1  0.77326000  0.00546000  0.81478000  1.0 -0.1613044325
C  C604  1  0.76045000  0.00195000  0.79999000  1.0 0.0778603431
C  C605  1  0.81008000  0.98962000  0.69126000  1.0 0.2019168111
C  C606  1  0.74900000  0.06598000  0.70406000  1.0 0.0713996989
C  C607  1  0.73800000  0.09700000  0.68824000  1.0 -0.1682057175
C  C608  1  0.70667000  0.11221000  0.69701000  1.0 0.050081264
C  C609  1  0.68707000  0.09577000  0.72207000  1.0 -0.1613044325
C  C610  1  0.70002000  0.06498000  0.73562000  1.0 0.0713996989
C  C611  1  0.65314000  0.18968000  0.67978000  1.0 0.3615760468
C  C612  1  0.69286000  0.14494000  0.68034000  1.0 0.3615760468
C  C613  1  0.69364000  0.18566000  0.63626000  1.0 0.3673323514
C  C614  1  0.57848000  0.20966000  0.74182000  1.0 0.0778603431
C  C615  1  0.60918000  0.19538000  0.72760000  1.0 -0.1613044325
C  C616  1  0.62192000  0.20726000  0.69586000  1.0 0.044503191
C  C617  1  0.60381000  0.23415000  0.67983000  1.0 -0.1682057175
C  C618  1  0.57343000  0.24705000  0.69575000  1.0 0.0713996989
C  C619  1  0.71221000  0.24375000  0.55761000  1.0 0.0778603431
C  C620  1  0.69857000  0.23147000  0.58867000  1.0 -0.1613044325
C  C621  1  0.70826000  0.19964000  0.60260000  1.0 0.050081264
C  C622  1  0.73233000  0.18159000  0.58423000  1.0 -0.1682057175
C  C623  1  0.74405000  0.19605000  0.55297000  1.0 0.0713996989
C  C624  1  0.52308000  0.18088000  0.79078000  1.0 0.2019168111
C  C625  1  0.31339000  0.51695000  0.31373000  1.0 0.3673323514
C  C626  1  0.25364000  0.51632000  0.29624000  1.0 0.0713996989
C  C627  1  0.26657000  0.51953000  0.31103000  1.0 -0.1682057175
C  C628  1  0.29733000  0.51477000  0.29915000  1.0 0.050081264
C  C629  1  0.31478000  0.50546000  0.27326000  1.0 -0.1613044325
C  C630  1  0.29999000  0.50195000  0.26045000  1.0 0.0778603431
C  C631  1  0.19126000  0.48962000  0.31008000  1.0 0.2019168111
C  C632  1  0.20406000  0.56598000  0.24900000  1.0 0.0713996989
C  C633  1  0.18824000  0.59700000  0.23800000  1.0 -0.1682057175
C  C634  1  0.19701000  0.61221000  0.20667000  1.0 0.050081264
C  C635  1  0.22207000  0.59577000  0.18707000  1.0 -0.1613044325
C  C636  1  0.23562000  0.56498000  0.20002000  1.0 0.0713996989
C  C637  1  0.17978000  0.68968000  0.15314000  1.0 0.3673323514
C  C638  1  0.18034000  0.64494000  0.19286000  1.0 0.3615760468
C  C639  1  0.13626000  0.68566000  0.19364000  1.0 0.3673323514
C  C640  1  0.24182000  0.70966000  0.07848000  1.0 0.0778603431
C  C641  1  0.22760000  0.69538000  0.10918000  1.0 -0.1613044325
C  C642  1  0.19586000  0.70726000  0.12192000  1.0 0.044503191
C  C643  1  0.17983000  0.73415000  0.10381000  1.0 -0.1682057175
C  C644  1  0.19575000  0.74705000  0.07343000  1.0 0.0713996989
C  C645  1  0.05761000  0.74375000  0.21221000  1.0 0.0778603431
C  C646  1  0.08867000  0.73147000  0.19857000  1.0 -0.1613044325
C  C647  1  0.10260000  0.69964000  0.20826000  1.0 0.050081264
C  C648  1  0.08423000  0.68159000  0.23233000  1.0 -0.1682057175
C  C649  1  0.05297000  0.69605000  0.24405000  1.0 0.0713996989
C  C650  1  0.29078000  0.68088000  0.02308000  1.0 0.2069062416
C  C651  1  0.51695000  0.31339000  0.35593000  1.0 0.3673323514
C  C652  1  0.51632000  0.25364000  0.43380000  1.0 0.0713996989
C  C653  1  0.51953000  0.26657000  0.40287000  1.0 -0.1613044325
C  C654  1  0.51477000  0.29733000  0.38875000  1.0 0.050081264
C  C655  1  0.50546000  0.31478000  0.40650000  1.0 -0.1613044325
C  C656  1  0.50195000  0.29999000  0.43761000  1.0 0.0778603431
C  C657  1  0.48962000  0.19126000  0.50904000  1.0 0.2019168111
C  C658  1  0.56598000  0.20406000  0.48096000  1.0 0.0713996989
C  C659  1  0.59700000  0.18824000  0.47676000  1.0 -0.1682057175
C  C660  1  0.61221000  0.19701000  0.48411000  1.0 0.050081264
C  C661  1  0.59577000  0.22207000  0.49509000  1.0 -0.1613044325
C  C662  1  0.56498000  0.23562000  0.49938000  1.0 0.0713996989
C  C663  1  0.68968000  0.17978000  0.47740000  1.0 0.3673323514
C  C664  1  0.64494000  0.18034000  0.48186000  1.0 0.3615760468
C  C665  1  0.68566000  0.13626000  0.48444000  1.0 0.3673323514
C  C666  1  0.70966000  0.24182000  0.47004000  1.0 0.0778603431
C  C667  1  0.69538000  0.22760000  0.46784000  1.0 -0.1613044325
C  C668  1  0.70726000  0.19586000  0.47496000  1.0 0.044503191
C  C669  1  0.73415000  0.17983000  0.48221000  1.0 -0.1682057175
C  C670  1  0.74705000  0.19575000  0.48377000  1.0 0.0713996989
C  C671  1  0.74375000  0.05761000  0.48643000  1.0 0.0778603431
C  C672  1  0.73147000  0.08867000  0.48129000  1.0 -0.1613044325
C  C673  1  0.69964000  0.10260000  0.48950000  1.0 0.050081264
C  C674  1  0.68159000  0.08423000  0.50185000  1.0 -0.1682057175
C  C675  1  0.69605000  0.05297000  0.50693000  1.0 0.0713996989
C  C676  1  0.68088000  0.29078000  0.50526000  1.0 0.2069062416
C  C677  1  0.31373000  0.35593000  0.31339000  1.0 0.3673323514
C  C678  1  0.29624000  0.43380000  0.25364000  1.0 0.0713996989
C  C679  1  0.31103000  0.40287000  0.26657000  1.0 -0.1613044325
C  C680  1  0.29915000  0.38875000  0.29733000  1.0 0.050081264
C  C681  1  0.27326000  0.40650000  0.31478000  1.0 -0.1613044325
C  C682  1  0.26045000  0.43761000  0.29999000  1.0 0.0778603431
C  C683  1  0.31008000  0.50904000  0.19126000  1.0 0.2019168111
C  C684  1  0.24900000  0.48096000  0.20406000  1.0 0.0713996989
C  C685  1  0.23800000  0.47676000  0.18824000  1.0 -0.1682057175
C  C686  1  0.20667000  0.48411000  0.19701000  1.0 0.050081264
C  C687  1  0.18707000  0.49509000  0.22207000  1.0 -0.1613044325
C  C688  1  0.20002000  0.49938000  0.23562000  1.0 0.0713996989
C  C689  1  0.15314000  0.47740000  0.17978000  1.0 0.3673323514
C  C690  1  0.19286000  0.48186000  0.18034000  1.0 0.3615760468
C  C691  1  0.19364000  0.48444000  0.13626000  1.0 0.3673323514
C  C692  1  0.07848000  0.47004000  0.24182000  1.0 0.0778603431
C  C693  1  0.10918000  0.46784000  0.22760000  1.0 -0.1613044325
C  C694  1  0.12192000  0.47496000  0.19586000  1.0 0.044503191
C  C695  1  0.10381000  0.48221000  0.17983000  1.0 -0.1682057175
C  C696  1  0.07343000  0.48377000  0.19575000  1.0 0.0713996989
C  C697  1  0.21221000  0.48643000  0.05761000  1.0 0.0778603431
C  C698  1  0.19857000  0.48129000  0.08867000  1.0 -0.1613044325
C  C699  1  0.20826000  0.48950000  0.10260000  1.0 0.050081264
C  C700  1  0.23233000  0.50185000  0.08423000  1.0 -0.1682057175
C  C701  1  0.24405000  0.50693000  0.05297000  1.0 0.0713996989
C  C702  1  0.02308000  0.50526000  0.29078000  1.0 0.2069062416
C  C703  1  0.35593000  0.31373000  0.51695000  1.0 0.3673323514
C  C704  1  0.43380000  0.29624000  0.51632000  1.0 0.0713996989
C  C705  1  0.40287000  0.31103000  0.51953000  1.0 -0.1613044325
C  C706  1  0.38875000  0.29915000  0.51477000  1.0 0.050081264
C  C707  1  0.40650000  0.27326000  0.50546000  1.0 -0.1613044325
C  C708  1  0.43761000  0.26045000  0.50195000  1.0 0.0778603431
C  C709  1  0.50904000  0.31008000  0.48962000  1.0 0.2019168111
C  C710  1  0.48096000  0.24900000  0.56598000  1.0 0.0713996989
C  C711  1  0.47676000  0.23800000  0.59700000  1.0 -0.1682057175
C  C712  1  0.48411000  0.20667000  0.61221000  1.0 0.050081264
C  C713  1  0.49509000  0.18707000  0.59577000  1.0 -0.1613044325
C  C714  1  0.49938000  0.20002000  0.56498000  1.0 0.0713996989
C  C715  1  0.47740000  0.15314000  0.68968000  1.0 0.3673323514
C  C716  1  0.48186000  0.19286000  0.64494000  1.0 0.3615760468
C  C717  1  0.48444000  0.19364000  0.68566000  1.0 0.3673323514
C  C718  1  0.47004000  0.07848000  0.70966000  1.0 0.0778603431
C  C719  1  0.46784000  0.10918000  0.69538000  1.0 -0.1613044325
C  C720  1  0.47496000  0.12192000  0.70726000  1.0 0.050081264
C  C721  1  0.48221000  0.10381000  0.73415000  1.0 -0.1682057175
C  C722  1  0.48377000  0.07343000  0.74705000  1.0 0.0713996989
C  C723  1  0.48643000  0.21221000  0.74375000  1.0 0.0778603431
C  C724  1  0.48129000  0.19857000  0.73147000  1.0 -0.1613044325
C  C725  1  0.48950000  0.20826000  0.69964000  1.0 0.050081264
C  C726  1  0.50185000  0.23233000  0.68159000  1.0 -0.1682057175
C  C727  1  0.50693000  0.24405000  0.69605000  1.0 0.0713996989
C  C728  1  0.50526000  0.02308000  0.68088000  1.0 0.2069062416
C  C729  1  0.31373000  0.31339000  0.51695000  1.0 0.3673323514
C  C730  1  0.29624000  0.25364000  0.51632000  1.0 0.0713996989
C  C731  1  0.31103000  0.26657000  0.51953000  1.0 -0.1613044325
C  C732  1  0.29915000  0.29733000  0.51477000  1.0 0.050081264
C  C733  1  0.27326000  0.31478000  0.50546000  1.0 -0.1613044325
C  C734  1  0.26045000  0.29999000  0.50195000  1.0 0.0778603431
C  C735  1  0.31008000  0.19126000  0.48962000  1.0 0.2019168111
C  C736  1  0.24900000  0.20406000  0.56598000  1.0 0.0713996989
C  C737  1  0.23800000  0.18824000  0.59700000  1.0 -0.1682057175
C  C738  1  0.20667000  0.19701000  0.61221000  1.0 0.050081264
C  C739  1  0.18707000  0.22207000  0.59577000  1.0 -0.1613044325
C  C740  1  0.20002000  0.23562000  0.56498000  1.0 0.0713996989
C  C741  1  0.15314000  0.17978000  0.68968000  1.0 0.3673323514
C  C742  1  0.19286000  0.18034000  0.64494000  1.0 0.3615760468
C  C743  1  0.19364000  0.13626000  0.68566000  1.0 0.3673323514
C  C744  1  0.07848000  0.24182000  0.70966000  1.0 0.0778603431
C  C745  1  0.10918000  0.22760000  0.69538000  1.0 -0.1613044325
C  C746  1  0.12192000  0.19586000  0.70726000  1.0 0.044503191
C  C747  1  0.10381000  0.17983000  0.73415000  1.0 -0.1682057175
C  C748  1  0.07343000  0.19575000  0.74705000  1.0 0.0713996989
C  C749  1  0.21221000  0.05761000  0.74375000  1.0 0.0778603431
C  C750  1  0.19857000  0.08867000  0.73147000  1.0 -0.1613044325
C  C751  1  0.20826000  0.10260000  0.69964000  1.0 0.050081264
C  C752  1  0.23233000  0.08423000  0.68159000  1.0 -0.1682057175
C  C753  1  0.24405000  0.05297000  0.69605000  1.0 0.0713996989
C  C754  1  0.02308000  0.29078000  0.68088000  1.0 0.2069062416
C  C755  1  0.35593000  0.51695000  0.31339000  1.0 0.3673323514
C  C756  1  0.43380000  0.51632000  0.25364000  1.0 0.0713996989
C  C757  1  0.40287000  0.51953000  0.26657000  1.0 -0.1613044325
C  C758  1  0.38875000  0.51477000  0.29733000  1.0 0.050081264
C  C759  1  0.40650000  0.50546000  0.31478000  1.0 -0.1613044325
C  C760  1  0.43761000  0.50195000  0.29999000  1.0 0.0778603431
C  C761  1  0.50904000  0.48962000  0.19126000  1.0 0.2019168111
C  C762  1  0.48096000  0.56598000  0.20406000  1.0 0.0713996989
C  C763  1  0.47676000  0.59700000  0.18824000  1.0 -0.1682057175
C  C764  1  0.48411000  0.61221000  0.19701000  1.0 0.050081264
C  C765  1  0.49509000  0.59577000  0.22207000  1.0 -0.1613044325
C  C766  1  0.49938000  0.56498000  0.23562000  1.0 0.0713996989
C  C767  1  0.47740000  0.68968000  0.17978000  1.0 0.3673323514
C  C768  1  0.48186000  0.64494000  0.18034000  1.0 0.3615760468
C  C769  1  0.48444000  0.68566000  0.13626000  1.0 0.3673323514
C  C770  1  0.47004000  0.70966000  0.24182000  1.0 0.0778603431
C  C771  1  0.46784000  0.69538000  0.22760000  1.0 -0.1613044325
C  C772  1  0.47496000  0.70726000  0.19586000  1.0 0.044503191
C  C773  1  0.48221000  0.73415000  0.17983000  1.0 -0.1682057175
C  C774  1  0.48377000  0.74705000  0.19575000  1.0 0.0713996989
C  C775  1  0.48643000  0.74375000  0.05761000  1.0 0.0778603431
C  C776  1  0.48129000  0.73147000  0.08867000  1.0 -0.1613044325
C  C777  1  0.48950000  0.69964000  0.10260000  1.0 0.050081264
C  C778  1  0.50185000  0.68159000  0.08423000  1.0 -0.1682057175
C  C779  1  0.50693000  0.69605000  0.05297000  1.0 0.0713996989
C  C780  1  0.50526000  0.68088000  0.29078000  1.0 0.2069062416
C  C781  1  0.31339000  0.31373000  0.35593000  1.0 0.3673323514
C  C782  1  0.25364000  0.29624000  0.43380000  1.0 0.0713996989
C  C783  1  0.26657000  0.31103000  0.40287000  1.0 -0.1613044325
C  C784  1  0.29733000  0.29915000  0.38875000  1.0 0.050081264
C  C785  1  0.31478000  0.27326000  0.40650000  1.0 -0.1613044325
C  C786  1  0.29999000  0.26045000  0.43761000  1.0 0.0778603431
C  C787  1  0.19126000  0.31008000  0.50904000  1.0 0.2019168111
C  C788  1  0.20406000  0.24900000  0.48096000  1.0 0.0713996989
C  C789  1  0.18824000  0.23800000  0.47676000  1.0 -0.1682057175
C  C790  1  0.19701000  0.20667000  0.48411000  1.0 0.050081264
C  C791  1  0.22207000  0.18707000  0.49509000  1.0 -0.1613044325
C  C792  1  0.23562000  0.20002000  0.49938000  1.0 0.0713996989
C  C793  1  0.17978000  0.15314000  0.47740000  1.0 0.3673323514
C  C794  1  0.18034000  0.19286000  0.48186000  1.0 0.3615760468
C  C795  1  0.13626000  0.19364000  0.48444000  1.0 0.3673323514
C  C796  1  0.24182000  0.07848000  0.47004000  1.0 0.0778603431
C  C797  1  0.22760000  0.10918000  0.46784000  1.0 -0.1613044325
C  C798  1  0.19586000  0.12192000  0.47496000  1.0 0.044503191
C  C799  1  0.17983000  0.10381000  0.48221000  1.0 -0.1682057175
C  C800  1  0.19575000  0.07343000  0.48377000  1.0 0.0713996989
C  C801  1  0.05761000  0.21221000  0.48643000  1.0 0.0778603431
C  C802  1  0.08867000  0.19857000  0.48129000  1.0 -0.1613044325
C  C803  1  0.10260000  0.20826000  0.48950000  1.0 0.050081264
C  C804  1  0.08423000  0.23233000  0.50185000  1.0 -0.1682057175
C  C805  1  0.05297000  0.24405000  0.50693000  1.0 0.0713996989
C  C806  1  0.29078000  0.02308000  0.50526000  1.0 0.2069062416
C  C807  1  0.51695000  0.35593000  0.31373000  1.0 0.3673323514
C  C808  1  0.51632000  0.43380000  0.29624000  1.0 0.0713996989
C  C809  1  0.51953000  0.40287000  0.31103000  1.0 -0.1613044325
C  C810  1  0.51477000  0.38875000  0.29915000  1.0 0.050081264
C  C811  1  0.50546000  0.40650000  0.27326000  1.0 -0.1613044325
C  C812  1  0.50195000  0.43761000  0.26045000  1.0 0.0778603431
C  C813  1  0.48962000  0.50904000  0.31008000  1.0 0.2019168111
C  C814  1  0.56598000  0.48096000  0.24900000  1.0 0.0713996989
C  C815  1  0.59700000  0.47676000  0.23800000  1.0 -0.1682057175
C  C816  1  0.61221000  0.48411000  0.20667000  1.0 0.050081264
C  C817  1  0.59577000  0.49509000  0.18707000  1.0 -0.1613044325
C  C818  1  0.56498000  0.49938000  0.20002000  1.0 0.0713996989
C  C819  1  0.68968000  0.47740000  0.15314000  1.0 0.3673323514
C  C820  1  0.64494000  0.48186000  0.19286000  1.0 0.3615760468
C  C821  1  0.68566000  0.48444000  0.19364000  1.0 0.3673323514
C  C822  1  0.70966000  0.47004000  0.07848000  1.0 0.0778603431
C  C823  1  0.69538000  0.46784000  0.10918000  1.0 -0.1613044325
C  C824  1  0.70726000  0.47496000  0.12192000  1.0 0.044503191
C  C825  1  0.73415000  0.48221000  0.10381000  1.0 -0.1682057175
C  C826  1  0.74705000  0.48377000  0.07343000  1.0 0.0713996989
C  C827  1  0.74375000  0.48643000  0.21221000  1.0 0.0778603431
C  C828  1  0.73147000  0.48129000  0.19857000  1.0 -0.1613044325
C  C829  1  0.69964000  0.48950000  0.20826000  1.0 0.050081264
C  C830  1  0.68159000  0.50185000  0.23233000  1.0 -0.1682057175
C  C831  1  0.69605000  0.50693000  0.24405000  1.0 0.0713996989
C  C832  1  0.68088000  0.50526000  0.02308000  1.0 0.2069062416
C  C833  1  0.51695000  0.31373000  0.31339000  1.0 0.3673323514
C  C834  1  0.51632000  0.29624000  0.25364000  1.0 0.0713996989
C  C835  1  0.51953000  0.31103000  0.26657000  1.0 -0.1613044325
C  C836  1  0.51477000  0.29915000  0.29733000  1.0 0.050081264
C  C837  1  0.50546000  0.27326000  0.31478000  1.0 -0.1613044325
C  C838  1  0.50195000  0.26045000  0.29999000  1.0 0.0778603431
C  C839  1  0.48962000  0.31008000  0.19126000  1.0 0.2019168111
C  C840  1  0.56598000  0.24900000  0.20406000  1.0 0.0713996989
C  C841  1  0.59700000  0.23800000  0.18824000  1.0 -0.1682057175
C  C842  1  0.61221000  0.20667000  0.19701000  1.0 0.050081264
C  C843  1  0.59577000  0.18707000  0.22207000  1.0 -0.1613044325
C  C844  1  0.56498000  0.20002000  0.23562000  1.0 0.0713996989
C  C845  1  0.68968000  0.15314000  0.17978000  1.0 0.3673323514
C  C846  1  0.64494000  0.19286000  0.18034000  1.0 0.3615760468
C  C847  1  0.68566000  0.19364000  0.13626000  1.0 0.3673323514
C  C848  1  0.70966000  0.07848000  0.24182000  1.0 0.0778603431
C  C849  1  0.69538000  0.10918000  0.22760000  1.0 -0.1613044325
C  C850  1  0.70726000  0.12192000  0.19586000  1.0 0.044503191
C  C851  1  0.73415000  0.10381000  0.17983000  1.0 -0.1682057175
C  C852  1  0.74705000  0.07343000  0.19575000  1.0 0.0713996989
C  C853  1  0.74375000  0.21221000  0.05761000  1.0 0.0778603431
C  C854  1  0.73147000  0.19857000  0.08867000  1.0 -0.1613044325
C  C855  1  0.69964000  0.20826000  0.10260000  1.0 0.050081264
C  C856  1  0.68159000  0.23233000  0.08423000  1.0 -0.1682057175
C  C857  1  0.69605000  0.24405000  0.05297000  1.0 0.0713996989
C  C858  1  0.68088000  0.02308000  0.29078000  1.0 0.2069062416
C  C859  1  0.31339000  0.35593000  0.51695000  1.0 0.3673323514
C  C860  1  0.25364000  0.43380000  0.51632000  1.0 0.0713996989
C  C861  1  0.26657000  0.40287000  0.51953000  1.0 -0.1682057175
C  C862  1  0.29733000  0.38875000  0.51477000  1.0 0.050081264
C  C863  1  0.31478000  0.40650000  0.50546000  1.0 -0.1613044325
C  C864  1  0.29999000  0.43761000  0.50195000  1.0 0.0778603431
C  C865  1  0.19126000  0.50904000  0.48962000  1.0 0.2019168111
C  C866  1  0.20406000  0.48096000  0.56598000  1.0 0.0713996989
C  C867  1  0.18824000  0.47676000  0.59700000  1.0 -0.1682057175
C  C868  1  0.19701000  0.48411000  0.61221000  1.0 0.050081264
C  C869  1  0.22207000  0.49509000  0.59577000  1.0 -0.1613044325
C  C870  1  0.23562000  0.49938000  0.56498000  1.0 0.0713996989
C  C871  1  0.17978000  0.47740000  0.68968000  1.0 0.3673323514
C  C872  1  0.18034000  0.48186000  0.64494000  1.0 0.3615760468
C  C873  1  0.13626000  0.48444000  0.68566000  1.0 0.3673323514
C  C874  1  0.24182000  0.47004000  0.70966000  1.0 0.0778603431
C  C875  1  0.22760000  0.46784000  0.69538000  1.0 -0.1613044325
C  C876  1  0.19586000  0.47496000  0.70726000  1.0 0.044503191
C  C877  1  0.17983000  0.48221000  0.73415000  1.0 -0.1682057175
C  C878  1  0.19575000  0.48377000  0.74705000  1.0 0.0713996989
C  C879  1  0.05761000  0.48643000  0.74375000  1.0 0.0778603431
C  C880  1  0.08867000  0.48129000  0.73147000  1.0 -0.1613044325
C  C881  1  0.10260000  0.48950000  0.69964000  1.0 0.050081264
C  C882  1  0.08423000  0.50185000  0.68159000  1.0 -0.1682057175
C  C883  1  0.05297000  0.50693000  0.69605000  1.0 0.0713996989
C  C884  1  0.29078000  0.50526000  0.68088000  1.0 0.2069062416
C  C885  1  0.35593000  0.31339000  0.31373000  1.0 0.3673323514
C  C886  1  0.43380000  0.25364000  0.29624000  1.0 0.0713996989
C  C887  1  0.40287000  0.26657000  0.31103000  1.0 -0.1682057175
C  C888  1  0.38875000  0.29733000  0.29915000  1.0 0.050081264
C  C889  1  0.40650000  0.31478000  0.27326000  1.0 -0.1613044325
C  C890  1  0.43761000  0.29999000  0.26045000  1.0 0.0778603431
C  C891  1  0.50904000  0.19126000  0.31008000  1.0 0.2019168111
C  C892  1  0.48096000  0.20406000  0.24900000  1.0 0.0713996989
C  C893  1  0.47676000  0.18824000  0.23800000  1.0 -0.1682057175
C  C894  1  0.48411000  0.19701000  0.20667000  1.0 0.050081264
C  C895  1  0.49509000  0.22207000  0.18707000  1.0 -0.1613044325
C  C896  1  0.49938000  0.23562000  0.20002000  1.0 0.0713996989
C  C897  1  0.47740000  0.17978000  0.15314000  1.0 0.3673323514
C  C898  1  0.48186000  0.18034000  0.19286000  1.0 0.3615760468
C  C899  1  0.48444000  0.13626000  0.19364000  1.0 0.3673323514
C  C900  1  0.47004000  0.24182000  0.07848000  1.0 0.0778603431
C  C901  1  0.46784000  0.22760000  0.10918000  1.0 -0.1613044325
C  C902  1  0.47496000  0.19586000  0.12192000  1.0 0.044503191
C  C903  1  0.48221000  0.17983000  0.10381000  1.0 -0.1682057175
C  C904  1  0.48377000  0.19575000  0.07343000  1.0 0.0713996989
C  C905  1  0.48643000  0.05761000  0.21221000  1.0 0.0778603431
C  C906  1  0.48129000  0.08867000  0.19857000  1.0 -0.1613044325
C  C907  1  0.48950000  0.10260000  0.20826000  1.0 0.050081264
C  C908  1  0.50185000  0.08423000  0.23233000  1.0 -0.1682057175
C  C909  1  0.50693000  0.05297000  0.24405000  1.0 0.0713996989
C  C910  1  0.50526000  0.29078000  0.02308000  1.0 0.2069062416
C  C911  1  0.31373000  0.51695000  0.35593000  1.0 0.3673323514
C  C912  1  0.29624000  0.51632000  0.43380000  1.0 0.0713996989
C  C913  1  0.31103000  0.51953000  0.40287000  1.0 -0.1682057175
C  C914  1  0.29915000  0.51477000  0.38875000  1.0 0.050081264
C  C915  1  0.27326000  0.50546000  0.40650000  1.0 -0.1613044325
C  C916  1  0.26045000  0.50195000  0.43761000  1.0 0.0778603431
C  C917  1  0.31008000  0.48962000  0.50904000  1.0 0.2019168111
C  C918  1  0.24900000  0.56598000  0.48096000  1.0 0.0713996989
C  C919  1  0.23800000  0.59700000  0.47676000  1.0 -0.1682057175
C  C920  1  0.20667000  0.61221000  0.48411000  1.0 0.050081264
C  C921  1  0.18707000  0.59577000  0.49509000  1.0 -0.1613044325
C  C922  1  0.20002000  0.56498000  0.49938000  1.0 0.0713996989
C  C923  1  0.15314000  0.68968000  0.47740000  1.0 0.3673323514
C  C924  1  0.19286000  0.64494000  0.48186000  1.0 0.3615760468
C  C925  1  0.19364000  0.68566000  0.48444000  1.0 0.3673323514
C  C926  1  0.07848000  0.70966000  0.47004000  1.0 0.0778603431
C  C927  1  0.10918000  0.69538000  0.46784000  1.0 -0.1613044325
C  C928  1  0.12192000  0.70726000  0.47496000  1.0 0.044503191
C  C929  1  0.10381000  0.73415000  0.48221000  1.0 -0.1682057175
C  C930  1  0.07343000  0.74705000  0.48377000  1.0 0.0713996989
C  C931  1  0.21221000  0.74375000  0.48643000  1.0 0.0778603431
C  C932  1  0.19857000  0.73147000  0.48129000  1.0 -0.1613044325
C  C933  1  0.20826000  0.69964000  0.48950000  1.0 0.050081264
C  C934  1  0.23233000  0.68159000  0.50185000  1.0 -0.1682057175
C  C935  1  0.24405000  0.69605000  0.50693000  1.0 0.0713996989
C  C936  1  0.02308000  0.68088000  0.50526000  1.0 0.2069062416
C  C937  1  0.18661000  0.98305000  0.14407000  1.0 0.3673323514
C  C938  1  0.24636000  0.98368000  0.06620000  1.0 0.0713996989
C  C939  1  0.23343000  0.98047000  0.09713000  1.0 -0.1613044325
C  C940  1  0.20267000  0.98523000  0.11125000  1.0 0.050081264
C  C941  1  0.18522000  0.99454000  0.09350000  1.0 -0.1613044325
C  C942  1  0.20001000  0.99805000  0.06239000  1.0 0.0778603431
C  C943  1  0.30874000  0.01038000  0.99096000  1.0 0.2019168111
C  C944  1  0.29594000  0.93402000  0.01904000  1.0 0.0713996989
C  C945  1  0.31176000  0.90300000  0.02324000  1.0 -0.1682057175
C  C946  1  0.30299000  0.88779000  0.01589000  1.0 0.050081264
C  C947  1  0.27793000  0.90423000  0.00491000  1.0 -0.1613044325
C  C948  1  0.26438000  0.93502000  0.00062000  1.0 0.0713996989
C  C949  1  0.32022000  0.81032000  0.02260000  1.0 0.3673323514
C  C950  1  0.31966000  0.85506000  0.01814000  1.0 0.3615760468
C  C951  1  0.36374000  0.81434000  0.01556000  1.0 0.3673323514
C  C952  1  0.25818000  0.79034000  0.02996000  1.0 0.0778603431
C  C953  1  0.27240000  0.80462000  0.03216000  1.0 -0.1613044325
C  C954  1  0.30414000  0.79274000  0.02504000  1.0 0.044503191
C  C955  1  0.32017000  0.76585000  0.01779000  1.0 -0.1682057175
C  C956  1  0.30425000  0.75295000  0.01623000  1.0 0.0713996989
C  C957  1  0.44239000  0.75625000  0.01357000  1.0 0.0778603431
C  C958  1  0.41133000  0.76853000  0.01871000  1.0 -0.1613044325
C  C959  1  0.39740000  0.80036000  0.01050000  1.0 0.050081264
C  C960  1  0.41577000  0.81841000  0.99815000  1.0 -0.1682057175
C  C961  1  0.44703000  0.80395000  0.99307000  1.0 0.0713996989
C  C962  1  0.20922000  0.81912000  0.99474000  1.0 0.2069062416
C  C963  1  0.98305000  0.18661000  0.18627000  1.0 0.3673323514
C  C964  1  0.98368000  0.24636000  0.20376000  1.0 0.0713996989
C  C965  1  0.98047000  0.23343000  0.18897000  1.0 -0.1613044325
C  C966  1  0.98523000  0.20267000  0.20085000  1.0 0.050081264
C  C967  1  0.99454000  0.18522000  0.22674000  1.0 -0.1613044325
C  C968  1  0.99805000  0.20001000  0.23955000  1.0 0.0778603431
C  C969  1  0.01038000  0.30874000  0.18992000  1.0 0.2019168111
C  C970  1  0.93402000  0.29594000  0.25100000  1.0 0.0713996989
C  C971  1  0.90300000  0.31176000  0.26200000  1.0 -0.1682057175
C  C972  1  0.88779000  0.30299000  0.29333000  1.0 0.050081264
C  C973  1  0.90423000  0.27793000  0.31293000  1.0 -0.1613044325
C  C974  1  0.93502000  0.26438000  0.29998000  1.0 0.0713996989
C  C975  1  0.81032000  0.32022000  0.34686000  1.0 0.3673323514
C  C976  1  0.85506000  0.31966000  0.30714000  1.0 0.3615760468
C  C977  1  0.81434000  0.36374000  0.30636000  1.0 0.3673323514
C  C978  1  0.79034000  0.25818000  0.42152000  1.0 0.0778603431
C  C979  1  0.80462000  0.27240000  0.39082000  1.0 -0.1613044325
C  C980  1  0.79274000  0.30414000  0.37808000  1.0 0.044503191
C  C981  1  0.76585000  0.32017000  0.39619000  1.0 -0.1682057175
C  C982  1  0.75295000  0.30425000  0.42657000  1.0 0.0713996989
C  C983  1  0.75625000  0.44239000  0.28779000  1.0 0.0778603431
C  C984  1  0.76853000  0.41133000  0.30143000  1.0 -0.1613044325
C  C985  1  0.80036000  0.39740000  0.29174000  1.0 0.050081264
C  C986  1  0.81841000  0.41577000  0.26767000  1.0 -0.1682057175
C  C987  1  0.80395000  0.44703000  0.25595000  1.0 0.0713996989
C  C988  1  0.81912000  0.20922000  0.47692000  1.0 0.2069062416
C  C989  1  0.18627000  0.14407000  0.98305000  1.0 0.3673323514
C  C990  1  0.20376000  0.06620000  0.98368000  1.0 0.0713996989
C  C991  1  0.18897000  0.09713000  0.98047000  1.0 -0.1613044325
C  C992  1  0.20085000  0.11125000  0.98523000  1.0 0.050081264
C  C993  1  0.22674000  0.09350000  0.99454000  1.0 -0.1613044325
C  C994  1  0.23955000  0.06239000  0.99805000  1.0 0.0778603431
C  C995  1  0.18992000  0.99096000  0.01038000  1.0 0.2019168111
C  C996  1  0.25100000  0.01904000  0.93402000  1.0 0.0713996989
C  C997  1  0.26200000  0.02324000  0.90300000  1.0 -0.1682057175
C  C998  1  0.29333000  0.01589000  0.88779000  1.0 0.050081264
C  C999  1  0.31293000  0.00491000  0.90423000  1.0 -0.1613044325
C  C1000  1  0.29998000  0.00062000  0.93502000  1.0 0.0713996989
C  C1001  1  0.34686000  0.02260000  0.81032000  1.0 0.3673323514
C  C1002  1  0.30714000  0.01814000  0.85506000  1.0 0.3615760468
C  C1003  1  0.30636000  0.01556000  0.81434000  1.0 0.3673323514
C  C1004  1  0.42152000  0.02996000  0.79034000  1.0 0.0778603431
C  C1005  1  0.39082000  0.03216000  0.80462000  1.0 -0.1613044325
C  C1006  1  0.37808000  0.02504000  0.79274000  1.0 0.044503191
C  C1007  1  0.39619000  0.01779000  0.76585000  1.0 -0.1682057175
C  C1008  1  0.42657000  0.01623000  0.75295000  1.0 0.0713996989
C  C1009  1  0.28779000  0.01357000  0.75625000  1.0 0.0778603431
C  C1010  1  0.30143000  0.01871000  0.76853000  1.0 -0.1613044325
C  C1011  1  0.29174000  0.01050000  0.80036000  1.0 0.050081264
C  C1012  1  0.26767000  0.99815000  0.81841000  1.0 -0.1682057175
C  C1013  1  0.25595000  0.99307000  0.80395000  1.0 0.0713996989
C  C1014  1  0.47692000  0.99474000  0.81912000  1.0 0.2069062416
C  C1015  1  0.14407000  0.18627000  0.18661000  1.0 0.3673323514
C  C1016  1  0.06620000  0.20376000  0.24636000  1.0 0.0713996989
C  C1017  1  0.09713000  0.18897000  0.23343000  1.0 -0.1682057175
C  C1018  1  0.11125000  0.20085000  0.20267000  1.0 0.050081264
C  C1019  1  0.09350000  0.22674000  0.18522000  1.0 -0.1613044325
C  C1020  1  0.06239000  0.23955000  0.20001000  1.0 0.0778603431
C  C1021  1  0.99096000  0.18992000  0.30874000  1.0 0.2019168111
C  C1022  1  0.01904000  0.25100000  0.29594000  1.0 0.0713996989
C  C1023  1  0.02324000  0.26200000  0.31176000  1.0 -0.1682057175
C  C1024  1  0.01589000  0.29333000  0.30299000  1.0 0.050081264
C  C1025  1  0.00491000  0.31293000  0.27793000  1.0 -0.1613044325
C  C1026  1  0.00062000  0.29998000  0.26438000  1.0 0.0713996989
C  C1027  1  0.02260000  0.34686000  0.32022000  1.0 0.3673323514
C  C1028  1  0.01814000  0.30714000  0.31966000  1.0 0.3615760468
C  C1029  1  0.01556000  0.30636000  0.36374000  1.0 0.3673323514
C  C1030  1  0.02996000  0.42152000  0.25818000  1.0 0.0778603431
C  C1031  1  0.03216000  0.39082000  0.27240000  1.0 -0.1613044325
C  C1032  1  0.02504000  0.37808000  0.30414000  1.0 0.044503191
C  C1033  1  0.01779000  0.39619000  0.32017000  1.0 -0.1682057175
C  C1034  1  0.01623000  0.42657000  0.30425000  1.0 0.0713996989
C  C1035  1  0.01357000  0.28779000  0.44239000  1.0 0.0778603431
C  C1036  1  0.01871000  0.30143000  0.41133000  1.0 -0.1613044325
C  C1037  1  0.01050000  0.29174000  0.39740000  1.0 0.050081264
C  C1038  1  0.99815000  0.26767000  0.41577000  1.0 -0.1682057175
C  C1039  1  0.99307000  0.25595000  0.44703000  1.0 0.0713996989
C  C1040  1  0.99474000  0.47692000  0.20922000  1.0 0.2069062416
C  C1041  1  0.18627000  0.18661000  0.14407000  1.0 0.3673323514
C  C1042  1  0.20376000  0.24636000  0.06620000  1.0 0.0713996989
C  C1043  1  0.18897000  0.23343000  0.09713000  1.0 -0.1613044325
C  C1044  1  0.20085000  0.20267000  0.11125000  1.0 0.050081264
C  C1045  1  0.22674000  0.18522000  0.09350000  1.0 -0.1613044325
C  C1046  1  0.23955000  0.20001000  0.06239000  1.0 0.0778603431
C  C1047  1  0.18992000  0.30874000  0.99096000  1.0 0.2019168111
C  C1048  1  0.25100000  0.29594000  0.01904000  1.0 0.0713996989
C  C1049  1  0.26200000  0.31176000  0.02324000  1.0 -0.1682057175
C  C1050  1  0.29333000  0.30299000  0.01589000  1.0 0.050081264
C  C1051  1  0.31293000  0.27793000  0.00491000  1.0 -0.1613044325
C  C1052  1  0.29998000  0.26438000  0.00062000  1.0 0.0713996989
C  C1053  1  0.34686000  0.32022000  0.02260000  1.0 0.3673323514
C  C1054  1  0.30714000  0.31966000  0.01814000  1.0 0.3615760468
C  C1055  1  0.30636000  0.36374000  0.01556000  1.0 0.3673323514
C  C1056  1  0.42152000  0.25818000  0.02996000  1.0 0.0778603431
C  C1057  1  0.39082000  0.27240000  0.03216000  1.0 -0.1613044325
C  C1058  1  0.37808000  0.30414000  0.02504000  1.0 0.044503191
C  C1059  1  0.39619000  0.32017000  0.01779000  1.0 -0.1682057175
C  C1060  1  0.42657000  0.30425000  0.01623000  1.0 0.0713996989
C  C1061  1  0.28779000  0.44239000  0.01357000  1.0 0.0778603431
C  C1062  1  0.30143000  0.41133000  0.01871000  1.0 -0.1613044325
C  C1063  1  0.29174000  0.39740000  0.01050000  1.0 0.050081264
C  C1064  1  0.26767000  0.41577000  0.99815000  1.0 -0.1682057175
C  C1065  1  0.25595000  0.44703000  0.99307000  1.0 0.0713996989
C  C1066  1  0.47692000  0.20922000  0.99474000  1.0 0.2069062416
C  C1067  1  0.14407000  0.98305000  0.18627000  1.0 0.3673323514
C  C1068  1  0.06620000  0.98368000  0.20376000  1.0 0.0713996989
C  C1069  1  0.09713000  0.98047000  0.18897000  1.0 -0.1682057175
C  C1070  1  0.11125000  0.98523000  0.20085000  1.0 0.050081264
C  C1071  1  0.09350000  0.99454000  0.22674000  1.0 -0.1613044325
C  C1072  1  0.06239000  0.99805000  0.23955000  1.0 0.0778603431
C  C1073  1  0.99096000  0.01038000  0.18992000  1.0 0.2019168111
C  C1074  1  0.01904000  0.93402000  0.25100000  1.0 0.0713996989
C  C1075  1  0.02324000  0.90300000  0.26200000  1.0 -0.1682057175
C  C1076  1  0.01589000  0.88779000  0.29333000  1.0 0.050081264
C  C1077  1  0.00491000  0.90423000  0.31293000  1.0 -0.1613044325
C  C1078  1  0.00062000  0.93502000  0.29998000  1.0 0.0713996989
C  C1079  1  0.02260000  0.81032000  0.34686000  1.0 0.3673323514
C  C1080  1  0.01814000  0.85506000  0.30714000  1.0 0.3615760468
C  C1081  1  0.01556000  0.81434000  0.30636000  1.0 0.3673323514
C  C1082  1  0.02996000  0.79034000  0.42152000  1.0 0.0778603431
C  C1083  1  0.03216000  0.80462000  0.39082000  1.0 -0.1613044325
C  C1084  1  0.02504000  0.79274000  0.37808000  1.0 0.044503191
C  C1085  1  0.01779000  0.76585000  0.39619000  1.0 -0.1682057175
C  C1086  1  0.01623000  0.75295000  0.42657000  1.0 0.0713996989
C  C1087  1  0.01357000  0.75625000  0.28779000  1.0 0.0778603431
C  C1088  1  0.01871000  0.76853000  0.30143000  1.0 -0.1682057175
C  C1089  1  0.01050000  0.80036000  0.29174000  1.0 0.050081264
C  C1090  1  0.99815000  0.81841000  0.26767000  1.0 -0.1682057175
C  C1091  1  0.99307000  0.80395000  0.25595000  1.0 0.0713996989
C  C1092  1  0.99474000  0.81912000  0.47692000  1.0 0.2069062416
C  C1093  1  0.18661000  0.18627000  0.98305000  1.0 0.3673323514
C  C1094  1  0.24636000  0.20376000  0.98368000  1.0 0.0713996989
C  C1095  1  0.23343000  0.18897000  0.98047000  1.0 -0.1682057175
C  C1096  1  0.20267000  0.20085000  0.98523000  1.0 0.050081264
C  C1097  1  0.18522000  0.22674000  0.99454000  1.0 -0.1613044325
C  C1098  1  0.20001000  0.23955000  0.99805000  1.0 0.0778603431
C  C1099  1  0.30874000  0.18992000  0.01038000  1.0 0.2019168111
C  C1100  1  0.29594000  0.25100000  0.93402000  1.0 0.0713996989
C  C1101  1  0.31176000  0.26200000  0.90300000  1.0 -0.1682057175
C  C1102  1  0.30299000  0.29333000  0.88779000  1.0 0.050081264
C  C1103  1  0.27793000  0.31293000  0.90423000  1.0 -0.1613044325
C  C1104  1  0.26438000  0.29998000  0.93502000  1.0 0.0713996989
C  C1105  1  0.32022000  0.34686000  0.81032000  1.0 0.3673323514
C  C1106  1  0.31966000  0.30714000  0.85506000  1.0 0.3615760468
C  C1107  1  0.36374000  0.30636000  0.81434000  1.0 0.3673323514
C  C1108  1  0.25818000  0.42152000  0.79034000  1.0 0.0778603431
C  C1109  1  0.27240000  0.39082000  0.80462000  1.0 -0.1613044325
C  C1110  1  0.30414000  0.37808000  0.79274000  1.0 0.044503191
C  C1111  1  0.32017000  0.39619000  0.76585000  1.0 -0.1682057175
C  C1112  1  0.30425000  0.42657000  0.75295000  1.0 0.0713996989
C  C1113  1  0.44239000  0.28779000  0.75625000  1.0 0.0778603431
C  C1114  1  0.41133000  0.30143000  0.76853000  1.0 -0.1613044325
C  C1115  1  0.39740000  0.29174000  0.80036000  1.0 0.050081264
C  C1116  1  0.41577000  0.26767000  0.81841000  1.0 -0.1682057175
C  C1117  1  0.44703000  0.25595000  0.80395000  1.0 0.0713996989
C  C1118  1  0.20922000  0.47692000  0.81912000  1.0 0.2069062416
C  C1119  1  0.98305000  0.14407000  0.18661000  1.0 0.3673323514
C  C1120  1  0.98368000  0.06620000  0.24636000  1.0 0.0713996989
C  C1121  1  0.98047000  0.09713000  0.23343000  1.0 -0.1613044325
C  C1122  1  0.98523000  0.11125000  0.20267000  1.0 0.050081264
C  C1123  1  0.99454000  0.09350000  0.18522000  1.0 -0.1613044325
C  C1124  1  0.99805000  0.06239000  0.20001000  1.0 0.0778603431
C  C1125  1  0.01038000  0.99096000  0.30874000  1.0 0.2019168111
C  C1126  1  0.93402000  0.01904000  0.29594000  1.0 0.0713996989
C  C1127  1  0.90300000  0.02324000  0.31176000  1.0 -0.1682057175
C  C1128  1  0.88779000  0.01589000  0.30299000  1.0 0.050081264
C  C1129  1  0.90423000  0.00491000  0.27793000  1.0 -0.1613044325
C  C1130  1  0.93502000  0.00062000  0.26438000  1.0 0.0713996989
C  C1131  1  0.81032000  0.02260000  0.32022000  1.0 0.3673323514
C  C1132  1  0.85506000  0.01814000  0.31966000  1.0 0.3615760468
C  C1133  1  0.81434000  0.01556000  0.36374000  1.0 0.3673323514
C  C1134  1  0.79034000  0.02996000  0.25818000  1.0 0.0778603431
C  C1135  1  0.80462000  0.03216000  0.27240000  1.0 -0.1613044325
C  C1136  1  0.79274000  0.02504000  0.30414000  1.0 0.044503191
C  C1137  1  0.76585000  0.01779000  0.32017000  1.0 -0.1682057175
C  C1138  1  0.75295000  0.01623000  0.30425000  1.0 0.0713996989
C  C1139  1  0.75625000  0.01357000  0.44239000  1.0 0.0778603431
C  C1140  1  0.76853000  0.01871000  0.41133000  1.0 -0.1613044325
C  C1141  1  0.80036000  0.01050000  0.39740000  1.0 0.050081264
C  C1142  1  0.81841000  0.99815000  0.41577000  1.0 -0.1682057175
C  C1143  1  0.80395000  0.99307000  0.44703000  1.0 0.0713996989
C  C1144  1  0.81912000  0.99474000  0.20922000  1.0 0.2069062416
C  C1145  1  0.98305000  0.18627000  0.14407000  1.0 0.3673323514
C  C1146  1  0.98368000  0.20376000  0.06620000  1.0 0.0713996989
C  C1147  1  0.98047000  0.18897000  0.09713000  1.0 -0.1613044325
C  C1148  1  0.98523000  0.20085000  0.11125000  1.0 0.050081264
C  C1149  1  0.99454000  0.22674000  0.09350000  1.0 -0.1613044325
C  C1150  1  0.99805000  0.23955000  0.06239000  1.0 0.0778603431
C  C1151  1  0.01038000  0.18992000  0.99096000  1.0 0.2019168111
C  C1152  1  0.93402000  0.25100000  0.01904000  1.0 0.0713996989
C  C1153  1  0.90300000  0.26200000  0.02324000  1.0 -0.1682057175
C  C1154  1  0.88779000  0.29333000  0.01589000  1.0 0.050081264
C  C1155  1  0.90423000  0.31293000  0.00491000  1.0 -0.1613044325
C  C1156  1  0.93502000  0.29998000  0.00062000  1.0 0.0713996989
C  C1157  1  0.81032000  0.34686000  0.02260000  1.0 0.3673323514
C  C1158  1  0.85506000  0.30714000  0.01814000  1.0 0.3615760468
C  C1159  1  0.81434000  0.30636000  0.01556000  1.0 0.3673323514
C  C1160  1  0.79034000  0.42152000  0.02996000  1.0 0.0778603431
C  C1161  1  0.80462000  0.39082000  0.03216000  1.0 -0.1613044325
C  C1162  1  0.79274000  0.37808000  0.02504000  1.0 0.044503191
C  C1163  1  0.76585000  0.39619000  0.01779000  1.0 -0.1682057175
C  C1164  1  0.75295000  0.42657000  0.01623000  1.0 0.0713996989
C  C1165  1  0.75625000  0.28779000  0.01357000  1.0 0.0778603431
C  C1166  1  0.76853000  0.30143000  0.01871000  1.0 -0.1613044325
C  C1167  1  0.80036000  0.29174000  0.01050000  1.0 0.050081264
C  C1168  1  0.81841000  0.26767000  0.99815000  1.0 -0.1682057175
C  C1169  1  0.80395000  0.25595000  0.99307000  1.0 0.0713996989
C  C1170  1  0.81912000  0.47692000  0.99474000  1.0 0.2069062416
C  C1171  1  0.18661000  0.14407000  0.18627000  1.0 0.3673323514
C  C1172  1  0.24636000  0.06620000  0.20376000  1.0 0.0713996989
C  C1173  1  0.23343000  0.09713000  0.18897000  1.0 -0.1682057175
C  C1174  1  0.20267000  0.11125000  0.20085000  1.0 0.050081264
C  C1175  1  0.18522000  0.09350000  0.22674000  1.0 -0.1613044325
C  C1176  1  0.20001000  0.06239000  0.23955000  1.0 0.0778603431
C  C1177  1  0.30874000  0.99096000  0.18992000  1.0 0.2019168111
C  C1178  1  0.29594000  0.01904000  0.25100000  1.0 0.0713996989
C  C1179  1  0.31176000  0.02324000  0.26200000  1.0 -0.1682057175
C  C1180  1  0.30299000  0.01589000  0.29333000  1.0 0.050081264
C  C1181  1  0.27793000  0.00491000  0.31293000  1.0 -0.1613044325
C  C1182  1  0.26438000  0.00062000  0.29998000  1.0 0.0713996989
C  C1183  1  0.32022000  0.02260000  0.34686000  1.0 0.3673323514
C  C1184  1  0.31966000  0.01814000  0.30714000  1.0 0.3615760468
C  C1185  1  0.36374000  0.01556000  0.30636000  1.0 0.3673323514
C  C1186  1  0.25818000  0.02996000  0.42152000  1.0 0.0778603431
C  C1187  1  0.27240000  0.03216000  0.39082000  1.0 -0.1613044325
C  C1188  1  0.30414000  0.02504000  0.37808000  1.0 0.044503191
C  C1189  1  0.32017000  0.01779000  0.39619000  1.0 -0.1682057175
C  C1190  1  0.30425000  0.01623000  0.42657000  1.0 0.0713996989
C  C1191  1  0.44239000  0.01357000  0.28779000  1.0 0.0778603431
C  C1192  1  0.41133000  0.01871000  0.30143000  1.0 -0.1613044325
C  C1193  1  0.39740000  0.01050000  0.29174000  1.0 0.050081264
C  C1194  1  0.41577000  0.99815000  0.26767000  1.0 -0.1682057175
C  C1195  1  0.44703000  0.99307000  0.25595000  1.0 0.0713996989
C  C1196  1  0.20922000  0.99474000  0.47692000  1.0 0.2069062416
C  C1197  1  0.14407000  0.18661000  0.98305000  1.0 0.3673323514
C  C1198  1  0.06620000  0.24636000  0.98368000  1.0 0.0713996989
C  C1199  1  0.09713000  0.23343000  0.98047000  1.0 -0.1613044325
C  C1200  1  0.11125000  0.20267000  0.98523000  1.0 0.050081264
C  C1201  1  0.09350000  0.18522000  0.99454000  1.0 -0.1613044325
C  C1202  1  0.06239000  0.20001000  0.99805000  1.0 0.0778603431
C  C1203  1  0.99096000  0.30874000  0.01038000  1.0 0.2019168111
C  C1204  1  0.01904000  0.29594000  0.93402000  1.0 0.0713996989
C  C1205  1  0.02324000  0.31176000  0.90300000  1.0 -0.1682057175
C  C1206  1  0.01589000  0.30299000  0.88779000  1.0 0.050081264
C  C1207  1  0.00491000  0.27793000  0.90423000  1.0 -0.1613044325
C  C1208  1  0.00062000  0.26438000  0.93502000  1.0 0.0713996989
C  C1209  1  0.02260000  0.32022000  0.81032000  1.0 0.3673323514
C  C1210  1  0.01814000  0.31966000  0.85506000  1.0 0.3615760468
C  C1211  1  0.01556000  0.36374000  0.81434000  1.0 0.3673323514
C  C1212  1  0.02996000  0.25818000  0.79034000  1.0 0.0778603431
C  C1213  1  0.03216000  0.27240000  0.80462000  1.0 -0.1613044325
C  C1214  1  0.02504000  0.30414000  0.79274000  1.0 0.044503191
C  C1215  1  0.01779000  0.32017000  0.76585000  1.0 -0.1682057175
C  C1216  1  0.01623000  0.30425000  0.75295000  1.0 0.0713996989
C  C1217  1  0.01357000  0.44239000  0.75625000  1.0 0.0778603431
C  C1218  1  0.01871000  0.41133000  0.76853000  1.0 -0.1613044325
C  C1219  1  0.01050000  0.39740000  0.80036000  1.0 0.050081264
C  C1220  1  0.99815000  0.41577000  0.81841000  1.0 -0.1682057175
C  C1221  1  0.99307000  0.44703000  0.80395000  1.0 0.0713996989
C  C1222  1  0.99474000  0.20922000  0.81912000  1.0 0.2069062416
C  C1223  1  0.18627000  0.98305000  0.18661000  1.0 0.3673323514
C  C1224  1  0.20376000  0.98368000  0.24636000  1.0 0.0713996989
C  C1225  1  0.18897000  0.98047000  0.23343000  1.0 -0.1682057175
C  C1226  1  0.20085000  0.98523000  0.20267000  1.0 0.050081264
C  C1227  1  0.22674000  0.99454000  0.18522000  1.0 -0.1613044325
C  C1228  1  0.23955000  0.99805000  0.20001000  1.0 0.0778603431
C  C1229  1  0.18992000  0.01038000  0.30874000  1.0 0.2019168111
C  C1230  1  0.25100000  0.93402000  0.29594000  1.0 0.0713996989
C  C1231  1  0.26200000  0.90300000  0.31176000  1.0 -0.1682057175
C  C1232  1  0.29333000  0.88779000  0.30299000  1.0 0.050081264
C  C1233  1  0.31293000  0.90423000  0.27793000  1.0 -0.1613044325
C  C1234  1  0.29998000  0.93502000  0.26438000  1.0 0.0713996989
C  C1235  1  0.34686000  0.81032000  0.32022000  1.0 0.3673323514
C  C1236  1  0.30714000  0.85506000  0.31966000  1.0 0.3615760468
C  C1237  1  0.30636000  0.81434000  0.36374000  1.0 0.3673323514
C  C1238  1  0.42152000  0.79034000  0.25818000  1.0 0.0778603431
C  C1239  1  0.39082000  0.80462000  0.27240000  1.0 -0.1613044325
C  C1240  1  0.37808000  0.79274000  0.30414000  1.0 0.044503191
C  C1241  1  0.39619000  0.76585000  0.32017000  1.0 -0.1682057175
C  C1242  1  0.42657000  0.75295000  0.30425000  1.0 0.0713996989
C  C1243  1  0.28779000  0.75625000  0.44239000  1.0 0.0778603431
C  C1244  1  0.30143000  0.76853000  0.41133000  1.0 -0.1613044325
C  C1245  1  0.29174000  0.80036000  0.39740000  1.0 0.050081264
C  C1246  1  0.26767000  0.81841000  0.41577000  1.0 -0.1682057175
C  C1247  1  0.25595000  0.80395000  0.44703000  1.0 0.0713996989
C  C1248  1  0.47692000  0.81912000  0.20922000  1.0 0.2019168111
S  S1  1  0.83426000  0.52576000  0.65934000  1.0 -0.1312561769
S  S2  1  0.70247000  0.35605000  0.96377000  1.0 -0.2176049495
S  S3  1  0.52576000  0.83426000  0.48064000  1.0 -0.1312561769
S  S4  1  0.35605000  0.70247000  0.47771000  1.0 -0.2176049495
S  S5  1  0.65934000  0.48064000  0.83426000  1.0 -0.1312561769
S  S6  1  0.96377000  0.47771000  0.70247000  1.0 -0.2176049495
S  S7  1  0.48064000  0.65934000  0.52576000  1.0 -0.1312561769
S  S8  1  0.47771000  0.96377000  0.35605000  1.0 -0.2176049495
S  S9  1  0.65934000  0.83426000  0.52576000  1.0 -0.1312561769
S  S10  1  0.96377000  0.70247000  0.35605000  1.0 -0.2136167952
S  S11  1  0.48064000  0.52576000  0.83426000  1.0 -0.1312561769
S  S12  1  0.47771000  0.35605000  0.70247000  1.0 -0.2176049495
S  S13  1  0.83426000  0.65934000  0.48064000  1.0 -0.1312561769
S  S14  1  0.70247000  0.96377000  0.47771000  1.0 -0.2176049495
S  S15  1  0.52576000  0.48064000  0.65934000  1.0 -0.1312561769
S  S16  1  0.35605000  0.47771000  0.96377000  1.0 -0.2176049495
S  S17  1  0.52576000  0.65934000  0.83426000  1.0 -0.1312561769
S  S18  1  0.35605000  0.96377000  0.70247000  1.0 -0.2176049495
S  S19  1  0.83426000  0.48064000  0.52576000  1.0 -0.1312561769
S  S20  1  0.70247000  0.47771000  0.35605000  1.0 -0.2176049495
S  S21  1  0.48064000  0.83426000  0.65934000  1.0 -0.1312561769
S  S22  1  0.47771000  0.70247000  0.96377000  1.0 -0.2176049495
S  S23  1  0.65934000  0.52576000  0.48064000  1.0 -0.1312561769
S  S24  1  0.96377000  0.35605000  0.47771000  1.0 -0.2136167952
S  S25  1  0.66574000  0.97424000  0.01936000  1.0 -0.1312561769
S  S26  1  0.79753000  0.14395000  0.02229000  1.0 -0.2176049495
S  S27  1  0.97424000  0.66574000  0.84066000  1.0 -0.1312561769
S  S28  1  0.14395000  0.79753000  0.53623000  1.0 -0.2176049495
S  S29  1  0.84066000  0.01936000  0.97424000  1.0 -0.1312561769
S  S30  1  0.53623000  0.02229000  0.14395000  1.0 -0.2176049495
S  S31  1  0.01936000  0.84066000  0.66574000  1.0 -0.1312561769
S  S32  1  0.02229000  0.53623000  0.79753000  1.0 -0.2136167952
S  S33  1  0.84066000  0.66574000  0.01936000  1.0 -0.1312561769
S  S34  1  0.53623000  0.79753000  0.02229000  1.0 -0.2176049495
S  S35  1  0.01936000  0.97424000  0.84066000  1.0 -0.1312561769
S  S36  1  0.02229000  0.14395000  0.53623000  1.0 -0.2176049495
S  S37  1  0.66574000  0.84066000  0.97424000  1.0 -0.1312561769
S  S38  1  0.79753000  0.53623000  0.14395000  1.0 -0.2176049495
S  S39  1  0.97424000  0.01936000  0.66574000  1.0 -0.1312561769
S  S40  1  0.14395000  0.02229000  0.79753000  1.0 -0.2176049495
S  S41  1  0.97424000  0.84066000  0.01936000  1.0 -0.1312561769
S  S42  1  0.14395000  0.53623000  0.02229000  1.0 -0.2176049495
S  S43  1  0.66574000  0.01936000  0.84066000  1.0 -0.1312561769
S  S44  1  0.79753000  0.02229000  0.53623000  1.0 -0.2136167952
S  S45  1  0.01936000  0.66574000  0.97424000  1.0 -0.1312561769
S  S46  1  0.02229000  0.79753000  0.14395000  1.0 -0.2176049495
S  S47  1  0.84066000  0.97424000  0.66574000  1.0 -0.1312561769
S  S48  1  0.53623000  0.14395000  0.79753000  1.0 -0.2176049495
S  S49  1  0.16574000  0.47424000  0.34066000  1.0 -0.1312561769
S  S50  1  0.29753000  0.64395000  0.03623000  1.0 -0.2176049495
S  S51  1  0.47424000  0.16574000  0.51936000  1.0 -0.1312561769
S  S52  1  0.64395000  0.29753000  0.52229000  1.0 -0.2176049495
S  S53  1  0.34066000  0.51936000  0.16574000  1.0 -0.1312561769
S  S54  1  0.03623000  0.52229000  0.29753000  1.0 -0.2176049495
S  S55  1  0.51936000  0.34066000  0.47424000  1.0 -0.1312561769
S  S56  1  0.52229000  0.03623000  0.64395000  1.0 -0.2176049495
S  S57  1  0.34066000  0.16574000  0.47424000  1.0 -0.1312561769
S  S58  1  0.03623000  0.29753000  0.64395000  1.0 -0.2176049495
S  S59  1  0.51936000  0.47424000  0.16574000  1.0 -0.1312561769
S  S60  1  0.52229000  0.64395000  0.29753000  1.0 -0.2176049495
S  S61  1  0.16574000  0.34066000  0.51936000  1.0 -0.1312561769
S  S62  1  0.29753000  0.03623000  0.52229000  1.0 -0.2176049495
S  S63  1  0.47424000  0.51936000  0.34066000  1.0 -0.1312561769
S  S64  1  0.64395000  0.52229000  0.03623000  1.0 -0.2176049495
S  S65  1  0.47424000  0.34066000  0.16574000  1.0 -0.1352738988
S  S66  1  0.64395000  0.03623000  0.29753000  1.0 -0.2176049495
S  S67  1  0.16574000  0.51936000  0.47424000  1.0 -0.1312561769
S  S68  1  0.29753000  0.52229000  0.64395000  1.0 -0.2176049495
S  S69  1  0.51936000  0.16574000  0.34066000  1.0 -0.1312561769
S  S70  1  0.52229000  0.29753000  0.03623000  1.0 -0.2176049495
S  S71  1  0.34066000  0.47424000  0.51936000  1.0 -0.1312561769
S  S72  1  0.03623000  0.64395000  0.52229000  1.0 -0.2176049495
S  S73  1  0.33426000  0.02576000  0.98064000  1.0 -0.1312561769
S  S74  1  0.20247000  0.85605000  0.97771000  1.0 -0.2176049495
S  S75  1  0.02576000  0.33426000  0.15934000  1.0 -0.1312561769
S  S76  1  0.85605000  0.20247000  0.46377000  1.0 -0.2176049495
S  S77  1  0.15934000  0.98064000  0.02576000  1.0 -0.1312561769
S  S78  1  0.46377000  0.97771000  0.85605000  1.0 -0.2176049495
S  S79  1  0.98064000  0.15934000  0.33426000  1.0 -0.1312561769
S  S80  1  0.97771000  0.46377000  0.20247000  1.0 -0.2176049495
S  S81  1  0.15934000  0.33426000  0.98064000  1.0 -0.1312561769
S  S82  1  0.46377000  0.20247000  0.97771000  1.0 -0.2136167952
S  S83  1  0.98064000  0.02576000  0.15934000  1.0 -0.1312561769
S  S84  1  0.97771000  0.85605000  0.46377000  1.0 -0.2176049495
S  S85  1  0.33426000  0.15934000  0.02576000  1.0 -0.1352738988
S  S86  1  0.20247000  0.46377000  0.85605000  1.0 -0.2176049495
S  S87  1  0.02576000  0.98064000  0.33426000  1.0 -0.1312561769
S  S88  1  0.85605000  0.97771000  0.20247000  1.0 -0.2176049495
S  S89  1  0.02576000  0.15934000  0.98064000  1.0 -0.1312561769
S  S90  1  0.85605000  0.46377000  0.97771000  1.0 -0.2176049495
S  S91  1  0.33426000  0.98064000  0.15934000  1.0 -0.1312561769
S  S92  1  0.20247000  0.97771000  0.46377000  1.0 -0.2176049495
S  S93  1  0.98064000  0.33426000  0.02576000  1.0 -0.1312561769
S  S94  1  0.97771000  0.20247000  0.85605000  1.0 -0.2176049495
S  S95  1  0.15934000  0.02576000  0.33426000  1.0 -0.1352738988
S  S96  1  0.46377000  0.85605000  0.20247000  1.0 -0.2136167952
N  N1  1  0.70195000  0.48317000  0.65703000  1.0 -0.4204817846
N  N2  1  0.73033000  0.49249000  0.72839000  1.0 -0.2136167952
N  N3  1  0.79014000  0.50098000  0.71132000  1.0 -0.4553769598
N  N4  1  0.77266000  0.45030000  0.76928000  1.0 -0.2176049495
N  N5  1  0.80372000  0.33920000  0.83448000  1.0 -0.4204817846
N  N6  1  0.84987000  0.34389000  0.79179000  1.0 -0.4204817846
N  N7  1  0.85026000  0.29652000  0.83352000  1.0 -0.4204817846
N  N8  1  0.77390000  0.26526000  0.93968000  1.0 -0.2176049495
N  N9  1  0.96071000  0.27315000  0.76587000  1.0 -0.2176049495
N  N10  1  0.71468000  0.29228000  0.98648000  1.0 -0.4762692428
N  N11  1  0.48317000  0.70195000  0.65785000  1.0 -0.4204817846
N  N12  1  0.49249000  0.73033000  0.54879000  1.0 -0.2136167952
N  N13  1  0.50098000  0.79014000  0.49756000  1.0 -0.4553769598
N  N14  1  0.45030000  0.77266000  0.50776000  1.0 -0.2176049495
N  N15  1  0.33920000  0.80372000  0.52260000  1.0 -0.4204817846
N  N16  1  0.34389000  0.84987000  0.51445000  1.0 -0.4204817846
N  N17  1  0.29652000  0.85026000  0.51970000  1.0 -0.4204817846
N  N18  1  0.26526000  0.77390000  0.52116000  1.0 -0.2176049495
N  N19  1  0.27315000  0.96071000  0.50027000  1.0 -0.2176049495
N  N20  1  0.29228000  0.71468000  0.50656000  1.0 -0.4762692428
N  N21  1  0.65703000  0.65785000  0.70195000  1.0 -0.4204817846
N  N22  1  0.72839000  0.54879000  0.73033000  1.0 -0.2136167952
N  N23  1  0.71132000  0.49756000  0.79014000  1.0 -0.4538162703
N  N24  1  0.76928000  0.50776000  0.77266000  1.0 -0.2176049495
N  N25  1  0.83448000  0.52260000  0.80372000  1.0 -0.4204817846
N  N26  1  0.79179000  0.51445000  0.84987000  1.0 -0.4204817846
N  N27  1  0.83352000  0.51970000  0.85026000  1.0 -0.4204817846
N  N28  1  0.93968000  0.52116000  0.77390000  1.0 -0.2176049495
N  N29  1  0.76587000  0.50027000  0.96071000  1.0 -0.2176049495
N  N30  1  0.98648000  0.50656000  0.71468000  1.0 -0.4762692428
N  N31  1  0.65785000  0.65703000  0.48317000  1.0 -0.4204817846
N  N32  1  0.54879000  0.72839000  0.49249000  1.0 -0.2136167952
N  N33  1  0.49756000  0.71132000  0.50098000  1.0 -0.4553769598
N  N34  1  0.50776000  0.76928000  0.45030000  1.0 -0.2176049495
N  N35  1  0.52260000  0.83448000  0.33920000  1.0 -0.4204817846
N  N36  1  0.51445000  0.79179000  0.34389000  1.0 -0.4204817846
N  N37  1  0.51970000  0.83352000  0.29652000  1.0 -0.4204817846
N  N38  1  0.52116000  0.93968000  0.26526000  1.0 -0.2176049495
N  N39  1  0.50027000  0.76587000  0.27315000  1.0 -0.2176049495
N  N40  1  0.50656000  0.98648000  0.29228000  1.0 -0.4762692428
N  N41  1  0.65703000  0.70195000  0.48317000  1.0 -0.4204817846
N  N42  1  0.72839000  0.73033000  0.49249000  1.0 -0.2136167952
N  N43  1  0.71132000  0.79014000  0.50098000  1.0 -0.4553769598
N  N44  1  0.76928000  0.77266000  0.45030000  1.0 -0.2176049495
N  N45  1  0.83448000  0.80372000  0.33920000  1.0 -0.4204817846
N  N46  1  0.79179000  0.84987000  0.34389000  1.0 -0.4204817846
N  N47  1  0.83352000  0.85026000  0.29652000  1.0 -0.4204817846
N  N48  1  0.93968000  0.77390000  0.26526000  1.0 -0.2176049495
N  N49  1  0.76587000  0.96071000  0.27315000  1.0 -0.2176049495
N  N50  1  0.98648000  0.71468000  0.29228000  1.0 -0.4762692428
N  N51  1  0.65785000  0.48317000  0.70195000  1.0 -0.4204817846
N  N52  1  0.54879000  0.49249000  0.73033000  1.0 -0.2136167952
N  N53  1  0.49756000  0.50098000  0.79014000  1.0 -0.4553769598
N  N54  1  0.50776000  0.45030000  0.77266000  1.0 -0.2176049495
N  N55  1  0.52260000  0.33920000  0.80372000  1.0 -0.4204817846
N  N56  1  0.51445000  0.34389000  0.84987000  1.0 -0.4204817846
N  N57  1  0.51970000  0.29652000  0.85026000  1.0 -0.4204817846
N  N58  1  0.52116000  0.26526000  0.77390000  1.0 -0.2176049495
N  N59  1  0.50027000  0.27315000  0.96071000  1.0 -0.2176049495
N  N60  1  0.50656000  0.29228000  0.71468000  1.0 -0.4762692428
N  N61  1  0.70195000  0.65703000  0.65785000  1.0 -0.4204817846
N  N62  1  0.73033000  0.72839000  0.54879000  1.0 -0.2136167952
N  N63  1  0.79014000  0.71132000  0.49756000  1.0 -0.4553769598
N  N64  1  0.77266000  0.76928000  0.50776000  1.0 -0.2176049495
N  N65  1  0.80372000  0.83448000  0.52260000  1.0 -0.4204817846
N  N66  1  0.84987000  0.79179000  0.51445000  1.0 -0.4204817846
N  N67  1  0.85026000  0.83352000  0.51970000  1.0 -0.4204817846
N  N68  1  0.77390000  0.93968000  0.52116000  1.0 -0.2176049495
N  N69  1  0.96071000  0.76587000  0.50027000  1.0 -0.2176049495
N  N70  1  0.71468000  0.98648000  0.50656000  1.0 -0.4762692428
N  N71  1  0.48317000  0.65785000  0.65703000  1.0 -0.4204817846
N  N72  1  0.49249000  0.54879000  0.72839000  1.0 -0.2136167952
N  N73  1  0.50098000  0.49756000  0.71132000  1.0 -0.4553769598
N  N74  1  0.45030000  0.50776000  0.76928000  1.0 -0.2176049495
N  N75  1  0.33920000  0.52260000  0.83448000  1.0 -0.4204817846
N  N76  1  0.34389000  0.51445000  0.79179000  1.0 -0.4204817846
N  N77  1  0.29652000  0.51970000  0.83352000  1.0 -0.4204817846
N  N78  1  0.26526000  0.52116000  0.93968000  1.0 -0.2176049495
N  N79  1  0.27315000  0.50027000  0.76587000  1.0 -0.2176049495
N  N80  1  0.29228000  0.50656000  0.98648000  1.0 -0.4762692428
N  N81  1  0.48317000  0.65703000  0.70195000  1.0 -0.4204817846
N  N82  1  0.49249000  0.72839000  0.73033000  1.0 -0.2136167952
N  N83  1  0.50098000  0.71132000  0.79014000  1.0 -0.4553769598
N  N84  1  0.45030000  0.76928000  0.77266000  1.0 -0.2176049495
N  N85  1  0.33920000  0.83448000  0.80372000  1.0 -0.4204817846
N  N86  1  0.34389000  0.79179000  0.84987000  1.0 -0.4204817846
N  N87  1  0.29652000  0.83352000  0.85026000  1.0 -0.4204817846
N  N88  1  0.26526000  0.93968000  0.77390000  1.0 -0.2176049495
N  N89  1  0.27315000  0.76587000  0.96071000  1.0 -0.2176049495
N  N90  1  0.29228000  0.98648000  0.71468000  1.0 -0.4762692428
N  N91  1  0.70195000  0.65785000  0.48317000  1.0 -0.4204817846
N  N92  1  0.73033000  0.54879000  0.49249000  1.0 -0.2136167952
N  N93  1  0.79014000  0.49756000  0.50098000  1.0 -0.4553769598
N  N94  1  0.77266000  0.50776000  0.45030000  1.0 -0.2176049495
N  N95  1  0.80372000  0.52260000  0.33920000  1.0 -0.4204817846
N  N96  1  0.84987000  0.51445000  0.34389000  1.0 -0.4204817846
N  N97  1  0.85026000  0.51970000  0.29652000  1.0 -0.4204817846
N  N98  1  0.77390000  0.52116000  0.26526000  1.0 -0.2176049495
N  N99  1  0.96071000  0.50027000  0.27315000  1.0 -0.2176049495
N  N100  1  0.71468000  0.50656000  0.29228000  1.0 -0.4762692428
N  N101  1  0.65785000  0.70195000  0.65703000  1.0 -0.4204817846
N  N102  1  0.54879000  0.73033000  0.72839000  1.0 -0.2136167952
N  N103  1  0.49756000  0.79014000  0.71132000  1.0 -0.4553769598
N  N104  1  0.50776000  0.77266000  0.76928000  1.0 -0.2176049495
N  N105  1  0.52260000  0.80372000  0.83448000  1.0 -0.4204817846
N  N106  1  0.51445000  0.84987000  0.79179000  1.0 -0.4204817846
N  N107  1  0.51970000  0.85026000  0.83352000  1.0 -0.4204817846
N  N108  1  0.52116000  0.77390000  0.93968000  1.0 -0.2176049495
N  N109  1  0.50027000  0.96071000  0.76587000  1.0 -0.2176049495
N  N110  1  0.50656000  0.71468000  0.98648000  1.0 -0.4762692428
N  N111  1  0.65703000  0.48317000  0.65785000  1.0 -0.4204817846
N  N112  1  0.72839000  0.49249000  0.54879000  1.0 -0.2136167952
N  N113  1  0.71132000  0.50098000  0.49756000  1.0 -0.4538162703
N  N114  1  0.76928000  0.45030000  0.50776000  1.0 -0.2176049495
N  N115  1  0.83448000  0.33920000  0.52260000  1.0 -0.4204817846
N  N116  1  0.79179000  0.34389000  0.51445000  1.0 -0.4204817846
N  N117  1  0.83352000  0.29652000  0.51970000  1.0 -0.4204817846
N  N118  1  0.93968000  0.26526000  0.52116000  1.0 -0.2176049495
N  N119  1  0.76587000  0.27315000  0.50027000  1.0 -0.2176049495
N  N120  1  0.98648000  0.29228000  0.50656000  1.0 -0.4762692428
N  N121  1  0.79805000  0.01683000  0.84215000  1.0 -0.4204817846
N  N122  1  0.76967000  0.00751000  0.95121000  1.0 -0.2136167952
N  N123  1  0.70986000  0.99902000  0.00244000  1.0 -0.4553769598
N  N124  1  0.72734000  0.04970000  0.99224000  1.0 -0.2176049495
N  N125  1  0.69628000  0.16080000  0.97740000  1.0 -0.4204817846
N  N126  1  0.65013000  0.15611000  0.98555000  1.0 -0.4204817846
N  N127  1  0.64974000  0.20348000  0.98030000  1.0 -0.4204817846
N  N128  1  0.72610000  0.23474000  0.97884000  1.0 -0.2176049495
N  N129  1  0.53929000  0.22685000  0.99973000  1.0 -0.2176049495
N  N130  1  0.78532000  0.20772000  0.99344000  1.0 -0.4762692428
N  N131  1  0.01683000  0.79805000  0.84297000  1.0 -0.4204817846
N  N132  1  0.00751000  0.76967000  0.77161000  1.0 -0.2136167952
N  N133  1  0.99902000  0.70986000  0.78868000  1.0 -0.4538162703
N  N134  1  0.04970000  0.72734000  0.73072000  1.0 -0.2176049495
N  N135  1  0.16080000  0.69628000  0.66552000  1.0 -0.4204817846
N  N136  1  0.15611000  0.65013000  0.70821000  1.0 -0.4204817846
N  N137  1  0.20348000  0.64974000  0.66648000  1.0 -0.4204817846
N  N138  1  0.23474000  0.72610000  0.56032000  1.0 -0.2176049495
N  N139  1  0.22685000  0.53929000  0.73413000  1.0 -0.2176049495
N  N140  1  0.20772000  0.78532000  0.51352000  1.0 -0.4762692428
N  N141  1  0.84297000  0.84215000  0.01683000  1.0 -0.4204817846
N  N142  1  0.77161000  0.95121000  0.00751000  1.0 -0.2136167952
N  N143  1  0.78868000  0.00244000  0.99902000  1.0 -0.4553769598
N  N144  1  0.73072000  0.99224000  0.04970000  1.0 -0.2176049495
N  N145  1  0.66552000  0.97740000  0.16080000  1.0 -0.4204817846
N  N146  1  0.70821000  0.98555000  0.15611000  1.0 -0.4204817846
N  N147  1  0.66648000  0.98030000  0.20348000  1.0 -0.4204817846
N  N148  1  0.56032000  0.97884000  0.23474000  1.0 -0.2176049495
N  N149  1  0.73413000  0.99973000  0.22685000  1.0 -0.2176049495
N  N150  1  0.51352000  0.99344000  0.20772000  1.0 -0.4762692428
N  N151  1  0.84215000  0.84297000  0.79805000  1.0 -0.4204817846
N  N152  1  0.95121000  0.77161000  0.76967000  1.0 -0.2136167952
N  N153  1  0.00244000  0.78868000  0.70986000  1.0 -0.4553769598
N  N154  1  0.99224000  0.73072000  0.72734000  1.0 -0.2176049495
N  N155  1  0.97740000  0.66552000  0.69628000  1.0 -0.4204817846
N  N156  1  0.98555000  0.70821000  0.65013000  1.0 -0.4204817846
N  N157  1  0.98030000  0.66648000  0.64974000  1.0 -0.4204817846
N  N158  1  0.97884000  0.56032000  0.72610000  1.0 -0.2176049495
N  N159  1  0.99973000  0.73413000  0.53929000  1.0 -0.2176049495
N  N160  1  0.99344000  0.51352000  0.78532000  1.0 -0.4762692428
N  N161  1  0.84297000  0.79805000  0.84215000  1.0 -0.4204817846
N  N162  1  0.77161000  0.76967000  0.95121000  1.0 -0.2136167952
N  N163  1  0.78868000  0.70986000  0.00244000  1.0 -0.4553769598
N  N164  1  0.73072000  0.72734000  0.99224000  1.0 -0.2176049495
N  N165  1  0.66552000  0.69628000  0.97740000  1.0 -0.4204817846
N  N166  1  0.70821000  0.65013000  0.98555000  1.0 -0.4204817846
N  N167  1  0.66648000  0.64974000  0.98030000  1.0 -0.4204817846
N  N168  1  0.56032000  0.72610000  0.97884000  1.0 -0.2176049495
N  N169  1  0.73413000  0.53929000  0.99973000  1.0 -0.2176049495
N  N170  1  0.51352000  0.78532000  0.99344000  1.0 -0.4762692428
N  N171  1  0.84215000  0.01683000  0.84297000  1.0 -0.4204817846
N  N172  1  0.95121000  0.00751000  0.77161000  1.0 -0.2136167952
N  N173  1  0.00244000  0.99902000  0.78868000  1.0 -0.4553769598
N  N174  1  0.99224000  0.04970000  0.73072000  1.0 -0.2176049495
N  N175  1  0.97740000  0.16080000  0.66552000  1.0 -0.4204817846
N  N176  1  0.98555000  0.15611000  0.70821000  1.0 -0.4204817846
N  N177  1  0.98030000  0.20348000  0.66648000  1.0 -0.4204817846
N  N178  1  0.97884000  0.23474000  0.56032000  1.0 -0.2176049495
N  N179  1  0.99973000  0.22685000  0.73413000  1.0 -0.2176049495
N  N180  1  0.99344000  0.20772000  0.51352000  1.0 -0.4762692428
N  N181  1  0.79805000  0.84297000  0.01683000  1.0 -0.4204817846
N  N182  1  0.76967000  0.77161000  0.00751000  1.0 -0.2136167952
N  N183  1  0.70986000  0.78868000  0.99902000  1.0 -0.4553769598
N  N184  1  0.72734000  0.73072000  0.04970000  1.0 -0.2176049495
N  N185  1  0.69628000  0.66552000  0.16080000  1.0 -0.4204817846
N  N186  1  0.65013000  0.70821000  0.15611000  1.0 -0.4204817846
N  N187  1  0.64974000  0.66648000  0.20348000  1.0 -0.4204817846
N  N188  1  0.72610000  0.56032000  0.23474000  1.0 -0.2176049495
N  N189  1  0.53929000  0.73413000  0.22685000  1.0 -0.2176049495
N  N190  1  0.78532000  0.51352000  0.20772000  1.0 -0.4762692428
N  N191  1  0.01683000  0.84215000  0.79805000  1.0 -0.4204817846
N  N192  1  0.00751000  0.95121000  0.76967000  1.0 -0.2136167952
N  N193  1  0.99902000  0.00244000  0.70986000  1.0 -0.4553769598
N  N194  1  0.04970000  0.99224000  0.72734000  1.0 -0.2176049495
N  N195  1  0.16080000  0.97740000  0.69628000  1.0 -0.4204817846
N  N196  1  0.15611000  0.98555000  0.65013000  1.0 -0.4204817846
N  N197  1  0.20348000  0.98030000  0.64974000  1.0 -0.4204817846
N  N198  1  0.23474000  0.97884000  0.72610000  1.0 -0.2176049495
N  N199  1  0.22685000  0.99973000  0.53929000  1.0 -0.2176049495
N  N200  1  0.20772000  0.99344000  0.78532000  1.0 -0.4762692428
N  N201  1  0.01683000  0.84297000  0.84215000  1.0 -0.4204817846
N  N202  1  0.00751000  0.77161000  0.95121000  1.0 -0.2136167952
N  N203  1  0.99902000  0.78868000  0.00244000  1.0 -0.4553769598
N  N204  1  0.04970000  0.73072000  0.99224000  1.0 -0.2176049495
N  N205  1  0.16080000  0.66552000  0.97740000  1.0 -0.4204817846
N  N206  1  0.15611000  0.70821000  0.98555000  1.0 -0.4204817846
N  N207  1  0.20348000  0.66648000  0.98030000  1.0 -0.4204817846
N  N208  1  0.23474000  0.56032000  0.97884000  1.0 -0.2176049495
N  N209  1  0.22685000  0.73413000  0.99973000  1.0 -0.2176049495
N  N210  1  0.20772000  0.51352000  0.99344000  1.0 -0.4762692428
N  N211  1  0.79805000  0.84215000  0.84297000  1.0 -0.4204817846
N  N212  1  0.76967000  0.95121000  0.77161000  1.0 -0.2136167952
N  N213  1  0.70986000  0.00244000  0.78868000  1.0 -0.4538162703
N  N214  1  0.72734000  0.99224000  0.73072000  1.0 -0.2176049495
N  N215  1  0.69628000  0.97740000  0.66552000  1.0 -0.4204817846
N  N216  1  0.65013000  0.98555000  0.70821000  1.0 -0.4204817846
N  N217  1  0.64974000  0.98030000  0.66648000  1.0 -0.4204817846
N  N218  1  0.72610000  0.97884000  0.56032000  1.0 -0.2176049495
N  N219  1  0.53929000  0.99973000  0.73413000  1.0 -0.2176049495
N  N220  1  0.78532000  0.99344000  0.51352000  1.0 -0.4762692428
N  N221  1  0.84215000  0.79805000  0.01683000  1.0 -0.4204817846
N  N222  1  0.95121000  0.76967000  0.00751000  1.0 -0.2136167952
N  N223  1  0.00244000  0.70986000  0.99902000  1.0 -0.4553769598
N  N224  1  0.99224000  0.72734000  0.04970000  1.0 -0.2176049495
N  N225  1  0.97740000  0.69628000  0.16080000  1.0 -0.4204817846
N  N226  1  0.98555000  0.65013000  0.15611000  1.0 -0.4204817846
N  N227  1  0.98030000  0.64974000  0.20348000  1.0 -0.4204817846
N  N228  1  0.97884000  0.72610000  0.23474000  1.0 -0.2176049495
N  N229  1  0.99973000  0.53929000  0.22685000  1.0 -0.2176049495
N  N230  1  0.99344000  0.78532000  0.20772000  1.0 -0.4762692428
N  N231  1  0.84297000  0.01683000  0.79805000  1.0 -0.4204817846
N  N232  1  0.77161000  0.00751000  0.76967000  1.0 -0.2136167952
N  N233  1  0.78868000  0.99902000  0.70986000  1.0 -0.4553769598
N  N234  1  0.73072000  0.04970000  0.72734000  1.0 -0.2176049495
N  N235  1  0.66552000  0.16080000  0.69628000  1.0 -0.4204817846
N  N236  1  0.70821000  0.15611000  0.65013000  1.0 -0.4204817846
N  N237  1  0.66648000  0.20348000  0.64974000  1.0 -0.4204817846
N  N238  1  0.56032000  0.23474000  0.72610000  1.0 -0.2176049495
N  N239  1  0.73413000  0.22685000  0.53929000  1.0 -0.2176049495
N  N240  1  0.51352000  0.20772000  0.78532000  1.0 -0.4762692428
N  N241  1  0.29805000  0.51683000  0.34297000  1.0 -0.4204817846
N  N242  1  0.26967000  0.50751000  0.27161000  1.0 -0.2136167952
N  N243  1  0.20986000  0.49902000  0.28868000  1.0 -0.4538162703
N  N244  1  0.22734000  0.54970000  0.23072000  1.0 -0.2176049495
N  N245  1  0.19628000  0.66080000  0.16552000  1.0 -0.4204817846
N  N246  1  0.15013000  0.65611000  0.20821000  1.0 -0.4204817846
N  N247  1  0.14974000  0.70348000  0.16648000  1.0 -0.4204817846
N  N248  1  0.22610000  0.73474000  0.06032000  1.0 -0.2176049495
N  N249  1  0.03929000  0.72685000  0.23413000  1.0 -0.2176049495
N  N250  1  0.28532000  0.70772000  0.01352000  1.0 -0.4762692428
N  N251  1  0.51683000  0.29805000  0.34215000  1.0 -0.4204817846
N  N252  1  0.50751000  0.26967000  0.45121000  1.0 -0.2136167952
N  N253  1  0.49902000  0.20986000  0.50244000  1.0 -0.4538162703
N  N254  1  0.54970000  0.22734000  0.49224000  1.0 -0.2176049495
N  N255  1  0.66080000  0.19628000  0.47740000  1.0 -0.4204817846
N  N256  1  0.65611000  0.15013000  0.48555000  1.0 -0.4204817846
N  N257  1  0.70348000  0.14974000  0.48030000  1.0 -0.4204817846
N  N258  1  0.73474000  0.22610000  0.47884000  1.0 -0.2176049495
N  N259  1  0.72685000  0.03929000  0.49973000  1.0 -0.2176049495
N  N260  1  0.70772000  0.28532000  0.49344000  1.0 -0.4762692428
N  N261  1  0.34297000  0.34215000  0.29805000  1.0 -0.4204817846
N  N262  1  0.27161000  0.45121000  0.26967000  1.0 -0.2136167952
N  N263  1  0.28868000  0.50244000  0.20986000  1.0 -0.4538162703
N  N264  1  0.23072000  0.49224000  0.22734000  1.0 -0.2176049495
N  N265  1  0.16552000  0.47740000  0.19628000  1.0 -0.4204817846
N  N266  1  0.20821000  0.48555000  0.15013000  1.0 -0.4204817846
N  N267  1  0.16648000  0.48030000  0.14974000  1.0 -0.4204817846
N  N268  1  0.06032000  0.47884000  0.22610000  1.0 -0.2176049495
N  N269  1  0.23413000  0.49973000  0.03929000  1.0 -0.2176049495
N  N270  1  0.01352000  0.49344000  0.28532000  1.0 -0.4762692428
N  N271  1  0.34215000  0.34297000  0.51683000  1.0 -0.4204817846
N  N272  1  0.45121000  0.27161000  0.50751000  1.0 -0.2136167952
N  N273  1  0.50244000  0.28868000  0.49902000  1.0 -0.4538162703
N  N274  1  0.49224000  0.23072000  0.54970000  1.0 -0.2176049495
N  N275  1  0.47740000  0.16552000  0.66080000  1.0 -0.4204817846
N  N276  1  0.48555000  0.20821000  0.65611000  1.0 -0.4204817846
N  N277  1  0.48030000  0.16648000  0.70348000  1.0 -0.4204817846
N  N278  1  0.47884000  0.06032000  0.73474000  1.0 -0.2176049495
N  N279  1  0.49973000  0.23413000  0.72685000  1.0 -0.2176049495
N  N280  1  0.49344000  0.01352000  0.70772000  1.0 -0.4762692428
N  N281  1  0.34297000  0.29805000  0.51683000  1.0 -0.4204817846
N  N282  1  0.27161000  0.26967000  0.50751000  1.0 -0.2136167952
N  N283  1  0.28868000  0.20986000  0.49902000  1.0 -0.4538162703
N  N284  1  0.23072000  0.22734000  0.54970000  1.0 -0.2176049495
N  N285  1  0.16552000  0.19628000  0.66080000  1.0 -0.4204817846
N  N286  1  0.20821000  0.15013000  0.65611000  1.0 -0.4204817846
N  N287  1  0.16648000  0.14974000  0.70348000  1.0 -0.4204817846
N  N288  1  0.06032000  0.22610000  0.73474000  1.0 -0.2176049495
N  N289  1  0.23413000  0.03929000  0.72685000  1.0 -0.2176049495
N  N290  1  0.01352000  0.28532000  0.70772000  1.0 -0.4762692428
N  N291  1  0.34215000  0.51683000  0.29805000  1.0 -0.4204817846
N  N292  1  0.45121000  0.50751000  0.26967000  1.0 -0.2136167952
N  N293  1  0.50244000  0.49902000  0.20986000  1.0 -0.4553769598
N  N294  1  0.49224000  0.54970000  0.22734000  1.0 -0.2176049495
N  N295  1  0.47740000  0.66080000  0.19628000  1.0 -0.4204817846
N  N296  1  0.48555000  0.65611000  0.15013000  1.0 -0.4204817846
N  N297  1  0.48030000  0.70348000  0.14974000  1.0 -0.4204817846
N  N298  1  0.47884000  0.73474000  0.22610000  1.0 -0.2176049495
N  N299  1  0.49973000  0.72685000  0.03929000  1.0 -0.2176049495
N  N300  1  0.49344000  0.70772000  0.28532000  1.0 -0.4762692428
N  N301  1  0.29805000  0.34297000  0.34215000  1.0 -0.4204817846
N  N302  1  0.26967000  0.27161000  0.45121000  1.0 -0.2136167952
N  N303  1  0.20986000  0.28868000  0.50244000  1.0 -0.4538162703
N  N304  1  0.22734000  0.23072000  0.49224000  1.0 -0.2176049495
N  N305  1  0.19628000  0.16552000  0.47740000  1.0 -0.4204817846
N  N306  1  0.15013000  0.20821000  0.48555000  1.0 -0.4204817846
N  N307  1  0.14974000  0.16648000  0.48030000  1.0 -0.4204817846
N  N308  1  0.22610000  0.06032000  0.47884000  1.0 -0.2176049495
N  N309  1  0.03929000  0.23413000  0.49973000  1.0 -0.2176049495
N  N310  1  0.28532000  0.01352000  0.49344000  1.0 -0.4762692428
N  N311  1  0.51683000  0.34215000  0.34297000  1.0 -0.4204817846
N  N312  1  0.50751000  0.45121000  0.27161000  1.0 -0.2136167952
N  N313  1  0.49902000  0.50244000  0.28868000  1.0 -0.4553769598
N  N314  1  0.54970000  0.49224000  0.23072000  1.0 -0.2176049495
N  N315  1  0.66080000  0.47740000  0.16552000  1.0 -0.4204817846
N  N316  1  0.65611000  0.48555000  0.20821000  1.0 -0.4204817846
N  N317  1  0.70348000  0.48030000  0.16648000  1.0 -0.4204817846
N  N318  1  0.73474000  0.47884000  0.06032000  1.0 -0.2176049495
N  N319  1  0.72685000  0.49973000  0.23413000  1.0 -0.2176049495
N  N320  1  0.70772000  0.49344000  0.01352000  1.0 -0.4762692428
N  N321  1  0.51683000  0.34297000  0.29805000  1.0 -0.4204817846
N  N322  1  0.50751000  0.27161000  0.26967000  1.0 -0.2136167952
N  N323  1  0.49902000  0.28868000  0.20986000  1.0 -0.4538162703
N  N324  1  0.54970000  0.23072000  0.22734000  1.0 -0.2176049495
N  N325  1  0.66080000  0.16552000  0.19628000  1.0 -0.4204817846
N  N326  1  0.65611000  0.20821000  0.15013000  1.0 -0.4204817846
N  N327  1  0.70348000  0.16648000  0.14974000  1.0 -0.4204817846
N  N328  1  0.73474000  0.06032000  0.22610000  1.0 -0.2176049495
N  N329  1  0.72685000  0.23413000  0.03929000  1.0 -0.2176049495
N  N330  1  0.70772000  0.01352000  0.28532000  1.0 -0.4762692428
N  N331  1  0.29805000  0.34215000  0.51683000  1.0 -0.4204817846
N  N332  1  0.26967000  0.45121000  0.50751000  1.0 -0.2136167952
N  N333  1  0.20986000  0.50244000  0.49902000  1.0 -0.4553769598
N  N334  1  0.22734000  0.49224000  0.54970000  1.0 -0.2176049495
N  N335  1  0.19628000  0.47740000  0.66080000  1.0 -0.4204817846
N  N336  1  0.15013000  0.48555000  0.65611000  1.0 -0.4204817846
N  N337  1  0.14974000  0.48030000  0.70348000  1.0 -0.4204817846
N  N338  1  0.22610000  0.47884000  0.73474000  1.0 -0.2176049495
N  N339  1  0.03929000  0.49973000  0.72685000  1.0 -0.2176049495
N  N340  1  0.28532000  0.49344000  0.70772000  1.0 -0.4762692428
N  N341  1  0.34215000  0.29805000  0.34297000  1.0 -0.4204817846
N  N342  1  0.45121000  0.26967000  0.27161000  1.0 -0.2136167952
N  N343  1  0.50244000  0.20986000  0.28868000  1.0 -0.4538162703
N  N344  1  0.49224000  0.22734000  0.23072000  1.0 -0.2176049495
N  N345  1  0.47740000  0.19628000  0.16552000  1.0 -0.4204817846
N  N346  1  0.48555000  0.15013000  0.20821000  1.0 -0.4204817846
N  N347  1  0.48030000  0.14974000  0.16648000  1.0 -0.4204817846
N  N348  1  0.47884000  0.22610000  0.06032000  1.0 -0.2176049495
N  N349  1  0.49973000  0.03929000  0.23413000  1.0 -0.2176049495
N  N350  1  0.49344000  0.28532000  0.01352000  1.0 -0.4762692428
N  N351  1  0.34297000  0.51683000  0.34215000  1.0 -0.4204817846
N  N352  1  0.27161000  0.50751000  0.45121000  1.0 -0.2136167952
N  N353  1  0.28868000  0.49902000  0.50244000  1.0 -0.4553769598
N  N354  1  0.23072000  0.54970000  0.49224000  1.0 -0.2176049495
N  N355  1  0.16552000  0.66080000  0.47740000  1.0 -0.4204817846
N  N356  1  0.20821000  0.65611000  0.48555000  1.0 -0.4204817846
N  N357  1  0.16648000  0.70348000  0.48030000  1.0 -0.4204817846
N  N358  1  0.06032000  0.73474000  0.47884000  1.0 -0.2176049495
N  N359  1  0.23413000  0.72685000  0.49973000  1.0 -0.2176049495
N  N360  1  0.01352000  0.70772000  0.49344000  1.0 -0.4762692428
N  N361  1  0.20195000  0.98317000  0.15785000  1.0 -0.4204817846
N  N362  1  0.23033000  0.99249000  0.04879000  1.0 -0.2136167952
N  N363  1  0.29014000  0.00098000  0.99756000  1.0 -0.4553769598
N  N364  1  0.27266000  0.95030000  0.00776000  1.0 -0.2176049495
N  N365  1  0.30372000  0.83920000  0.02260000  1.0 -0.4204817846
N  N366  1  0.34987000  0.84389000  0.01445000  1.0 -0.4204817846
N  N367  1  0.35026000  0.79652000  0.01970000  1.0 -0.4204817846
N  N368  1  0.27390000  0.76526000  0.02116000  1.0 -0.2176049495
N  N369  1  0.46071000  0.77315000  0.00027000  1.0 -0.2176049495
N  N370  1  0.21468000  0.79228000  0.00656000  1.0 -0.4762692428
N  N371  1  0.98317000  0.20195000  0.15703000  1.0 -0.4204817846
N  N372  1  0.99249000  0.23033000  0.22839000  1.0 -0.2136167952
N  N373  1  0.00098000  0.29014000  0.21132000  1.0 -0.4553769598
N  N374  1  0.95030000  0.27266000  0.26928000  1.0 -0.2176049495
N  N375  1  0.83920000  0.30372000  0.33448000  1.0 -0.4204817846
N  N376  1  0.84389000  0.34987000  0.29179000  1.0 -0.4204817846
N  N377  1  0.79652000  0.35026000  0.33352000  1.0 -0.4204817846
N  N378  1  0.76526000  0.27390000  0.43968000  1.0 -0.2176049495
N  N379  1  0.77315000  0.46071000  0.26587000  1.0 -0.2176049495
N  N380  1  0.79228000  0.21468000  0.48648000  1.0 -0.4762692428
N  N381  1  0.15703000  0.15785000  0.98317000  1.0 -0.4204817846
N  N382  1  0.22839000  0.04879000  0.99249000  1.0 -0.2136167952
N  N383  1  0.21132000  0.99756000  0.00098000  1.0 -0.4553769598
N  N384  1  0.26928000  0.00776000  0.95030000  1.0 -0.2176049495
N  N385  1  0.33448000  0.02260000  0.83920000  1.0 -0.4204817846
N  N386  1  0.29179000  0.01445000  0.84389000  1.0 -0.4204817846
N  N387  1  0.33352000  0.01970000  0.79652000  1.0 -0.4204817846
N  N388  1  0.43968000  0.02116000  0.76526000  1.0 -0.2176049495
N  N389  1  0.26587000  0.00027000  0.77315000  1.0 -0.2176049495
N  N390  1  0.48648000  0.00656000  0.79228000  1.0 -0.4762692428
N  N391  1  0.15785000  0.15703000  0.20195000  1.0 -0.4204817846
N  N392  1  0.04879000  0.22839000  0.23033000  1.0 -0.2136167952
N  N393  1  0.99756000  0.21132000  0.29014000  1.0 -0.4538162703
N  N394  1  0.00776000  0.26928000  0.27266000  1.0 -0.2176049495
N  N395  1  0.02260000  0.33448000  0.30372000  1.0 -0.4204817846
N  N396  1  0.01445000  0.29179000  0.34987000  1.0 -0.4204817846
N  N397  1  0.01970000  0.33352000  0.35026000  1.0 -0.4204817846
N  N398  1  0.02116000  0.43968000  0.27390000  1.0 -0.2176049495
N  N399  1  0.00027000  0.26587000  0.46071000  1.0 -0.2176049495
N  N400  1  0.00656000  0.48648000  0.21468000  1.0 -0.4735021295
N  N401  1  0.15703000  0.20195000  0.15785000  1.0 -0.4204817846
N  N402  1  0.22839000  0.23033000  0.04879000  1.0 -0.2136167952
N  N403  1  0.21132000  0.29014000  0.99756000  1.0 -0.4553769598
N  N404  1  0.26928000  0.27266000  0.00776000  1.0 -0.2176049495
N  N405  1  0.33448000  0.30372000  0.02260000  1.0 -0.4204817846
N  N406  1  0.29179000  0.34987000  0.01445000  1.0 -0.4204817846
N  N407  1  0.33352000  0.35026000  0.01970000  1.0 -0.4204817846
N  N408  1  0.43968000  0.27390000  0.02116000  1.0 -0.2176049495
N  N409  1  0.26587000  0.46071000  0.00027000  1.0 -0.2176049495
N  N410  1  0.48648000  0.21468000  0.00656000  1.0 -0.4762692428
N  N411  1  0.15785000  0.98317000  0.15703000  1.0 -0.4204817846
N  N412  1  0.04879000  0.99249000  0.22839000  1.0 -0.2136167952
N  N413  1  0.99756000  0.00098000  0.21132000  1.0 -0.4538162703
N  N414  1  0.00776000  0.95030000  0.26928000  1.0 -0.2176049495
N  N415  1  0.02260000  0.83920000  0.33448000  1.0 -0.4204817846
N  N416  1  0.01445000  0.84389000  0.29179000  1.0 -0.4204817846
N  N417  1  0.01970000  0.79652000  0.33352000  1.0 -0.4204817846
N  N418  1  0.02116000  0.76526000  0.43968000  1.0 -0.2176049495
N  N419  1  0.00027000  0.77315000  0.26587000  1.0 -0.2176049495
N  N420  1  0.00656000  0.79228000  0.48648000  1.0 -0.4762692428
N  N421  1  0.20195000  0.15703000  0.98317000  1.0 -0.4204817846
N  N422  1  0.23033000  0.22839000  0.99249000  1.0 -0.2136167952
N  N423  1  0.29014000  0.21132000  0.00098000  1.0 -0.4538162703
N  N424  1  0.27266000  0.26928000  0.95030000  1.0 -0.2176049495
N  N425  1  0.30372000  0.33448000  0.83920000  1.0 -0.4204817846
N  N426  1  0.34987000  0.29179000  0.84389000  1.0 -0.4204817846
N  N427  1  0.35026000  0.33352000  0.79652000  1.0 -0.4204817846
N  N428  1  0.27390000  0.43968000  0.76526000  1.0 -0.2176049495
N  N429  1  0.46071000  0.26587000  0.77315000  1.0 -0.2176049495
N  N430  1  0.21468000  0.48648000  0.79228000  1.0 -0.4762692428
N  N431  1  0.98317000  0.15785000  0.20195000  1.0 -0.4204817846
N  N432  1  0.99249000  0.04879000  0.23033000  1.0 -0.2136167952
N  N433  1  0.00098000  0.99756000  0.29014000  1.0 -0.4538162703
N  N434  1  0.95030000  0.00776000  0.27266000  1.0 -0.2176049495
N  N435  1  0.83920000  0.02260000  0.30372000  1.0 -0.4204817846
N  N436  1  0.84389000  0.01445000  0.34987000  1.0 -0.4204817846
N  N437  1  0.79652000  0.01970000  0.35026000  1.0 -0.4204817846
N  N438  1  0.76526000  0.02116000  0.27390000  1.0 -0.2176049495
N  N439  1  0.77315000  0.00027000  0.46071000  1.0 -0.2176049495
N  N440  1  0.79228000  0.00656000  0.21468000  1.0 -0.4762692428
N  N441  1  0.98317000  0.15703000  0.15785000  1.0 -0.4204817846
N  N442  1  0.99249000  0.22839000  0.04879000  1.0 -0.2136167952
N  N443  1  0.00098000  0.21132000  0.99756000  1.0 -0.4553769598
N  N444  1  0.95030000  0.26928000  0.00776000  1.0 -0.2176049495
N  N445  1  0.83920000  0.33448000  0.02260000  1.0 -0.4204817846
N  N446  1  0.84389000  0.29179000  0.01445000  1.0 -0.4204817846
N  N447  1  0.79652000  0.33352000  0.01970000  1.0 -0.4204817846
N  N448  1  0.76526000  0.43968000  0.02116000  1.0 -0.2176049495
N  N449  1  0.77315000  0.26587000  0.00027000  1.0 -0.2176049495
N  N450  1  0.79228000  0.48648000  0.00656000  1.0 -0.4735021295
N  N451  1  0.20195000  0.15785000  0.15703000  1.0 -0.4204817846
N  N452  1  0.23033000  0.04879000  0.22839000  1.0 -0.2136167952
N  N453  1  0.29014000  0.99756000  0.21132000  1.0 -0.4553769598
N  N454  1  0.27266000  0.00776000  0.26928000  1.0 -0.2176049495
N  N455  1  0.30372000  0.02260000  0.33448000  1.0 -0.4204817846
N  N456  1  0.34987000  0.01445000  0.29179000  1.0 -0.4204817846
N  N457  1  0.35026000  0.01970000  0.33352000  1.0 -0.4204817846
N  N458  1  0.27390000  0.02116000  0.43968000  1.0 -0.2176049495
N  N459  1  0.46071000  0.00027000  0.26587000  1.0 -0.2176049495
N  N460  1  0.21468000  0.00656000  0.48648000  1.0 -0.4762692428
N  N461  1  0.15785000  0.20195000  0.98317000  1.0 -0.4204817846
N  N462  1  0.04879000  0.23033000  0.99249000  1.0 -0.2136167952
N  N463  1  0.99756000  0.29014000  0.00098000  1.0 -0.4553769598
N  N464  1  0.00776000  0.27266000  0.95030000  1.0 -0.2176049495
N  N465  1  0.02260000  0.30372000  0.83920000  1.0 -0.4204817846
N  N466  1  0.01445000  0.34987000  0.84389000  1.0 -0.4204817846
N  N467  1  0.01970000  0.35026000  0.79652000  1.0 -0.4204817846
N  N468  1  0.02116000  0.27390000  0.76526000  1.0 -0.2176049495
N  N469  1  0.00027000  0.46071000  0.77315000  1.0 -0.2176049495
N  N470  1  0.00656000  0.21468000  0.79228000  1.0 -0.4762692428
N  N471  1  0.15703000  0.98317000  0.20195000  1.0 -0.4204817846
N  N472  1  0.22839000  0.99249000  0.23033000  1.0 -0.2136167952
N  N473  1  0.21132000  0.00098000  0.29014000  1.0 -0.4538162703
N  N474  1  0.26928000  0.95030000  0.27266000  1.0 -0.2176049495
N  N475  1  0.33448000  0.83920000  0.30372000  1.0 -0.4204817846
N  N476  1  0.29179000  0.84389000  0.34987000  1.0 -0.4204817846
N  N477  1  0.33352000  0.79652000  0.35026000  1.0 -0.4204817846
N  N478  1  0.43968000  0.76526000  0.27390000  1.0 -0.2176049495
N  N479  1  0.26587000  0.77315000  0.46071000  1.0 -0.2176049495
N  N480  1  0.48648000  0.79228000  0.21468000  1.0 -0.4762692428
