# DDEC6 charges by PACMAN v1.1 (https://github.com/mtap-research/PACMAN-charge/)
data_PUZTOV_ASR_pacman
_symmetry_space_group_name_H-M   'P 1'
_cell_length_a   14.11270000
_cell_length_b   14.11270000
_cell_length_c   16.23400000
_cell_angle_alpha   57.45120000
_cell_angle_beta   122.54900000
_cell_angle_gamma   124.10800000
_symmetry_Int_Tables_number   1
_chemical_formula_structural   CaCd2H12(C2O)12
_chemical_formula_sum   'Ca2 Cd4 H24 C48 O24'
_cell_volume   2123.32496568
_cell_formula_units_Z   2
loop_
 _symmetry_equiv_pos_site_id
 _symmetry_equiv_pos_as_xyz
  1  'x, y, z'
loop_
 _atom_site_type_symbol
 _atom_site_label
 _atom_site_symmetry_multiplicity
 _atom_site_fract_x
 _atom_site_fract_y
 _atom_site_fract_z
 _atom_site_occupancy
 _atom_site_charge
Ca  Ca1  1  0.71041000  0.71041000  0.75000000  1.0 1.422167658
Ca  Ca2  1  0.28959000  0.28959000  0.25000000  1.0 1.422167658
Cd  Cd1  1  0.62827000  0.97117000  0.61743000  1.0 0.9784594766
Cd  Cd2  1  0.97117000  0.62827000  0.88257000  1.0 0.9784594766
Cd  Cd3  1  0.37173000  0.02883000  0.38257000  1.0 0.9784594766
Cd  Cd4  1  0.02883000  0.37173000  0.11743000  1.0 0.9784594766
H  H1  1  0.58010000  0.67730000  0.50460000  1.0 0.1207704312
H  H2  1  0.67730000  0.58010000  0.99540000  1.0 0.1207704312
H  H3  1  0.41990000  0.32270000  0.49540000  1.0 0.1207704312
H  H4  1  0.32270000  0.41990000  0.00460000  1.0 0.1207704312
H  H5  1  0.46150000  0.53450000  0.41950000  1.0 0.1028571511
H  H6  1  0.53450000  0.46150000  0.08050000  1.0 0.1028571511
H  H7  1  0.53850000  0.46550000  0.58050000  1.0 0.1028571511
H  H8  1  0.46550000  0.53850000  0.91950000  1.0 0.1028571511
H  H9  1  0.23280000  0.70480000  0.22580000  1.0 0.1207704312
H  H10  1  0.70480000  0.23280000  0.27420000  1.0 0.1207704312
H  H11  1  0.76720000  0.29520000  0.77420000  1.0 0.1207704312
H  H12  1  0.29520000  0.76720000  0.72580000  1.0 0.1207704312
H  H13  1  0.33690000  0.82570000  0.32650000  1.0 0.1261451385
H  H14  1  0.82570000  0.33690000  0.17350000  1.0 0.1261451385
H  H15  1  0.66310000  0.17430000  0.67350000  1.0 0.1261451385
H  H16  1  0.17430000  0.66310000  0.82650000  1.0 0.1261451385
H  H17  1  0.96620000  0.85840000  0.94660000  1.0 0.1207704312
H  H18  1  0.85840000  0.96620000  0.55340000  1.0 0.1207704312
H  H19  1  0.03380000  0.14160000  0.05340000  1.0 0.1207704312
H  H20  1  0.14160000  0.03380000  0.44660000  1.0 0.1207704312
H  H21  1  0.87950000  0.11110000  0.90080000  1.0 0.1207704312
H  H22  1  0.11110000  0.87950000  0.59920000  1.0 0.1207704312
H  H23  1  0.12050000  0.88890000  0.09920000  1.0 0.1207704312
H  H24  1  0.88890000  0.12050000  0.40080000  1.0 0.1207704312
C  C1  1  0.45790000  0.75170000  0.43280000  1.0 -0.0235894108
C  C2  1  0.75170000  0.45790000  0.06720000  1.0 -0.0235894108
C  C3  1  0.54210000  0.24830000  0.56720000  1.0 -0.0235894108
C  C4  1  0.24830000  0.54210000  0.93280000  1.0 -0.0235894108
C  C5  1  0.50420000  0.67560000  0.45450000  1.0 -0.107826191
C  C6  1  0.67560000  0.50420000  0.04550000  1.0 -0.107826191
C  C7  1  0.49580000  0.32440000  0.54550000  1.0 -0.107826191
C  C8  1  0.32440000  0.49580000  0.95450000  1.0 -0.107826191
C  C9  1  0.43450000  0.59310000  0.39950000  1.0 -0.107826191
C  C10  1  0.59310000  0.43450000  0.10050000  1.0 -0.107826191
C  C11  1  0.56550000  0.40690000  0.60050000  1.0 -0.107826191
C  C12  1  0.40690000  0.56550000  0.89950000  1.0 -0.107826191
C  C13  1  0.32630000  0.59750000  0.31590000  1.0 -0.0315340207
C  C14  1  0.59750000  0.32630000  0.18410000  1.0 -0.0315340207
C  C15  1  0.67370000  0.40250000  0.68410000  1.0 -0.0315340207
C  C16  1  0.40250000  0.67370000  0.81590000  1.0 -0.0315340207
C  C17  1  0.29700000  0.69040000  0.28670000  1.0 -0.0995569308
C  C18  1  0.69040000  0.29700000  0.21330000  1.0 -0.0995569308
C  C19  1  0.70300000  0.30960000  0.71330000  1.0 -0.0995569308
C  C20  1  0.30960000  0.70300000  0.78670000  1.0 -0.0995569308
C  C21  1  0.36160000  0.76520000  0.34680000  1.0 -0.0995569308
C  C22  1  0.76520000  0.36160000  0.15320000  1.0 -0.0995569308
C  C23  1  0.63840000  0.23480000  0.65320000  1.0 -0.0995569308
C  C24  1  0.23480000  0.63840000  0.84680000  1.0 -0.0995569308
C  C25  1  0.52300000  0.82920000  0.49730000  1.0 0.6125187865
C  C26  1  0.82920000  0.52300000  0.00270000  1.0 0.6125187865
C  C27  1  0.47700000  0.17080000  0.50270000  1.0 0.6125187865
C  C28  1  0.17080000  0.47700000  0.99730000  1.0 0.6125187865
C  C29  1  0.25720000  0.51300000  0.25660000  1.0 0.5822111956
C  C30  1  0.51300000  0.25720000  0.24340000  1.0 0.5822111956
C  C31  1  0.74280000  0.48700000  0.74340000  1.0 0.5822111956
C  C32  1  0.48700000  0.74280000  0.75660000  1.0 0.5822111956
C  C33  1  0.81610000  0.97170000  0.80420000  1.0 0.5822111956
C  C34  1  0.97170000  0.81610000  0.69580000  1.0 0.5822111956
C  C35  1  0.18390000  0.02830000  0.19580000  1.0 0.5822111956
C  C36  1  0.02830000  0.18390000  0.30420000  1.0 0.5822111956
C  C37  1  0.91080000  0.98600000  0.90520000  1.0 -0.0315340207
C  C38  1  0.98600000  0.91080000  0.59480000  1.0 -0.0315340207
C  C39  1  0.08920000  0.01400000  0.09480000  1.0 -0.0315340207
C  C40  1  0.01400000  0.08920000  0.40520000  1.0 -0.0315340207
C  C41  1  0.98000000  0.91660000  0.96690000  1.0 -0.0995569308
C  C42  1  0.91660000  0.98000000  0.53310000  1.0 -0.0995569308
C  C43  1  0.02000000  0.08340000  0.03310000  1.0 -0.0995569308
C  C44  1  0.08340000  0.02000000  0.46690000  1.0 -0.0995569308
C  C45  1  0.92890000  0.06670000  0.94000000  1.0 -0.0995569308
C  C46  1  0.06670000  0.92890000  0.56000000  1.0 -0.0995569308
C  C47  1  0.07110000  0.93330000  0.06000000  1.0 -0.0995569308
C  C48  1  0.93330000  0.07110000  0.44000000  1.0 -0.0995569308
O  O1  1  0.61364000  0.81376000  0.57830000  1.0 -0.637058855
O  O2  1  0.81376000  0.61364000  0.92170000  1.0 -0.637058855
O  O3  1  0.38636000  0.18624000  0.42170000  1.0 -0.637058855
O  O4  1  0.18624000  0.38636000  0.07830000  1.0 -0.637058855
O  O5  1  0.49033000  0.91167000  0.46920000  1.0 -0.5604577073
O  O6  1  0.91167000  0.49033000  0.03080000  1.0 -0.5604577073
O  O7  1  0.50967000  0.08833000  0.53080000  1.0 -0.5604577073
O  O8  1  0.08833000  0.50967000  0.96920000  1.0 -0.5604577073
O  O9  1  0.16634000  0.52746000  0.18000000  1.0 -0.5295555004
O  O10  1  0.52746000  0.16634000  0.32000000  1.0 -0.5295555004
O  O11  1  0.83366000  0.47254000  0.82000000  1.0 -0.5295555004
O  O12  1  0.47254000  0.83366000  0.68000000  1.0 -0.5295555004
O  O13  1  0.29210000  0.43170000  0.29020000  1.0 -0.6204470405
O  O14  1  0.43170000  0.29210000  0.20980000  1.0 -0.6204470405
O  O15  1  0.70790000  0.56830000  0.70980000  1.0 -0.6204470405
O  O16  1  0.56830000  0.70790000  0.79020000  1.0 -0.6204470405
O  O17  1  0.75420000  0.03840000  0.75080000  1.0 -0.5412162551
O  O18  1  0.03840000  0.75420000  0.74920000  1.0 -0.5412162551
O  O19  1  0.24580000  0.96160000  0.24920000  1.0 -0.5412162551
O  O20  1  0.96160000  0.24580000  0.25080000  1.0 -0.5412162551
O  O21  1  0.80062000  0.89998000  0.77320000  1.0 -0.5892955818
O  O22  1  0.89998000  0.80062000  0.72680000  1.0 -0.5892955818
O  O23  1  0.19938000  0.10002000  0.22680000  1.0 -0.5892955818
O  O24  1  0.10002000  0.19938000  0.27320000  1.0 -0.5892955818
