# DDEC6 charges by PACMAN v1.1 (https://github.com/mtap-research/PACMAN-charge/)
data_PUZXIU_ASR_pacman
_symmetry_space_group_name_H-M   'P 1'
_cell_length_a   39.18800000
_cell_length_b   39.18800000
_cell_length_c   18.24300000
_cell_angle_alpha   90.00000000
_cell_angle_beta   90.00000000
_cell_angle_gamma   120.00000000
_symmetry_Int_Tables_number   1
_chemical_formula_structural   Zn4H15C76O13
_chemical_formula_sum   'Zn24 H90 C456 O78'
_cell_volume   24262.36257923
_cell_formula_units_Z   6
loop_
 _symmetry_equiv_pos_site_id
 _symmetry_equiv_pos_as_xyz
  1  'x, y, z'
loop_
 _atom_site_type_symbol
 _atom_site_label
 _atom_site_symmetry_multiplicity
 _atom_site_fract_x
 _atom_site_fract_y
 _atom_site_fract_z
 _atom_site_occupancy
 _atom_site_charge
Zn  Zn1  1  0.60524000  0.61759000  0.66642000  1.0 0.9337309665
Zn  Zn2  1  0.01235000  0.39476000  0.66642000  1.0 0.9337309665
Zn  Zn3  1  0.38241000  0.98765000  0.66642000  1.0 0.9337309665
Zn  Zn4  1  0.39476000  0.38241000  0.16642000  1.0 0.9337309665
Zn  Zn5  1  0.98765000  0.60524000  0.16642000  1.0 0.9337309665
Zn  Zn6  1  0.61759000  0.01235000  0.16642000  1.0 0.9337309665
Zn  Zn7  1  0.39476000  0.38241000  0.33358000  1.0 0.9337309665
Zn  Zn8  1  0.98765000  0.60524000  0.33358000  1.0 0.9337309665
Zn  Zn9  1  0.61759000  0.01235000  0.33358000  1.0 0.9337309665
Zn  Zn10  1  0.60524000  0.61759000  0.83358000  1.0 0.9337309665
Zn  Zn11  1  0.01235000  0.39476000  0.83358000  1.0 0.9337309665
Zn  Zn12  1  0.38241000  0.98765000  0.83358000  1.0 0.9337309665
Zn  Zn13  1  0.52689000  0.58913000  0.75000000  1.0 0.9417091624
Zn  Zn14  1  0.59306000  0.68260000  0.75000000  1.0 0.9758602099
Zn  Zn15  1  0.06224000  0.47311000  0.75000000  1.0 0.9417091624
Zn  Zn16  1  0.08954000  0.40694000  0.75000000  1.0 0.9758602099
Zn  Zn17  1  0.41087000  0.93776000  0.75000000  1.0 0.9417091624
Zn  Zn18  1  0.31740000  0.91046000  0.75000000  1.0 0.9758602099
Zn  Zn19  1  0.47311000  0.41087000  0.25000000  1.0 0.9417091624
Zn  Zn20  1  0.40694000  0.31740000  0.25000000  1.0 0.9758602099
Zn  Zn21  1  0.93776000  0.52689000  0.25000000  1.0 0.9417091624
Zn  Zn22  1  0.91046000  0.59306000  0.25000000  1.0 0.9758602099
Zn  Zn23  1  0.58913000  0.06224000  0.25000000  1.0 0.9417091624
Zn  Zn24  1  0.68260000  0.08954000  0.25000000  1.0 0.9758602099
H  H1  1  0.54190000  0.56560000  0.46360000  1.0 0.1384801905
H  H2  1  0.54220000  0.48250000  0.56940000  1.0 0.12172451
H  H3  1  0.44940000  0.49640000  0.57630000  1.0 0.1131227852
H  H4  1  0.35700000  0.60310000  0.63300000  1.0 0.129978189
H  H5  1  0.32110000  0.56650000  0.67320000  1.0 0.12172451
H  H6  1  0.36360000  0.57020000  0.67160000  1.0 0.12172451
H  H7  1  0.02370000  0.45810000  0.46360000  1.0 0.1384801905
H  H8  1  0.94030000  0.45780000  0.56940000  1.0 0.12172451
H  H9  1  0.04700000  0.55060000  0.57630000  1.0 0.1131227852
H  H10  1  0.24610000  0.64300000  0.63300000  1.0 0.129978189
H  H11  1  0.24540000  0.67890000  0.67320000  1.0 0.12172451
H  H12  1  0.20660000  0.63640000  0.67160000  1.0 0.12172451
H  H13  1  0.43440000  0.97630000  0.46360000  1.0 0.1384801905
H  H14  1  0.51750000  0.05970000  0.56940000  1.0 0.12172451
H  H15  1  0.50360000  0.95300000  0.57630000  1.0 0.1131227852
H  H16  1  0.39690000  0.75390000  0.63300000  1.0 0.129978189
H  H17  1  0.43350000  0.75460000  0.67320000  1.0 0.12172451
H  H18  1  0.42980000  0.79340000  0.67160000  1.0 0.12172451
H  H19  1  0.45810000  0.43440000  0.96360000  1.0 0.1384801905
H  H20  1  0.45780000  0.51750000  0.06940000  1.0 0.12172451
H  H21  1  0.55060000  0.50360000  0.07630000  1.0 0.1131227852
H  H22  1  0.64300000  0.39690000  0.13300000  1.0 0.129978189
H  H23  1  0.67890000  0.43350000  0.17320000  1.0 0.12172451
H  H24  1  0.63640000  0.42980000  0.17160000  1.0 0.12172451
H  H25  1  0.97630000  0.54190000  0.96360000  1.0 0.1384801905
H  H26  1  0.05970000  0.54220000  0.06940000  1.0 0.12172451
H  H27  1  0.95300000  0.44940000  0.07630000  1.0 0.1131227852
H  H28  1  0.75390000  0.35700000  0.13300000  1.0 0.129978189
H  H29  1  0.75460000  0.32110000  0.17320000  1.0 0.12172451
H  H30  1  0.79340000  0.36360000  0.17160000  1.0 0.12172451
H  H31  1  0.56560000  0.02370000  0.96360000  1.0 0.1384801905
H  H32  1  0.48250000  0.94030000  0.06940000  1.0 0.12172451
H  H33  1  0.49640000  0.04700000  0.07630000  1.0 0.1131227852
H  H34  1  0.60310000  0.24610000  0.13300000  1.0 0.129978189
H  H35  1  0.56650000  0.24540000  0.17320000  1.0 0.12172451
H  H36  1  0.57020000  0.20660000  0.17160000  1.0 0.12172451
H  H37  1  0.45810000  0.43440000  0.53640000  1.0 0.1384801905
H  H38  1  0.45780000  0.51750000  0.43060000  1.0 0.12172451
H  H39  1  0.55060000  0.50360000  0.42370000  1.0 0.1131227852
H  H40  1  0.64300000  0.39690000  0.36700000  1.0 0.129978189
H  H41  1  0.67890000  0.43350000  0.32680000  1.0 0.12172451
H  H42  1  0.63640000  0.42980000  0.32840000  1.0 0.12172451
H  H43  1  0.97630000  0.54190000  0.53640000  1.0 0.1384801905
H  H44  1  0.05970000  0.54220000  0.43060000  1.0 0.12172451
H  H45  1  0.95300000  0.44940000  0.42370000  1.0 0.1131227852
H  H46  1  0.75390000  0.35700000  0.36700000  1.0 0.129978189
H  H47  1  0.75460000  0.32110000  0.32680000  1.0 0.12172451
H  H48  1  0.79340000  0.36360000  0.32840000  1.0 0.12172451
H  H49  1  0.56560000  0.02370000  0.53640000  1.0 0.1384801905
H  H50  1  0.48250000  0.94030000  0.43060000  1.0 0.12172451
H  H51  1  0.49640000  0.04700000  0.42370000  1.0 0.1131227852
H  H52  1  0.60310000  0.24610000  0.36700000  1.0 0.129978189
H  H53  1  0.56650000  0.24540000  0.32680000  1.0 0.12172451
H  H54  1  0.57020000  0.20660000  0.32840000  1.0 0.12172451
H  H55  1  0.54190000  0.56560000  0.03640000  1.0 0.1384801905
H  H56  1  0.54220000  0.48250000  0.93060000  1.0 0.12172451
H  H57  1  0.44940000  0.49640000  0.92370000  1.0 0.1131227852
H  H58  1  0.35700000  0.60310000  0.86700000  1.0 0.129978189
H  H59  1  0.32110000  0.56650000  0.82680000  1.0 0.12172451
H  H60  1  0.36360000  0.57020000  0.82840000  1.0 0.12172451
H  H61  1  0.02370000  0.45810000  0.03640000  1.0 0.1384801905
H  H62  1  0.94030000  0.45780000  0.93060000  1.0 0.12172451
H  H63  1  0.04700000  0.55060000  0.92370000  1.0 0.1131227852
H  H64  1  0.24610000  0.64300000  0.86700000  1.0 0.129978189
H  H65  1  0.24540000  0.67890000  0.82680000  1.0 0.12172451
H  H66  1  0.20660000  0.63640000  0.82840000  1.0 0.12172451
H  H67  1  0.43440000  0.97630000  0.03640000  1.0 0.1384801905
H  H68  1  0.51750000  0.05970000  0.93060000  1.0 0.12172451
H  H69  1  0.50360000  0.95300000  0.92370000  1.0 0.1131227852
H  H70  1  0.39690000  0.75390000  0.86700000  1.0 0.129978189
H  H71  1  0.43350000  0.75460000  0.82680000  1.0 0.12172451
H  H72  1  0.42980000  0.79340000  0.82840000  1.0 0.12172451
H  H73  1  0.50700000  0.71900000  0.75000000  1.0 0.129978189
H  H74  1  0.45740000  0.73390000  0.75000000  1.0 0.12172451
H  H75  1  0.43140000  0.60330000  0.75000000  1.0 0.129978189
H  H76  1  0.21200000  0.49300000  0.75000000  1.0 0.129978189
H  H77  1  0.27650000  0.54260000  0.75000000  1.0 0.12172451
H  H78  1  0.17190000  0.56860000  0.75000000  1.0 0.129978189
H  H79  1  0.28100000  0.78800000  0.75000000  1.0 0.129978189
H  H80  1  0.26610000  0.72350000  0.75000000  1.0 0.12172451
H  H81  1  0.39670000  0.82810000  0.75000000  1.0 0.129978189
H  H82  1  0.49300000  0.28100000  0.25000000  1.0 0.129978189
H  H83  1  0.54260000  0.26610000  0.25000000  1.0 0.12172451
H  H84  1  0.56860000  0.39670000  0.25000000  1.0 0.129978189
H  H85  1  0.78800000  0.50700000  0.25000000  1.0 0.129978189
H  H86  1  0.72350000  0.45740000  0.25000000  1.0 0.12172451
H  H87  1  0.82810000  0.43140000  0.25000000  1.0 0.129978189
H  H88  1  0.71900000  0.21200000  0.25000000  1.0 0.129978189
H  H89  1  0.73390000  0.27650000  0.25000000  1.0 0.12172451
H  H90  1  0.60330000  0.17190000  0.25000000  1.0 0.129978189
C  C1  1  0.53130000  0.54860000  0.62500000  1.0 0.6002607362
C  C2  1  0.51300000  0.52060000  0.56500000  1.0 -0.0660386785
C  C3  1  0.52420000  0.53760000  0.47850000  1.0 -0.116394271
C  C4  1  0.52560000  0.49070000  0.54110000  1.0 -0.1035884352
C  C5  1  0.47110000  0.49880000  0.54410000  1.0 -0.0843876989
C  C6  1  0.60660000  0.67750000  0.58540000  1.0 0.533573641
C  C7  1  0.60410000  0.68450000  0.49330000  1.0 -0.0318114247
C  C8  1  0.61280000  0.66680000  0.43820000  1.0 -0.1363534334
C  C9  1  0.62020000  0.68490000  0.34800000  1.0 0.0598669616
C  C10  1  0.62270000  0.72020000  0.38170000  1.0 -0.1076110511
C  C11  1  0.61930000  0.74760000  0.41510000  1.0 -0.0464712927
C  C12  1  0.60460000  0.72000000  0.49270000  1.0 0.0319397929
C  C13  1  0.62220000  0.74300000  0.28770000  1.0 -0.0046399431
C  C14  1  0.62020000  0.77340000  0.32590000  1.0 0.0319397929
C  C15  1  0.61820000  0.78170000  0.40760000  1.0 0.0381973737
C  C16  1  0.62170000  0.80380000  0.28340000  1.0 -0.0110532472
C  C17  1  0.61850000  0.83070000  0.36000000  1.0 0.0189108446
C  C18  1  0.62020000  0.85180000  0.28570000  1.0 0.0021814985
C  C19  1  0.62610000  0.86460000  0.34200000  1.0 0.0189108446
C  C20  1  0.61700000  0.89780000  0.31680000  1.0 0.0381973737
C  C21  1  0.34950000  0.58490000  0.67460000  1.0 -0.4515599294
C  C22  1  0.62240000  0.71260000  0.53030000  1.0 -0.0640199578
C  C23  1  0.61710000  0.74660000  0.54600000  1.0 -0.0388464884
C  C24  1  0.62690000  0.77290000  0.47830000  1.0 0.007212954
C  C25  1  0.62510000  0.69720000  0.47110000  1.0 0.007212954
C  C26  1  0.58490000  0.66810000  0.31280000  1.0 -0.017280535
C  C27  1  0.65990000  0.70320000  0.30880000  1.0 0.0598669616
C  C28  1  0.62060000  0.70680000  0.32500000  1.0 0.0698360469
C  C29  1  0.65530000  0.81130000  0.43910000  1.0 -0.0318114247
C  C30  1  0.66310000  0.86040000  0.38770000  1.0 0.0598669616
C  C31  1  0.57910000  0.77670000  0.43340000  1.0 0.0381973737
C  C32  1  0.57910000  0.81500000  0.39420000  1.0 0.0021814985
C  C33  1  0.01730000  0.46870000  0.62500000  1.0 0.6002607362
C  C34  1  0.00760000  0.48700000  0.56500000  1.0 -0.0660386785
C  C35  1  0.01340000  0.47580000  0.47850000  1.0 -0.116394271
C  C36  1  0.96510000  0.47440000  0.54110000  1.0 -0.1035884352
C  C37  1  0.02770000  0.52890000  0.54410000  1.0 -0.0853447227
C  C38  1  0.07090000  0.39340000  0.58540000  1.0 0.533573641
C  C39  1  0.08040000  0.39590000  0.49330000  1.0 -0.0318114247
C  C40  1  0.05400000  0.38720000  0.43820000  1.0 -0.1363534334
C  C41  1  0.06470000  0.37980000  0.34800000  1.0 0.0598669616
C  C42  1  0.09750000  0.37730000  0.38170000  1.0 -0.1076110511
C  C43  1  0.12830000  0.38070000  0.41510000  1.0 -0.0464712927
C  C44  1  0.11540000  0.39540000  0.49270000  1.0 0.0319397929
C  C45  1  0.12080000  0.37780000  0.28770000  1.0 -0.0110532472
C  C46  1  0.15320000  0.37980000  0.32590000  1.0 0.0319397929
C  C47  1  0.16350000  0.38180000  0.40760000  1.0 0.0381973737
C  C48  1  0.18210000  0.37830000  0.28340000  1.0 -0.0110532472
C  C49  1  0.21220000  0.38150000  0.36000000  1.0 0.0189108446
C  C50  1  0.23160000  0.37980000  0.28570000  1.0 0.0021814985
C  C51  1  0.23850000  0.37390000  0.34200000  1.0 0.0189108446
C  C52  1  0.28080000  0.38300000  0.31680000  1.0 0.0381973737
C  C53  1  0.23540000  0.65050000  0.67460000  1.0 -0.4515599294
C  C54  1  0.09020000  0.37760000  0.53030000  1.0 -0.0640199578
C  C55  1  0.12950000  0.38290000  0.54600000  1.0 -0.0388464884
C  C56  1  0.14600000  0.37310000  0.47830000  1.0 0.007212954
C  C57  1  0.07210000  0.37490000  0.47110000  1.0 0.007212954
C  C58  1  0.08320000  0.41510000  0.31280000  1.0 -0.017280535
C  C59  1  0.04330000  0.34010000  0.30880000  1.0 0.0598669616
C  C60  1  0.08620000  0.37940000  0.32500000  1.0 0.0698360469
C  C61  1  0.15600000  0.34470000  0.43910000  1.0 -0.0318114247
C  C62  1  0.19730000  0.33690000  0.38770000  1.0 0.0598669616
C  C63  1  0.19760000  0.42090000  0.43340000  1.0 0.0381973737
C  C64  1  0.23590000  0.42090000  0.39420000  1.0 0.0021814985
C  C65  1  0.45140000  0.98270000  0.62500000  1.0 0.6002607362
C  C66  1  0.47940000  0.99240000  0.56500000  1.0 -0.0660386785
C  C67  1  0.46240000  0.98660000  0.47850000  1.0 -0.116394271
C  C68  1  0.50930000  0.03490000  0.54110000  1.0 -0.1035884352
C  C69  1  0.50120000  0.97230000  0.54410000  1.0 -0.0843876989
C  C70  1  0.32250000  0.92910000  0.58540000  1.0 0.533573641
C  C71  1  0.31550000  0.91960000  0.49330000  1.0 -0.0318114247
C  C72  1  0.33320000  0.94600000  0.43820000  1.0 -0.1363534334
C  C73  1  0.31510000  0.93530000  0.34800000  1.0 0.0598669616
C  C74  1  0.27980000  0.90250000  0.38170000  1.0 -0.1076110511
C  C75  1  0.25240000  0.87170000  0.41510000  1.0 -0.0464712927
C  C76  1  0.28000000  0.88460000  0.49270000  1.0 0.0319397929
C  C77  1  0.25700000  0.87920000  0.28770000  1.0 -0.0046399431
C  C78  1  0.22660000  0.84680000  0.32590000  1.0 0.0319397929
C  C79  1  0.21830000  0.83650000  0.40760000  1.0 0.0381973737
C  C80  1  0.19620000  0.81790000  0.28340000  1.0 -0.0110532472
C  C81  1  0.16930000  0.78780000  0.36000000  1.0 0.0189108446
C  C82  1  0.14820000  0.76840000  0.28570000  1.0 0.0021814985
C  C83  1  0.13540000  0.76150000  0.34200000  1.0 0.0189108446
C  C84  1  0.10220000  0.71920000  0.31680000  1.0 0.0381973737
C  C85  1  0.41510000  0.76460000  0.67460000  1.0 -0.4515599294
C  C86  1  0.28740000  0.90980000  0.53030000  1.0 -0.0640199578
C  C87  1  0.25340000  0.87050000  0.54600000  1.0 -0.0388464884
C  C88  1  0.22710000  0.85400000  0.47830000  1.0 0.007212954
C  C89  1  0.30280000  0.92790000  0.47110000  1.0 0.007212954
C  C90  1  0.33190000  0.91680000  0.31280000  1.0 -0.017280535
C  C91  1  0.29680000  0.95670000  0.30880000  1.0 0.0598669616
C  C92  1  0.29320000  0.91380000  0.32500000  1.0 0.0698360469
C  C93  1  0.18870000  0.84400000  0.43910000  1.0 -0.0318114247
C  C94  1  0.13960000  0.80270000  0.38770000  1.0 0.0598669616
C  C95  1  0.22330000  0.80240000  0.43340000  1.0 0.0319397929
C  C96  1  0.18500000  0.76410000  0.39420000  1.0 0.0021814985
C  C97  1  0.46870000  0.45140000  0.12500000  1.0 0.6002607362
C  C98  1  0.48700000  0.47940000  0.06500000  1.0 -0.0660386785
C  C99  1  0.47580000  0.46240000  0.97850000  1.0 -0.116394271
C  C100  1  0.47440000  0.50930000  0.04110000  1.0 -0.1035884352
C  C101  1  0.52890000  0.50120000  0.04410000  1.0 -0.0843876989
C  C102  1  0.39340000  0.32250000  0.08540000  1.0 0.533573641
C  C103  1  0.39590000  0.31550000  0.99330000  1.0 -0.0318114247
C  C104  1  0.38720000  0.33320000  0.93820000  1.0 -0.1363534334
C  C105  1  0.37980000  0.31510000  0.84800000  1.0 0.0598669616
C  C106  1  0.37730000  0.27980000  0.88170000  1.0 -0.1035884352
C  C107  1  0.38070000  0.25240000  0.91510000  1.0 -0.0464712927
C  C108  1  0.39540000  0.28000000  0.99270000  1.0 0.0319397929
C  C109  1  0.37780000  0.25700000  0.78770000  1.0 -0.0110532472
C  C110  1  0.37980000  0.22660000  0.82590000  1.0 0.0319397929
C  C111  1  0.38180000  0.21830000  0.90760000  1.0 0.0381973737
C  C112  1  0.37830000  0.19620000  0.78340000  1.0 -0.0110532472
C  C113  1  0.38150000  0.16930000  0.86000000  1.0 0.0189108446
C  C114  1  0.37980000  0.14820000  0.78570000  1.0 0.0021814985
C  C115  1  0.37390000  0.13540000  0.84200000  1.0 0.0189108446
C  C116  1  0.38300000  0.10220000  0.81680000  1.0 0.0381973737
C  C117  1  0.65050000  0.41510000  0.17460000  1.0 -0.4515599294
C  C118  1  0.37760000  0.28740000  0.03030000  1.0 -0.0640199578
C  C119  1  0.38290000  0.25340000  0.04600000  1.0 -0.0388464884
C  C120  1  0.37310000  0.22710000  0.97830000  1.0 0.007212954
C  C121  1  0.37490000  0.30280000  0.97110000  1.0 0.007212954
C  C122  1  0.41510000  0.33190000  0.81280000  1.0 -0.017280535
C  C123  1  0.34010000  0.29680000  0.80880000  1.0 0.0598669616
C  C124  1  0.37940000  0.29320000  0.82500000  1.0 0.0698360469
C  C125  1  0.34470000  0.18870000  0.93910000  1.0 -0.0318114247
C  C126  1  0.33690000  0.13960000  0.88770000  1.0 0.0598669616
C  C127  1  0.42090000  0.22330000  0.93340000  1.0 0.0381973737
C  C128  1  0.42090000  0.18500000  0.89420000  1.0 0.0021814985
C  C129  1  0.98270000  0.53130000  0.12500000  1.0 0.6002607362
C  C130  1  0.99240000  0.51300000  0.06500000  1.0 -0.0640199578
C  C131  1  0.98660000  0.52420000  0.97850000  1.0 -0.116394271
C  C132  1  0.03490000  0.52560000  0.04110000  1.0 -0.1035884352
C  C133  1  0.97230000  0.47110000  0.04410000  1.0 -0.0843876989
C  C134  1  0.92910000  0.60660000  0.08540000  1.0 0.5351266877
C  C135  1  0.91960000  0.60410000  0.99330000  1.0 -0.0318114247
C  C136  1  0.94600000  0.61280000  0.93820000  1.0 -0.1345013215
C  C137  1  0.93530000  0.62020000  0.84800000  1.0 0.0598669616
C  C138  1  0.90250000  0.62270000  0.88170000  1.0 -0.1076110511
C  C139  1  0.87170000  0.61930000  0.91510000  1.0 -0.0464712927
C  C140  1  0.88460000  0.60460000  0.99270000  1.0 0.0319397929
C  C141  1  0.87920000  0.62220000  0.78770000  1.0 -0.0046399431
C  C142  1  0.84680000  0.62020000  0.82590000  1.0 0.0319397929
C  C143  1  0.83650000  0.61820000  0.90760000  1.0 0.0381973737
C  C144  1  0.81790000  0.62170000  0.78340000  1.0 -0.0110532472
C  C145  1  0.78780000  0.61850000  0.86000000  1.0 0.0189108446
C  C146  1  0.76840000  0.62020000  0.78570000  1.0 0.0021814985
C  C147  1  0.76150000  0.62610000  0.84200000  1.0 0.0189108446
C  C148  1  0.71920000  0.61700000  0.81680000  1.0 0.0381973737
C  C149  1  0.76460000  0.34950000  0.17460000  1.0 -0.4515599294
C  C150  1  0.90980000  0.62240000  0.03030000  1.0 -0.0640199578
C  C151  1  0.87050000  0.61710000  0.04600000  1.0 -0.0318114247
C  C152  1  0.85400000  0.62690000  0.97830000  1.0 0.007212954
C  C153  1  0.92790000  0.62510000  0.97110000  1.0 0.007212954
C  C154  1  0.91680000  0.58490000  0.81280000  1.0 -0.017280535
C  C155  1  0.95670000  0.65990000  0.80880000  1.0 0.0598669616
C  C156  1  0.91380000  0.62060000  0.82500000  1.0 0.0698360469
C  C157  1  0.84400000  0.65530000  0.93910000  1.0 -0.0318114247
C  C158  1  0.80270000  0.66310000  0.88770000  1.0 0.0598669616
C  C159  1  0.80240000  0.57910000  0.93340000  1.0 0.0381973737
C  C160  1  0.76410000  0.57910000  0.89420000  1.0 0.0021814985
C  C161  1  0.54860000  0.01730000  0.12500000  1.0 0.6002607362
C  C162  1  0.52060000  0.00760000  0.06500000  1.0 -0.0660386785
C  C163  1  0.53760000  0.01340000  0.97850000  1.0 -0.116394271
C  C164  1  0.49070000  0.96510000  0.04110000  1.0 -0.1035884352
C  C165  1  0.49880000  0.02770000  0.04410000  1.0 -0.0843876989
C  C166  1  0.67750000  0.07090000  0.08540000  1.0 0.533573641
C  C167  1  0.68450000  0.08040000  0.99330000  1.0 -0.0318114247
C  C168  1  0.66680000  0.05400000  0.93820000  1.0 -0.1345013215
C  C169  1  0.68490000  0.06470000  0.84800000  1.0 0.0598669616
C  C170  1  0.72020000  0.09750000  0.88170000  1.0 -0.1076110511
C  C171  1  0.74760000  0.12830000  0.91510000  1.0 -0.0464712927
C  C172  1  0.72000000  0.11540000  0.99270000  1.0 0.0319397929
C  C173  1  0.74300000  0.12080000  0.78770000  1.0 -0.0046399431
C  C174  1  0.77340000  0.15320000  0.82590000  1.0 0.0319397929
C  C175  1  0.78170000  0.16350000  0.90760000  1.0 0.0381973737
C  C176  1  0.80380000  0.18210000  0.78340000  1.0 -0.0110532472
C  C177  1  0.83070000  0.21220000  0.86000000  1.0 0.0189108446
C  C178  1  0.85180000  0.23160000  0.78570000  1.0 0.0021814985
C  C179  1  0.86460000  0.23850000  0.84200000  1.0 0.0189108446
C  C180  1  0.89780000  0.28080000  0.81680000  1.0 0.0381973737
C  C181  1  0.58490000  0.23540000  0.17460000  1.0 -0.4515599294
C  C182  1  0.71260000  0.09020000  0.03030000  1.0 -0.0640199578
C  C183  1  0.74660000  0.12950000  0.04600000  1.0 -0.0318114247
C  C184  1  0.77290000  0.14600000  0.97830000  1.0 0.007212954
C  C185  1  0.69720000  0.07210000  0.97110000  1.0 0.007212954
C  C186  1  0.66810000  0.08320000  0.81280000  1.0 -0.017280535
C  C187  1  0.70320000  0.04330000  0.80880000  1.0 0.0598669616
C  C188  1  0.70680000  0.08620000  0.82500000  1.0 0.0698360469
C  C189  1  0.81130000  0.15600000  0.93910000  1.0 -0.0318114247
C  C190  1  0.86040000  0.19730000  0.88770000  1.0 0.0598669616
C  C191  1  0.77670000  0.19760000  0.93340000  1.0 0.0381973737
C  C192  1  0.81500000  0.23590000  0.89420000  1.0 0.0021814985
C  C193  1  0.46870000  0.45140000  0.37500000  1.0 0.6002607362
C  C194  1  0.48700000  0.47940000  0.43500000  1.0 -0.0660386785
C  C195  1  0.47580000  0.46240000  0.52150000  1.0 -0.116394271
C  C196  1  0.47440000  0.50930000  0.45890000  1.0 -0.1035884352
C  C197  1  0.52890000  0.50120000  0.45590000  1.0 -0.0843876989
C  C198  1  0.39340000  0.32250000  0.41460000  1.0 0.533573641
C  C199  1  0.39590000  0.31550000  0.50670000  1.0 -0.0318114247
C  C200  1  0.38720000  0.33320000  0.56180000  1.0 -0.1363534334
C  C201  1  0.37980000  0.31510000  0.65200000  1.0 0.0598669616
C  C202  1  0.37730000  0.27980000  0.61830000  1.0 -0.1035884352
C  C203  1  0.38070000  0.25240000  0.58490000  1.0 -0.0464712927
C  C204  1  0.39540000  0.28000000  0.50730000  1.0 0.0319397929
C  C205  1  0.37780000  0.25700000  0.71230000  1.0 -0.0110532472
C  C206  1  0.37980000  0.22660000  0.67410000  1.0 0.0319397929
C  C207  1  0.38180000  0.21830000  0.59240000  1.0 0.0381973737
C  C208  1  0.37830000  0.19620000  0.71660000  1.0 -0.0110532472
C  C209  1  0.38150000  0.16930000  0.64000000  1.0 0.0189108446
C  C210  1  0.37980000  0.14820000  0.71430000  1.0 0.0021814985
C  C211  1  0.37390000  0.13540000  0.65800000  1.0 0.0189108446
C  C212  1  0.38300000  0.10220000  0.68320000  1.0 0.0381973737
C  C213  1  0.65050000  0.41510000  0.32540000  1.0 -0.4515599294
C  C214  1  0.37760000  0.28740000  0.46970000  1.0 -0.0640199578
C  C215  1  0.38290000  0.25340000  0.45400000  1.0 -0.0388464884
C  C216  1  0.37310000  0.22710000  0.52170000  1.0 0.007212954
C  C217  1  0.37490000  0.30280000  0.52890000  1.0 0.007212954
C  C218  1  0.41510000  0.33190000  0.68720000  1.0 -0.017280535
C  C219  1  0.34010000  0.29680000  0.69120000  1.0 0.0598669616
C  C220  1  0.37940000  0.29320000  0.67500000  1.0 0.0698360469
C  C221  1  0.34470000  0.18870000  0.56090000  1.0 -0.0318114247
C  C222  1  0.33690000  0.13960000  0.61230000  1.0 0.0598669616
C  C223  1  0.42090000  0.22330000  0.56660000  1.0 0.0381973737
C  C224  1  0.42090000  0.18500000  0.60580000  1.0 0.0021814985
C  C225  1  0.98270000  0.53130000  0.37500000  1.0 0.6002607362
C  C226  1  0.99240000  0.51300000  0.43500000  1.0 -0.0640199578
C  C227  1  0.98660000  0.52420000  0.52150000  1.0 -0.116394271
C  C228  1  0.03490000  0.52560000  0.45890000  1.0 -0.1035884352
C  C229  1  0.97230000  0.47110000  0.45590000  1.0 -0.0843876989
C  C230  1  0.92910000  0.60660000  0.41460000  1.0 0.5351266877
C  C231  1  0.91960000  0.60410000  0.50670000  1.0 -0.0318114247
C  C232  1  0.94600000  0.61280000  0.56180000  1.0 -0.1345013215
C  C233  1  0.93530000  0.62020000  0.65200000  1.0 0.0598669616
C  C234  1  0.90250000  0.62270000  0.61830000  1.0 -0.1076110511
C  C235  1  0.87170000  0.61930000  0.58490000  1.0 -0.0464712927
C  C236  1  0.88460000  0.60460000  0.50730000  1.0 0.0319397929
C  C237  1  0.87920000  0.62220000  0.71230000  1.0 -0.0046399431
C  C238  1  0.84680000  0.62020000  0.67410000  1.0 0.0319397929
C  C239  1  0.83650000  0.61820000  0.59240000  1.0 0.0381973737
C  C240  1  0.81790000  0.62170000  0.71660000  1.0 -0.0110532472
C  C241  1  0.78780000  0.61850000  0.64000000  1.0 0.0189108446
C  C242  1  0.76840000  0.62020000  0.71430000  1.0 0.0021814985
C  C243  1  0.76150000  0.62610000  0.65800000  1.0 0.0189108446
C  C244  1  0.71920000  0.61700000  0.68320000  1.0 0.0381973737
C  C245  1  0.76460000  0.34950000  0.32540000  1.0 -0.4515599294
C  C246  1  0.90980000  0.62240000  0.46970000  1.0 -0.0640199578
C  C247  1  0.87050000  0.61710000  0.45400000  1.0 -0.0318114247
C  C248  1  0.85400000  0.62690000  0.52170000  1.0 0.007212954
C  C249  1  0.92790000  0.62510000  0.52890000  1.0 0.007212954
C  C250  1  0.91680000  0.58490000  0.68720000  1.0 -0.017280535
C  C251  1  0.95670000  0.65990000  0.69120000  1.0 0.0598669616
C  C252  1  0.91380000  0.62060000  0.67500000  1.0 0.0698360469
C  C253  1  0.84400000  0.65530000  0.56090000  1.0 -0.0318114247
C  C254  1  0.80270000  0.66310000  0.61230000  1.0 0.0598669616
C  C255  1  0.80240000  0.57910000  0.56660000  1.0 0.0381973737
C  C256  1  0.76410000  0.57910000  0.60580000  1.0 0.0021814985
C  C257  1  0.54860000  0.01730000  0.37500000  1.0 0.6002607362
C  C258  1  0.52060000  0.00760000  0.43500000  1.0 -0.0660386785
C  C259  1  0.53760000  0.01340000  0.52150000  1.0 -0.116394271
C  C260  1  0.49070000  0.96510000  0.45890000  1.0 -0.1035884352
C  C261  1  0.49880000  0.02770000  0.45590000  1.0 -0.0843876989
C  C262  1  0.67750000  0.07090000  0.41460000  1.0 0.533573641
C  C263  1  0.68450000  0.08040000  0.50670000  1.0 -0.0318114247
C  C264  1  0.66680000  0.05400000  0.56180000  1.0 -0.1345013215
C  C265  1  0.68490000  0.06470000  0.65200000  1.0 0.0598669616
C  C266  1  0.72020000  0.09750000  0.61830000  1.0 -0.1076110511
C  C267  1  0.74760000  0.12830000  0.58490000  1.0 -0.0464712927
C  C268  1  0.72000000  0.11540000  0.50730000  1.0 0.0319397929
C  C269  1  0.74300000  0.12080000  0.71230000  1.0 -0.0110532472
C  C270  1  0.77340000  0.15320000  0.67410000  1.0 0.0319397929
C  C271  1  0.78170000  0.16350000  0.59240000  1.0 0.0381973737
C  C272  1  0.80380000  0.18210000  0.71660000  1.0 -0.0110532472
C  C273  1  0.83070000  0.21220000  0.64000000  1.0 0.0189108446
C  C274  1  0.85180000  0.23160000  0.71430000  1.0 0.0021814985
C  C275  1  0.86460000  0.23850000  0.65800000  1.0 0.0189108446
C  C276  1  0.89780000  0.28080000  0.68320000  1.0 0.0381973737
C  C277  1  0.58490000  0.23540000  0.32540000  1.0 -0.4515599294
C  C278  1  0.71260000  0.09020000  0.46970000  1.0 -0.0640199578
C  C279  1  0.74660000  0.12950000  0.45400000  1.0 -0.0318114247
C  C280  1  0.77290000  0.14600000  0.52170000  1.0 0.007212954
C  C281  1  0.69720000  0.07210000  0.52890000  1.0 0.007212954
C  C282  1  0.66810000  0.08320000  0.68720000  1.0 -0.017280535
C  C283  1  0.70320000  0.04330000  0.69120000  1.0 0.0598669616
C  C284  1  0.70680000  0.08620000  0.67500000  1.0 0.0698360469
C  C285  1  0.81130000  0.15600000  0.56090000  1.0 -0.0318114247
C  C286  1  0.86040000  0.19730000  0.61230000  1.0 0.0598669616
C  C287  1  0.77670000  0.19760000  0.56660000  1.0 0.0381973737
C  C288  1  0.81500000  0.23590000  0.60580000  1.0 0.0021814985
C  C289  1  0.53130000  0.54860000  0.87500000  1.0 0.6002607362
C  C290  1  0.51300000  0.52060000  0.93500000  1.0 -0.0660386785
C  C291  1  0.52420000  0.53760000  0.02150000  1.0 -0.116394271
C  C292  1  0.52560000  0.49070000  0.95890000  1.0 -0.1035884352
C  C293  1  0.47110000  0.49880000  0.95590000  1.0 -0.0843876989
C  C294  1  0.60660000  0.67750000  0.91460000  1.0 0.533573641
C  C295  1  0.60410000  0.68450000  0.00670000  1.0 -0.0318114247
C  C296  1  0.61280000  0.66680000  0.06180000  1.0 -0.1363534334
C  C297  1  0.62020000  0.68490000  0.15200000  1.0 0.0598669616
C  C298  1  0.62270000  0.72020000  0.11830000  1.0 -0.1076110511
C  C299  1  0.61930000  0.74760000  0.08490000  1.0 -0.0464712927
C  C300  1  0.60460000  0.72000000  0.00730000  1.0 0.0319397929
C  C301  1  0.62220000  0.74300000  0.21230000  1.0 -0.0046399431
C  C302  1  0.62020000  0.77340000  0.17410000  1.0 0.0319397929
C  C303  1  0.61820000  0.78170000  0.09240000  1.0 0.0381973737
C  C304  1  0.62170000  0.80380000  0.21660000  1.0 -0.0110532472
C  C305  1  0.61850000  0.83070000  0.14000000  1.0 0.0189108446
C  C306  1  0.62020000  0.85180000  0.21430000  1.0 0.0021814985
C  C307  1  0.62610000  0.86460000  0.15800000  1.0 0.0189108446
C  C308  1  0.61700000  0.89780000  0.18320000  1.0 0.0381973737
C  C309  1  0.34950000  0.58490000  0.82540000  1.0 -0.4515599294
C  C310  1  0.62240000  0.71260000  0.96970000  1.0 -0.0640199578
C  C311  1  0.61710000  0.74660000  0.95400000  1.0 -0.0388464884
C  C312  1  0.62690000  0.77290000  0.02170000  1.0 0.007212954
C  C313  1  0.62510000  0.69720000  0.02890000  1.0 0.007212954
C  C314  1  0.58490000  0.66810000  0.18720000  1.0 -0.017280535
C  C315  1  0.65990000  0.70320000  0.19120000  1.0 0.0598669616
C  C316  1  0.62060000  0.70680000  0.17500000  1.0 0.0698360469
C  C317  1  0.65530000  0.81130000  0.06090000  1.0 -0.0318114247
C  C318  1  0.66310000  0.86040000  0.11230000  1.0 0.0598669616
C  C319  1  0.57910000  0.77670000  0.06660000  1.0 0.0319397929
C  C320  1  0.57910000  0.81500000  0.10580000  1.0 0.0021814985
C  C321  1  0.01730000  0.46870000  0.87500000  1.0 0.6002607362
C  C322  1  0.00760000  0.48700000  0.93500000  1.0 -0.0660386785
C  C323  1  0.01340000  0.47580000  0.02150000  1.0 -0.116394271
C  C324  1  0.96510000  0.47440000  0.95890000  1.0 -0.1035884352
C  C325  1  0.02770000  0.52890000  0.95590000  1.0 -0.0853447227
C  C326  1  0.07090000  0.39340000  0.91460000  1.0 0.533573641
C  C327  1  0.08040000  0.39590000  0.00670000  1.0 -0.0318114247
C  C328  1  0.05400000  0.38720000  0.06180000  1.0 -0.1363534334
C  C329  1  0.06470000  0.37980000  0.15200000  1.0 0.0598669616
C  C330  1  0.09750000  0.37730000  0.11830000  1.0 -0.1076110511
C  C331  1  0.12830000  0.38070000  0.08490000  1.0 -0.0464712927
C  C332  1  0.11540000  0.39540000  0.00730000  1.0 0.0319397929
C  C333  1  0.12080000  0.37780000  0.21230000  1.0 -0.0110532472
C  C334  1  0.15320000  0.37980000  0.17410000  1.0 0.0319397929
C  C335  1  0.16350000  0.38180000  0.09240000  1.0 0.0381973737
C  C336  1  0.18210000  0.37830000  0.21660000  1.0 -0.017280535
C  C337  1  0.21220000  0.38150000  0.14000000  1.0 0.0189108446
C  C338  1  0.23160000  0.37980000  0.21430000  1.0 0.0021814985
C  C339  1  0.23850000  0.37390000  0.15800000  1.0 0.0189108446
C  C340  1  0.28080000  0.38300000  0.18320000  1.0 0.0381973737
C  C341  1  0.23540000  0.65050000  0.82540000  1.0 -0.4515599294
C  C342  1  0.09020000  0.37760000  0.96970000  1.0 -0.0640199578
C  C343  1  0.12950000  0.38290000  0.95400000  1.0 -0.0388464884
C  C344  1  0.14600000  0.37310000  0.02170000  1.0 0.007212954
C  C345  1  0.07210000  0.37490000  0.02890000  1.0 0.007212954
C  C346  1  0.08320000  0.41510000  0.18720000  1.0 -0.017280535
C  C347  1  0.04330000  0.34010000  0.19120000  1.0 0.0598669616
C  C348  1  0.08620000  0.37940000  0.17500000  1.0 0.0698360469
C  C349  1  0.15600000  0.34470000  0.06090000  1.0 -0.0318114247
C  C350  1  0.19730000  0.33690000  0.11230000  1.0 0.0598669616
C  C351  1  0.19760000  0.42090000  0.06660000  1.0 0.0319397929
C  C352  1  0.23590000  0.42090000  0.10580000  1.0 0.0021814985
C  C353  1  0.45140000  0.98270000  0.87500000  1.0 0.6002607362
C  C354  1  0.47940000  0.99240000  0.93500000  1.0 -0.0660386785
C  C355  1  0.46240000  0.98660000  0.02150000  1.0 -0.116394271
C  C356  1  0.50930000  0.03490000  0.95890000  1.0 -0.1035884352
C  C357  1  0.50120000  0.97230000  0.95590000  1.0 -0.0843876989
C  C358  1  0.32250000  0.92910000  0.91460000  1.0 0.533573641
C  C359  1  0.31550000  0.91960000  0.00670000  1.0 -0.0318114247
C  C360  1  0.33320000  0.94600000  0.06180000  1.0 -0.1363534334
C  C361  1  0.31510000  0.93530000  0.15200000  1.0 0.0598669616
C  C362  1  0.27980000  0.90250000  0.11830000  1.0 -0.1076110511
C  C363  1  0.25240000  0.87170000  0.08490000  1.0 -0.0464712927
C  C364  1  0.28000000  0.88460000  0.00730000  1.0 0.0319397929
C  C365  1  0.25700000  0.87920000  0.21230000  1.0 -0.0046399431
C  C366  1  0.22660000  0.84680000  0.17410000  1.0 0.0319397929
C  C367  1  0.21830000  0.83650000  0.09240000  1.0 0.0381973737
C  C368  1  0.19620000  0.81790000  0.21660000  1.0 -0.0110532472
C  C369  1  0.16930000  0.78780000  0.14000000  1.0 0.0189108446
C  C370  1  0.14820000  0.76840000  0.21430000  1.0 0.0021814985
C  C371  1  0.13540000  0.76150000  0.15800000  1.0 0.0189108446
C  C372  1  0.10220000  0.71920000  0.18320000  1.0 0.0381973737
C  C373  1  0.41510000  0.76460000  0.82540000  1.0 -0.4515599294
C  C374  1  0.28740000  0.90980000  0.96970000  1.0 -0.0640199578
C  C375  1  0.25340000  0.87050000  0.95400000  1.0 -0.0388464884
C  C376  1  0.22710000  0.85400000  0.02170000  1.0 0.007212954
C  C377  1  0.30280000  0.92790000  0.02890000  1.0 0.007212954
C  C378  1  0.33190000  0.91680000  0.18720000  1.0 -0.017280535
C  C379  1  0.29680000  0.95670000  0.19120000  1.0 0.0598669616
C  C380  1  0.29320000  0.91380000  0.17500000  1.0 0.0698360469
C  C381  1  0.18870000  0.84400000  0.06090000  1.0 -0.0318114247
C  C382  1  0.13960000  0.80270000  0.11230000  1.0 0.0598669616
C  C383  1  0.22330000  0.80240000  0.06660000  1.0 0.0319397929
C  C384  1  0.18500000  0.76410000  0.10580000  1.0 0.0021814985
C  C385  1  0.50500000  0.64830000  0.75000000  1.0 0.6116343355
C  C386  1  0.47160000  0.66080000  0.75000000  1.0 -0.0110532472
C  C387  1  0.48030000  0.69850000  0.75000000  1.0 -0.0843876989
C  C388  1  0.45120000  0.70710000  0.75000000  1.0 -0.1541709536
C  C389  1  0.41320000  0.67790000  0.75000000  1.0 0.0480153161
C  C390  1  0.40140000  0.63780000  0.75000000  1.0 -0.0110532472
C  C391  1  0.43560000  0.62940000  0.75000000  1.0 -0.1345013215
C  C392  1  0.37210000  0.67720000  0.75000000  1.0 -0.017280535
C  C393  1  0.34370000  0.63810000  0.75000000  1.0 -0.0388464884
C  C394  1  0.36080000  0.60950000  0.75000000  1.0 0.1858415272
C  C395  1  0.14330000  0.49500000  0.75000000  1.0 0.6116343355
C  C396  1  0.18920000  0.52840000  0.75000000  1.0 -0.0110532472
C  C397  1  0.21820000  0.51970000  0.75000000  1.0 -0.0843876989
C  C398  1  0.25590000  0.54880000  0.75000000  1.0 -0.1541709536
C  C399  1  0.26470000  0.58680000  0.75000000  1.0 0.0480153161
C  C400  1  0.23640000  0.59860000  0.75000000  1.0 -0.0110532472
C  C401  1  0.19380000  0.56440000  0.75000000  1.0 -0.1345013215
C  C402  1  0.30510000  0.62790000  0.75000000  1.0 -0.017280535
C  C403  1  0.29440000  0.65630000  0.75000000  1.0 -0.0388464884
C  C404  1  0.24870000  0.63920000  0.75000000  1.0 0.1858415272
C  C405  1  0.35170000  0.85670000  0.75000000  1.0 0.6116343355
C  C406  1  0.33920000  0.81080000  0.75000000  1.0 -0.0110532472
C  C407  1  0.30150000  0.78180000  0.75000000  1.0 -0.0843876989
C  C408  1  0.29290000  0.74410000  0.75000000  1.0 -0.1541709536
C  C409  1  0.32210000  0.73530000  0.75000000  1.0 0.0480153161
C  C410  1  0.36220000  0.76360000  0.75000000  1.0 -0.0110532472
C  C411  1  0.37060000  0.80620000  0.75000000  1.0 -0.1345013215
C  C412  1  0.32280000  0.69490000  0.75000000  1.0 -0.017280535
C  C413  1  0.36190000  0.70560000  0.75000000  1.0 -0.0388464884
C  C414  1  0.39050000  0.75130000  0.75000000  1.0 0.1858415272
C  C415  1  0.49500000  0.35170000  0.25000000  1.0 0.6116343355
C  C416  1  0.52840000  0.33920000  0.25000000  1.0 -0.0110532472
C  C417  1  0.51970000  0.30150000  0.25000000  1.0 -0.0853447227
C  C418  1  0.54880000  0.29290000  0.25000000  1.0 -0.1541709536
C  C419  1  0.58680000  0.32210000  0.25000000  1.0 0.0480153161
C  C420  1  0.59860000  0.36220000  0.25000000  1.0 -0.0110532472
C  C421  1  0.56440000  0.37060000  0.25000000  1.0 -0.1345013215
C  C422  1  0.62790000  0.32280000  0.25000000  1.0 -0.017280535
C  C423  1  0.65630000  0.36190000  0.25000000  1.0 -0.0388464884
C  C424  1  0.63920000  0.39050000  0.25000000  1.0 0.1858415272
C  C425  1  0.85670000  0.50500000  0.25000000  1.0 0.6116343355
C  C426  1  0.81080000  0.47160000  0.25000000  1.0 -0.0110532472
C  C427  1  0.78180000  0.48030000  0.25000000  1.0 -0.0843876989
C  C428  1  0.74410000  0.45120000  0.25000000  1.0 -0.1541709536
C  C429  1  0.73530000  0.41320000  0.25000000  1.0 0.0480153161
C  C430  1  0.76360000  0.40140000  0.25000000  1.0 -0.0110532472
C  C431  1  0.80620000  0.43560000  0.25000000  1.0 -0.1345013215
C  C432  1  0.69490000  0.37210000  0.25000000  1.0 -0.017280535
C  C433  1  0.70560000  0.34370000  0.25000000  1.0 -0.0388464884
C  C434  1  0.75130000  0.36080000  0.25000000  1.0 0.1858415272
C  C435  1  0.64830000  0.14330000  0.25000000  1.0 0.6116343355
C  C436  1  0.66080000  0.18920000  0.25000000  1.0 -0.0110532472
C  C437  1  0.69850000  0.21820000  0.25000000  1.0 -0.0853447227
C  C438  1  0.70710000  0.25590000  0.25000000  1.0 -0.1541709536
C  C439  1  0.67790000  0.26470000  0.25000000  1.0 0.0480153161
C  C440  1  0.63780000  0.23640000  0.25000000  1.0 -0.0110532472
C  C441  1  0.62940000  0.19380000  0.25000000  1.0 -0.1345013215
C  C442  1  0.67720000  0.30510000  0.25000000  1.0 -0.017280535
C  C443  1  0.63810000  0.29440000  0.25000000  1.0 -0.0388464884
C  C444  1  0.60950000  0.24870000  0.25000000  1.0 0.1858415272
C  C445  1  0.61780000  0.91100000  0.25000000  1.0 -0.1872667356
C  C446  1  0.61450000  0.94890000  0.25000000  1.0 0.6189000623
C  C447  1  0.29320000  0.38220000  0.25000000  1.0 -0.1872667356
C  C448  1  0.33440000  0.38550000  0.25000000  1.0 0.6189000623
C  C449  1  0.08900000  0.70680000  0.25000000  1.0 -0.1872667356
C  C450  1  0.05110000  0.66560000  0.25000000  1.0 0.6189000623
C  C451  1  0.38220000  0.08900000  0.75000000  1.0 -0.1872667356
C  C452  1  0.38550000  0.05110000  0.75000000  1.0 0.6189000623
C  C453  1  0.70680000  0.61780000  0.75000000  1.0 -0.1872667356
C  C454  1  0.66560000  0.61450000  0.75000000  1.0 0.6189000623
C  C455  1  0.91100000  0.29320000  0.75000000  1.0 -0.1872667356
C  C456  1  0.94890000  0.33440000  0.75000000  1.0 0.6189000623
O  O1  1  0.51110000  0.55590000  0.66560000  1.0 -0.504495722
O  O2  1  0.56830000  0.56550000  0.62860000  1.0 -0.5267824614
O  O3  1  0.61625000  0.65085000  0.58420000  1.0 -0.4911415014
O  O4  1  0.60210000  0.69310000  0.64080000  1.0 -0.5073189123
O  O5  1  0.61405000  0.96283000  0.31060000  1.0 -0.4911415014
O  O6  1  0.04480000  0.48890000  0.66560000  1.0 -0.504495722
O  O7  1  0.99720000  0.43170000  0.62860000  1.0 -0.5267824614
O  O8  1  0.03460000  0.38375000  0.58420000  1.0 -0.4911415014
O  O9  1  0.09100000  0.39790000  0.64080000  1.0 -0.5073189123
O  O10  1  0.34878000  0.38595000  0.31060000  1.0 -0.4911415014
O  O11  1  0.44410000  0.95520000  0.66560000  1.0 -0.504495722
O  O12  1  0.43450000  0.00280000  0.62860000  1.0 -0.5267824614
O  O13  1  0.34915000  0.96540000  0.58420000  1.0 -0.4911415014
O  O14  1  0.30690000  0.90900000  0.64080000  1.0 -0.5073189123
O  O15  1  0.03717000  0.65122000  0.31060000  1.0 -0.4911415014
O  O16  1  0.48890000  0.44410000  0.16560000  1.0 -0.504495722
O  O17  1  0.43170000  0.43450000  0.12860000  1.0 -0.5267824614
O  O18  1  0.38375000  0.34915000  0.08420000  1.0 -0.4911415014
O  O19  1  0.39790000  0.30690000  0.14080000  1.0 -0.5073189123
O  O20  1  0.38595000  0.03717000  0.81060000  1.0 -0.4911415014
O  O21  1  0.95520000  0.51110000  0.16560000  1.0 -0.504495722
O  O22  1  0.00280000  0.56830000  0.12860000  1.0 -0.5267824614
O  O23  1  0.96540000  0.61625000  0.08420000  1.0 -0.4911415014
O  O24  1  0.90900000  0.60210000  0.14080000  1.0 -0.5073189123
O  O25  1  0.65122000  0.61405000  0.81060000  1.0 -0.4911415014
O  O26  1  0.55590000  0.04480000  0.16560000  1.0 -0.504495722
O  O27  1  0.56550000  0.99720000  0.12860000  1.0 -0.5267824614
O  O28  1  0.65085000  0.03460000  0.08420000  1.0 -0.4911415014
O  O29  1  0.69310000  0.09100000  0.14080000  1.0 -0.5073189123
O  O30  1  0.96283000  0.34878000  0.81060000  1.0 -0.4911415014
O  O31  1  0.48890000  0.44410000  0.33440000  1.0 -0.504495722
O  O32  1  0.43170000  0.43450000  0.37140000  1.0 -0.5267824614
O  O33  1  0.38375000  0.34915000  0.41580000  1.0 -0.4911415014
O  O34  1  0.39790000  0.30690000  0.35920000  1.0 -0.5073189123
O  O35  1  0.38595000  0.03717000  0.68940000  1.0 -0.4911415014
O  O36  1  0.95520000  0.51110000  0.33440000  1.0 -0.5073189123
O  O37  1  0.00280000  0.56830000  0.37140000  1.0 -0.5267824614
O  O38  1  0.96540000  0.61625000  0.41580000  1.0 -0.4911415014
O  O39  1  0.90900000  0.60210000  0.35920000  1.0 -0.5073189123
O  O40  1  0.65122000  0.61405000  0.68940000  1.0 -0.4911415014
O  O41  1  0.55590000  0.04480000  0.33440000  1.0 -0.504495722
O  O42  1  0.56550000  0.99720000  0.37140000  1.0 -0.5267824614
O  O43  1  0.65085000  0.03460000  0.41580000  1.0 -0.4911415014
O  O44  1  0.69310000  0.09100000  0.35920000  1.0 -0.5073189123
O  O45  1  0.96283000  0.34878000  0.68940000  1.0 -0.4911415014
O  O46  1  0.51110000  0.55590000  0.83440000  1.0 -0.504495722
O  O47  1  0.56830000  0.56550000  0.87140000  1.0 -0.5267824614
O  O48  1  0.61625000  0.65085000  0.91580000  1.0 -0.4911415014
O  O49  1  0.60210000  0.69310000  0.85920000  1.0 -0.5073189123
O  O50  1  0.61405000  0.96283000  0.18940000  1.0 -0.4911415014
O  O51  1  0.04480000  0.48890000  0.83440000  1.0 -0.504495722
O  O52  1  0.99720000  0.43170000  0.87140000  1.0 -0.5267824614
O  O53  1  0.03460000  0.38375000  0.91580000  1.0 -0.4911415014
O  O54  1  0.09100000  0.39790000  0.85920000  1.0 -0.5073189123
O  O55  1  0.34878000  0.38595000  0.18940000  1.0 -0.4911415014
O  O56  1  0.44410000  0.95520000  0.83440000  1.0 -0.504495722
O  O57  1  0.43450000  0.00280000  0.87140000  1.0 -0.5267824614
O  O58  1  0.34915000  0.96540000  0.91580000  1.0 -0.4911415014
O  O59  1  0.30690000  0.90900000  0.85920000  1.0 -0.5073189123
O  O60  1  0.03717000  0.65122000  0.18940000  1.0 -0.4911415014
O  O61  1  0.58158000  0.62734000  0.75000000  1.0 -1.0495095237
O  O62  1  0.53790000  0.67516000  0.75000000  1.0 -0.4664234701
O  O63  1  0.49291000  0.61111000  0.75000000  1.0 -0.5381246789
O  O64  1  0.04576000  0.41842000  0.75000000  1.0 -1.0495095237
O  O65  1  0.13726000  0.46210000  0.75000000  1.0 -0.4664234701
O  O66  1  0.11820000  0.50709000  0.75000000  1.0 -0.5381246789
O  O67  1  0.37266000  0.95424000  0.75000000  1.0 -1.0495095237
O  O68  1  0.32484000  0.86274000  0.75000000  1.0 -0.4664234701
O  O69  1  0.38889000  0.88180000  0.75000000  1.0 -0.5381246789
O  O70  1  0.41842000  0.37266000  0.25000000  1.0 -1.0495095237
O  O71  1  0.46210000  0.32484000  0.25000000  1.0 -0.4664234701
O  O72  1  0.50709000  0.38889000  0.25000000  1.0 -0.5381246789
O  O73  1  0.95424000  0.58158000  0.25000000  1.0 -1.0495095237
O  O74  1  0.86274000  0.53790000  0.25000000  1.0 -0.4664234701
O  O75  1  0.88180000  0.49291000  0.25000000  1.0 -0.5381246789
O  O76  1  0.62734000  0.04576000  0.25000000  1.0 -1.0495095237
O  O77  1  0.67516000  0.13726000  0.25000000  1.0 -0.4664234701
O  O78  1  0.61111000  0.11820000  0.25000000  1.0 -0.5381246789
