# DDEC6 charges by PACMAN v1.1 (https://github.com/mtap-research/PACMAN-charge/)
data_QABXUQ_ASR_pacman
_symmetry_space_group_name_H-M   'P 1'
_cell_length_a   16.71290000
_cell_length_b   21.23010000
_cell_length_c   26.40100000
_cell_angle_alpha   90.00000000
_cell_angle_beta   105.36600000
_cell_angle_gamma   90.00000000
_symmetry_Int_Tables_number   1
_chemical_formula_structural   Cd3H41C65N15O17
_chemical_formula_sum   'Cd12 H164 C260 N60 O68'
_cell_volume   9032.64929760
_cell_formula_units_Z   4
loop_
 _symmetry_equiv_pos_site_id
 _symmetry_equiv_pos_as_xyz
  1  'x, y, z'
loop_
 _atom_site_type_symbol
 _atom_site_label
 _atom_site_symmetry_multiplicity
 _atom_site_fract_x
 _atom_site_fract_y
 _atom_site_fract_z
 _atom_site_occupancy
 _atom_site_charge
Cd  Cd1  1  0.21904000  0.43748000  0.05971000  1.0 0.7867959922
Cd  Cd2  1  0.69272000  0.74069000  0.27108000  1.0 0.8339898472
Cd  Cd3  1  0.28982000  0.49156000  0.57860000  1.0 0.8403108601
Cd  Cd4  1  0.21904000  0.06252000  0.55971000  1.0 0.7836207633
Cd  Cd5  1  0.69272000  0.75931000  0.77108000  1.0 0.8339898472
Cd  Cd6  1  0.28982000  0.00844000  0.07860000  1.0 0.8403108601
Cd  Cd7  1  0.78096000  0.93748000  0.44029000  1.0 0.7867959922
Cd  Cd8  1  0.30728000  0.24069000  0.22892000  1.0 0.8339898472
Cd  Cd9  1  0.71018000  0.99156000  0.92140000  1.0 0.8403108601
Cd  Cd10  1  0.78096000  0.56252000  0.94029000  1.0 0.7836207633
Cd  Cd11  1  0.30728000  0.25931000  0.72892000  1.0 0.8339898472
Cd  Cd12  1  0.71018000  0.50844000  0.42140000  1.0 0.8403108601
H  H1  1  0.47671000  0.41369000  0.16776000  1.0 0.1297535131
H  H2  1  0.66684000  0.52129000  0.24834000  1.0 0.1380310771
H  H3  1  0.44696000  0.60083000  0.17611000  1.0 0.1297535131
H  H4  1  0.65319000  0.28366000  0.19873000  1.0 0.1297535131
H  H5  1  0.84325000  0.17710000  0.28101000  1.0 0.1203112526
H  H6  1  0.85322000  0.36636000  0.29544000  1.0 0.1081554608
H  H7  1  0.55059000  0.09646000  0.17958000  1.0 0.1297535131
H  H8  1  0.53290000  0.90829000  0.19819000  1.0 0.1203112526
H  H9  1  0.74734000  0.99855000  0.26849000  1.0 0.1297535131
H  H10  1  0.03123000  0.20348000  0.42258000  1.0 0.1563205046
H  H11  1  0.20598000  0.28498000  0.53959000  1.0 0.1203112526
H  H12  1  0.05752000  0.39302000  0.42576000  1.0 0.1297535131
H  H13  1  0.64930000  0.84453000  0.35086000  1.0 0.1297535131
H  H14  1  0.61395000  0.82984000  0.43551000  1.0 0.1380310771
H  H15  1  0.62246000  0.66051000  0.36950000  1.0 0.1297535131
H  H16  1  0.50234000  0.64675000  0.42335000  1.0 0.1563205046
H  H17  1  0.56015000  0.63182000  0.58197000  1.0 0.1380310771
H  H18  1  0.68324000  0.75631000  0.51388000  1.0 0.1380310771
H  H19  1  0.44703000  0.54041000  0.42597000  1.0 0.1380310771
H  H20  1  0.34291000  0.47599000  0.45190000  1.0 0.1297535131
H  H21  1  0.41924000  0.60012000  0.56429000  1.0 0.1203112526
H  H22  1  0.79638000  0.73195000  0.59497000  1.0 0.1203112526
H  H23  1  0.59921000  0.71630000  0.65290000  1.0 0.1203112526
H  H24  1  0.83684000  0.76580000  0.68832000  1.0 0.1297535131
H  H25  1  0.13997000  0.90977000  0.00492000  1.0 0.1203112526
H  H26  1  0.29067000  0.87103000  0.14344000  1.0 0.1297535131
H  H27  1  0.22050000  0.77240000  0.10962000  1.0 0.1380310771
H  H28  1  0.03471000  0.84654000  0.96168000  1.0 0.1380310771
H  H29  1  0.97937000  0.66646000  0.91569000  1.0 0.1380310771
H  H30  1  0.85277000  0.70773000  0.87190000  1.0 0.1203112526
H  H31  1  0.85109000  0.86570000  0.79374000  1.0 0.1297535131
H  H32  1  0.97810000  0.86664000  0.86733000  1.0 0.1203112526
H  H33  1  0.18283000  0.59750000  0.05341000  1.0 0.1380310771
H  H34  1  0.16887000  0.70390000  0.04447000  1.0 0.1380310771
H  H35  1  0.96684000  0.57189000  0.95956000  1.0 0.0696649027
H  H36  1  0.02650000  0.46843000  0.99495000  1.0 0.0987227752
H  H37  1  0.74228000  0.11325000  0.26869000  1.0 0.2929414173
H  H38  1  0.60099000  0.36814000  0.22170000  1.0 0.2813988164
H  H39  1  0.94228000  0.34168000  0.36517000  1.0 0.2813988164
H  H40  1  0.06815000  0.58061000  0.90313000  1.0 0.1203112526
H  H41  1  0.13697000  0.48101000  0.93953000  1.0 0.1297535131
H  H42  1  0.47671000  0.08631000  0.66776000  1.0 0.1297535131
H  H43  1  0.66684000  0.97871000  0.74834000  1.0 0.1380310771
H  H44  1  0.44696000  0.89917000  0.67611000  1.0 0.1297535131
H  H45  1  0.65319000  0.21634000  0.69873000  1.0 0.1297535131
H  H46  1  0.84325000  0.32290000  0.78101000  1.0 0.1203112526
H  H47  1  0.85322000  0.13364000  0.79544000  1.0 0.1081554608
H  H48  1  0.55059000  0.40354000  0.67958000  1.0 0.1297535131
H  H49  1  0.53290000  0.59171000  0.69819000  1.0 0.1203112526
H  H50  1  0.74734000  0.50145000  0.76849000  1.0 0.1297535131
H  H51  1  0.03123000  0.29652000  0.92258000  1.0 0.1563205046
H  H52  1  0.20598000  0.21502000  0.03959000  1.0 0.1203112526
H  H53  1  0.05752000  0.10698000  0.92576000  1.0 0.1297535131
H  H54  1  0.64930000  0.65547000  0.85086000  1.0 0.1297535131
H  H55  1  0.61395000  0.67016000  0.93551000  1.0 0.1380310771
H  H56  1  0.62246000  0.83949000  0.86950000  1.0 0.1297535131
H  H57  1  0.50234000  0.85325000  0.92335000  1.0 0.1563205046
H  H58  1  0.56015000  0.86818000  0.08197000  1.0 0.1380310771
H  H59  1  0.68324000  0.74369000  0.01388000  1.0 0.1380310771
H  H60  1  0.44703000  0.95959000  0.92597000  1.0 0.1380310771
H  H61  1  0.34291000  0.02401000  0.95190000  1.0 0.1297535131
H  H62  1  0.41924000  0.89988000  0.06429000  1.0 0.1203112526
H  H63  1  0.79638000  0.76805000  0.09497000  1.0 0.1203112526
H  H64  1  0.59921000  0.78370000  0.15290000  1.0 0.1203112526
H  H65  1  0.83684000  0.73420000  0.18832000  1.0 0.1297535131
H  H66  1  0.13997000  0.59023000  0.50492000  1.0 0.1203112526
H  H67  1  0.29067000  0.62897000  0.64344000  1.0 0.1297535131
H  H68  1  0.22050000  0.72760000  0.60962000  1.0 0.1380310771
H  H69  1  0.03471000  0.65346000  0.46168000  1.0 0.1380310771
H  H70  1  0.97937000  0.83354000  0.41569000  1.0 0.1380310771
H  H71  1  0.85277000  0.79227000  0.37190000  1.0 0.1203112526
H  H72  1  0.85109000  0.63430000  0.29374000  1.0 0.1297535131
H  H73  1  0.97810000  0.63336000  0.36733000  1.0 0.1203112526
H  H74  1  0.18283000  0.90250000  0.55341000  1.0 0.1380310771
H  H75  1  0.16887000  0.79610000  0.54447000  1.0 0.1380310771
H  H76  1  0.96684000  0.92811000  0.45956000  1.0 0.0696649027
H  H77  1  0.02650000  0.03157000  0.49495000  1.0 0.0987227752
H  H78  1  0.74228000  0.38675000  0.76869000  1.0 0.2929414173
H  H79  1  0.60099000  0.13186000  0.72170000  1.0 0.2813988164
H  H80  1  0.94228000  0.15832000  0.86517000  1.0 0.2813988164
H  H81  1  0.06815000  0.91939000  0.40313000  1.0 0.1203112526
H  H82  1  0.13697000  0.01899000  0.43953000  1.0 0.1297535131
H  H83  1  0.52329000  0.91369000  0.33224000  1.0 0.1297535131
H  H84  1  0.33316000  0.02129000  0.25166000  1.0 0.1380310771
H  H85  1  0.55304000  0.10083000  0.32389000  1.0 0.1297535131
H  H86  1  0.34681000  0.78366000  0.30127000  1.0 0.1297535131
H  H87  1  0.15675000  0.67710000  0.21899000  1.0 0.1203112526
H  H88  1  0.14678000  0.86636000  0.20456000  1.0 0.1081554608
H  H89  1  0.44941000  0.59646000  0.32042000  1.0 0.1297535131
H  H90  1  0.46710000  0.40829000  0.30181000  1.0 0.1203112526
H  H91  1  0.25266000  0.49855000  0.23151000  1.0 0.1297535131
H  H92  1  0.96877000  0.70348000  0.07742000  1.0 0.1563205046
H  H93  1  0.79402000  0.78498000  0.96041000  1.0 0.1203112526
H  H94  1  0.94248000  0.89302000  0.07424000  1.0 0.1297535131
H  H95  1  0.35070000  0.34453000  0.14914000  1.0 0.1297535131
H  H96  1  0.38605000  0.32984000  0.06449000  1.0 0.1380310771
H  H97  1  0.37754000  0.16051000  0.13050000  1.0 0.1297535131
H  H98  1  0.49766000  0.14675000  0.07665000  1.0 0.1563205046
H  H99  1  0.43985000  0.13182000  0.91803000  1.0 0.1380310771
H  H100  1  0.31676000  0.25631000  0.98612000  1.0 0.1380310771
H  H101  1  0.55297000  0.04041000  0.07403000  1.0 0.1380310771
H  H102  1  0.65709000  0.97599000  0.04810000  1.0 0.1297535131
H  H103  1  0.58076000  0.10012000  0.93571000  1.0 0.1203112526
H  H104  1  0.20362000  0.23195000  0.90503000  1.0 0.1203112526
H  H105  1  0.40079000  0.21630000  0.84710000  1.0 0.1203112526
H  H106  1  0.16316000  0.26580000  0.81168000  1.0 0.1297535131
H  H107  1  0.86003000  0.40977000  0.49508000  1.0 0.1203112526
H  H108  1  0.70933000  0.37103000  0.35656000  1.0 0.1297535131
H  H109  1  0.77950000  0.27240000  0.39038000  1.0 0.1380310771
H  H110  1  0.96529000  0.34654000  0.53832000  1.0 0.1380310771
H  H111  1  0.02063000  0.16646000  0.58431000  1.0 0.1380310771
H  H112  1  0.14723000  0.20773000  0.62810000  1.0 0.1203112526
H  H113  1  0.14891000  0.36570000  0.70626000  1.0 0.1297535131
H  H114  1  0.02190000  0.36664000  0.63267000  1.0 0.1203112526
H  H115  1  0.81717000  0.09750000  0.44659000  1.0 0.1380310771
H  H116  1  0.83113000  0.20390000  0.45553000  1.0 0.1380310771
H  H117  1  0.03316000  0.07189000  0.54044000  1.0 0.0696649027
H  H118  1  0.97350000  0.96843000  0.50505000  1.0 0.0987227752
H  H119  1  0.25772000  0.61325000  0.23131000  1.0 0.2929414173
H  H120  1  0.39901000  0.86814000  0.27830000  1.0 0.2813988164
H  H121  1  0.05772000  0.84168000  0.13483000  1.0 0.2749948089
H  H122  1  0.93185000  0.08061000  0.59687000  1.0 0.1203112526
H  H123  1  0.86303000  0.98101000  0.56047000  1.0 0.1297535131
H  H124  1  0.52329000  0.58631000  0.83224000  1.0 0.1297535131
H  H125  1  0.33316000  0.47871000  0.75166000  1.0 0.1380310771
H  H126  1  0.55304000  0.39917000  0.82389000  1.0 0.1297535131
H  H127  1  0.34681000  0.71634000  0.80127000  1.0 0.1297535131
H  H128  1  0.15675000  0.82290000  0.71899000  1.0 0.1203112526
H  H129  1  0.14678000  0.63364000  0.70456000  1.0 0.1081554608
H  H130  1  0.44941000  0.90354000  0.82042000  1.0 0.1297535131
H  H131  1  0.46710000  0.09171000  0.80181000  1.0 0.1203112526
H  H132  1  0.25266000  0.00145000  0.73151000  1.0 0.1297535131
H  H133  1  0.96877000  0.79652000  0.57742000  1.0 0.1563205046
H  H134  1  0.79402000  0.71502000  0.46041000  1.0 0.1203112526
H  H135  1  0.94248000  0.60698000  0.57424000  1.0 0.1297535131
H  H136  1  0.35070000  0.15547000  0.64914000  1.0 0.1297535131
H  H137  1  0.38605000  0.17016000  0.56449000  1.0 0.1380310771
H  H138  1  0.37754000  0.33949000  0.63050000  1.0 0.1297535131
H  H139  1  0.49766000  0.35325000  0.57665000  1.0 0.1563205046
H  H140  1  0.43985000  0.36818000  0.41803000  1.0 0.1380310771
H  H141  1  0.31676000  0.24369000  0.48612000  1.0 0.1380310771
H  H142  1  0.55297000  0.45959000  0.57403000  1.0 0.1380310771
H  H143  1  0.65709000  0.52401000  0.54810000  1.0 0.1297535131
H  H144  1  0.58076000  0.39988000  0.43571000  1.0 0.1203112526
H  H145  1  0.20362000  0.26805000  0.40503000  1.0 0.1203112526
H  H146  1  0.40079000  0.28370000  0.34710000  1.0 0.1203112526
H  H147  1  0.16316000  0.23420000  0.31168000  1.0 0.1297535131
H  H148  1  0.86003000  0.09023000  0.99508000  1.0 0.1203112526
H  H149  1  0.70933000  0.12897000  0.85656000  1.0 0.1297535131
H  H150  1  0.77950000  0.22760000  0.89038000  1.0 0.1380310771
H  H151  1  0.96529000  0.15346000  0.03832000  1.0 0.1380310771
H  H152  1  0.02063000  0.33354000  0.08431000  1.0 0.1380310771
H  H153  1  0.14723000  0.29227000  0.12810000  1.0 0.1203112526
H  H154  1  0.14891000  0.13430000  0.20626000  1.0 0.1297535131
H  H155  1  0.02190000  0.13336000  0.13267000  1.0 0.1297535131
H  H156  1  0.81717000  0.40250000  0.94659000  1.0 0.1380310771
H  H157  1  0.83113000  0.29610000  0.95553000  1.0 0.1380310771
H  H158  1  0.03316000  0.42811000  0.04044000  1.0 0.0696649027
H  H159  1  0.97350000  0.53157000  0.00505000  1.0 0.0987227752
H  H160  1  0.25772000  0.88675000  0.73131000  1.0 0.2929414173
H  H161  1  0.39901000  0.63186000  0.77830000  1.0 0.2813988164
H  H162  1  0.05772000  0.65832000  0.63483000  1.0 0.2749948089
H  H163  1  0.93185000  0.41939000  0.09687000  1.0 0.1203112526
H  H164  1  0.86303000  0.51899000  0.06047000  1.0 0.1297535131
C  C1  1  0.36150000  0.49900000  0.13230000  1.0 0.5512700786
C  C2  1  0.44980000  0.50600000  0.16620000  1.0 0.0019667191
C  C3  1  0.49900000  0.45400000  0.17920000  1.0 -0.1826981141
C  C4  1  0.58080000  0.45870000  0.20870000  1.0 0.2031042312
C  C5  1  0.61150000  0.51740000  0.22700000  1.0 -0.1933984703
C  C6  1  0.56230000  0.57030000  0.21440000  1.0 0.0109421237
C  C7  1  0.48120000  0.56450000  0.18430000  1.0 -0.1108860088
C  C8  1  0.60050000  0.63290000  0.23410000  1.0 0.5512700786
C  C9  1  0.70990000  0.39860000  0.23280000  1.0 0.3892383014
C  C10  1  0.74600000  0.33480000  0.24560000  1.0 -0.0570618616
C  C11  1  0.70590000  0.28040000  0.22350000  1.0 -0.1300547937
C  C12  1  0.74030000  0.22210000  0.23630000  1.0 -0.0097010134
C  C13  1  0.81830000  0.21720000  0.27200000  1.0 -0.1383279925
C  C14  1  0.85930000  0.27180000  0.29450000  1.0 0.0109421237
C  C15  1  0.82410000  0.32940000  0.28080000  1.0 -0.1570151898
C  C16  1  0.69170000  0.16500000  0.21070000  1.0 0.467023853
C  C17  1  0.65550000  0.05610000  0.22660000  1.0 0.2305377309
C  C18  1  0.57430000  0.05780000  0.19440000  1.0 -0.1933984703
C  C19  1  0.52880000  0.00230000  0.18430000  1.0 -0.0215754097
C  C20  1  0.56430000  0.94610000  0.20540000  1.0 -0.1465058218
C  C21  1  0.64480000  0.94400000  0.23690000  1.0 0.0019667191
C  C22  1  0.69160000  0.99950000  0.24740000  1.0 -0.2037939395
C  C23  1  0.44230000  0.00450000  0.14940000  1.0 0.5402754332
C  C24  1  0.68160000  0.88200000  0.25980000  1.0 0.5402754332
C  C25  1  0.94450000  0.26260000  0.33210000  1.0 0.467023853
C  C26  1  0.03540000  0.29900000  0.41590000  1.0 0.2201629092
C  C27  1  0.05900000  0.24040000  0.43850000  1.0 -0.1826981141
C  C28  1  0.12210000  0.23570000  0.48360000  1.0 -0.0215754097
C  C29  1  0.16260000  0.28880000  0.50810000  1.0 -0.1679300184
C  C30  1  0.13890000  0.34790000  0.48620000  1.0 0.0019667191
C  C31  1  0.07460000  0.35270000  0.44030000  1.0 -0.219322678
C  C32  1  0.14580000  0.17100000  0.50600000  1.0 0.5068452542
C  C33  1  0.18300000  0.40560000  0.51210000  1.0 0.5402754332
C  C34  1  0.63860000  0.80540000  0.36520000  1.0 -0.0290730883
C  C35  1  0.61930000  0.79770000  0.41160000  1.0 -0.1108860088
C  C36  1  0.62380000  0.70480000  0.37480000  1.0 0.1297535131
C  C37  1  0.59510000  0.70450000  0.46210000  1.0 0.2201629092
C  C38  1  0.53450000  0.65950000  0.45710000  1.0 -0.2378067191
C  C39  1  0.56850000  0.65110000  0.55130000  1.0 -0.2795021335
C  C40  1  0.62850000  0.69760000  0.55580000  1.0 0.2098842372
C  C41  1  0.64220000  0.72460000  0.51110000  1.0 -0.2519162076
C  C42  1  0.42950000  0.54450000  0.45720000  1.0 -0.0984273863
C  C43  1  0.37230000  0.51000000  0.47180000  1.0 -0.0290730883
C  C44  1  0.41330000  0.57660000  0.53290000  1.0 0.0878952925
C  C45  1  0.76120000  0.73340000  0.61790000  1.0 -0.1108860088
C  C46  1  0.65350000  0.72510000  0.64990000  1.0 0.1203112526
C  C47  1  0.78340000  0.75180000  0.66920000  1.0 -0.0215754097
C  C48  1  0.52110000  0.63300000  0.50230000  1.0 0.2098842372
C  C49  1  0.16930000  0.88780000  0.03560000  1.0 0.0987227752
C  C50  1  0.25070000  0.86630000  0.11060000  1.0 -0.0290730883
C  C51  1  0.21260000  0.81210000  0.09240000  1.0 -0.1108860088
C  C52  1  0.04550000  0.80270000  0.96670000  1.0 -0.2707409079
C  C53  1  0.10880000  0.78120000  0.00860000  1.0 0.2031042312
C  C54  1  0.07530000  0.67540000  0.98190000  1.0 0.2031042312
C  C55  1  0.01230000  0.69570000  0.93950000  1.0 -0.2598019893
C  C56  1  0.99900000  0.75950000  0.93300000  1.0 0.2098842372
C  C57  1  0.86730000  0.74830000  0.86210000  1.0 0.1203112526
C  C58  1  0.86720000  0.83370000  0.81960000  1.0 -0.0215754097
C  C59  1  0.93670000  0.83480000  0.85990000  1.0 -0.1205251406
C  C60  1  0.14460000  0.57760000  0.02480000  1.0 -0.0021432093
C  C61  1  0.12470000  0.71820000  0.01620000  1.0 -0.2519162076
C  C62  1  0.02320000  0.56390000  0.97730000  1.0 -0.1300547937
C  C63  1  0.05530000  0.50720000  0.99620000  1.0 -0.0804925741
C  C64  1  0.08910000  0.56950000  0.93910000  1.0 -0.0943844768
C  C65  1  0.12490000  0.51560000  0.95910000  1.0 -0.0804925741
C  C66  1  0.36150000  0.00100000  0.63230000  1.0 0.5512700786
C  C67  1  0.44980000  0.99400000  0.66620000  1.0 0.0019667191
C  C68  1  0.49900000  0.04600000  0.67920000  1.0 -0.1826981141
C  C69  1  0.58080000  0.04130000  0.70870000  1.0 0.2031042312
C  C70  1  0.61150000  0.98260000  0.72700000  1.0 -0.1933984703
C  C71  1  0.56230000  0.92970000  0.71440000  1.0 0.0109421237
C  C72  1  0.48120000  0.93550000  0.68430000  1.0 -0.1108860088
C  C73  1  0.60050000  0.86710000  0.73410000  1.0 0.5512700786
C  C74  1  0.70990000  0.10140000  0.73280000  1.0 0.3892383014
C  C75  1  0.74600000  0.16520000  0.74560000  1.0 -0.0570618616
C  C76  1  0.70590000  0.21960000  0.72350000  1.0 -0.1300547937
C  C77  1  0.74030000  0.27790000  0.73630000  1.0 -0.0097010134
C  C78  1  0.81830000  0.28280000  0.77200000  1.0 -0.1383279925
C  C79  1  0.85930000  0.22820000  0.79450000  1.0 0.0109421237
C  C80  1  0.82410000  0.17060000  0.78080000  1.0 -0.1570151898
C  C81  1  0.69170000  0.33500000  0.71070000  1.0 0.467023853
C  C82  1  0.65550000  0.44390000  0.72660000  1.0 0.2305377309
C  C83  1  0.57430000  0.44220000  0.69440000  1.0 -0.1933984703
C  C84  1  0.52880000  0.49770000  0.68430000  1.0 -0.0215754097
C  C85  1  0.56430000  0.55390000  0.70540000  1.0 -0.1465058218
C  C86  1  0.64480000  0.55600000  0.73690000  1.0 0.0019667191
C  C87  1  0.69160000  0.50050000  0.74740000  1.0 -0.2037939395
C  C88  1  0.44230000  0.49550000  0.64940000  1.0 0.5402754332
C  C89  1  0.68160000  0.61800000  0.75980000  1.0 0.5402754332
C  C90  1  0.94450000  0.23740000  0.83210000  1.0 0.467023853
C  C91  1  0.03540000  0.20100000  0.91590000  1.0 0.2201629092
C  C92  1  0.05900000  0.25960000  0.93850000  1.0 -0.1826981141
C  C93  1  0.12210000  0.26430000  0.98360000  1.0 -0.0215754097
C  C94  1  0.16260000  0.21120000  0.00810000  1.0 -0.1679300184
C  C95  1  0.13890000  0.15210000  0.98620000  1.0 0.0019667191
C  C96  1  0.07460000  0.14730000  0.94030000  1.0 -0.219322678
C  C97  1  0.14580000  0.32900000  0.00600000  1.0 0.5068452542
C  C98  1  0.18300000  0.09440000  0.01210000  1.0 0.5402754332
C  C99  1  0.63860000  0.69460000  0.86520000  1.0 -0.0290730883
C  C100  1  0.61930000  0.70230000  0.91160000  1.0 -0.1108860088
C  C101  1  0.62380000  0.79520000  0.87480000  1.0 0.1297535131
C  C102  1  0.59510000  0.79550000  0.96210000  1.0 0.2201629092
C  C103  1  0.53450000  0.84050000  0.95710000  1.0 -0.2378067191
C  C104  1  0.56850000  0.84890000  0.05130000  1.0 -0.2795021335
C  C105  1  0.62850000  0.80240000  0.05580000  1.0 0.2098842372
C  C106  1  0.64220000  0.77540000  0.01110000  1.0 -0.2519162076
C  C107  1  0.42950000  0.95550000  0.95720000  1.0 -0.0984273863
C  C108  1  0.37230000  0.99000000  0.97180000  1.0 -0.0290730883
C  C109  1  0.41330000  0.92340000  0.03290000  1.0 0.0878952925
C  C110  1  0.76120000  0.76660000  0.11790000  1.0 -0.1108860088
C  C111  1  0.65350000  0.77490000  0.14990000  1.0 0.1203112526
C  C112  1  0.78340000  0.74820000  0.16920000  1.0 -0.0215754097
C  C113  1  0.52110000  0.86700000  0.00230000  1.0 0.2098842372
C  C114  1  0.16930000  0.61220000  0.53560000  1.0 0.0987227752
C  C115  1  0.25070000  0.63370000  0.61060000  1.0 -0.0290730883
C  C116  1  0.21260000  0.68790000  0.59240000  1.0 -0.1108860088
C  C117  1  0.04550000  0.69730000  0.46670000  1.0 -0.2707409079
C  C118  1  0.10880000  0.71880000  0.50860000  1.0 0.2031042312
C  C119  1  0.07530000  0.82460000  0.48190000  1.0 0.2031042312
C  C120  1  0.01230000  0.80430000  0.43950000  1.0 -0.2598019893
C  C121  1  0.99900000  0.74050000  0.43300000  1.0 0.2098842372
C  C122  1  0.86730000  0.75170000  0.36210000  1.0 0.1203112526
C  C123  1  0.86720000  0.66630000  0.31960000  1.0 -0.0215754097
C  C124  1  0.93670000  0.66520000  0.35990000  1.0 -0.1205251406
C  C125  1  0.14460000  0.92240000  0.52480000  1.0 -0.0021432093
C  C126  1  0.12470000  0.78180000  0.51620000  1.0 -0.2519162076
C  C127  1  0.02320000  0.93610000  0.47730000  1.0 -0.1300547937
C  C128  1  0.05530000  0.99280000  0.49620000  1.0 -0.0804925741
C  C129  1  0.08910000  0.93050000  0.43910000  1.0 -0.0943844768
C  C130  1  0.12490000  0.98440000  0.45910000  1.0 -0.0804925741
C  C131  1  0.63850000  0.99900000  0.36770000  1.0 0.5512700786
C  C132  1  0.55020000  0.00600000  0.33380000  1.0 0.0019667191
C  C133  1  0.50100000  0.95400000  0.32080000  1.0 -0.1826981141
C  C134  1  0.41920000  0.95870000  0.29130000  1.0 0.2031042312
C  C135  1  0.38850000  0.01740000  0.27300000  1.0 -0.1933984703
C  C136  1  0.43770000  0.07030000  0.28560000  1.0 0.0109421237
C  C137  1  0.51880000  0.06450000  0.31570000  1.0 -0.1108860088
C  C138  1  0.39950000  0.13290000  0.26590000  1.0 0.5512700786
C  C139  1  0.29010000  0.89860000  0.26720000  1.0 0.3892383014
C  C140  1  0.25400000  0.83480000  0.25440000  1.0 -0.0570618616
C  C141  1  0.29410000  0.78040000  0.27650000  1.0 -0.1383279925
C  C142  1  0.25970000  0.72210000  0.26370000  1.0 -0.0097010134
C  C143  1  0.18170000  0.71720000  0.22800000  1.0 -0.1383279925
C  C144  1  0.14070000  0.77180000  0.20550000  1.0 0.0109421237
C  C145  1  0.17590000  0.82940000  0.21920000  1.0 -0.1570151898
C  C146  1  0.30830000  0.66500000  0.28930000  1.0 0.467023853
C  C147  1  0.34450000  0.55610000  0.27340000  1.0 0.2305377309
C  C148  1  0.42570000  0.55780000  0.30560000  1.0 -0.1933984703
C  C149  1  0.47120000  0.50230000  0.31570000  1.0 -0.0215754097
C  C150  1  0.43570000  0.44610000  0.29460000  1.0 -0.1465058218
C  C151  1  0.35520000  0.44400000  0.26310000  1.0 0.0019667191
C  C152  1  0.30840000  0.49950000  0.25260000  1.0 -0.2037939395
C  C153  1  0.55770000  0.50450000  0.35060000  1.0 0.5402754332
C  C154  1  0.31840000  0.38200000  0.24020000  1.0 0.5402754332
C  C155  1  0.05550000  0.76260000  0.16790000  1.0 0.467023853
C  C156  1  0.96460000  0.79900000  0.08410000  1.0 0.2201629092
C  C157  1  0.94100000  0.74040000  0.06150000  1.0 -0.1826981141
C  C158  1  0.87790000  0.73570000  0.01640000  1.0 -0.0215754097
C  C159  1  0.83740000  0.78880000  0.99190000  1.0 -0.1679300184
C  C160  1  0.86110000  0.84790000  0.01380000  1.0 0.0019667191
C  C161  1  0.92540000  0.85270000  0.05970000  1.0 -0.219322678
C  C162  1  0.85420000  0.67100000  0.99400000  1.0 0.5068452542
C  C163  1  0.81700000  0.90560000  0.98790000  1.0 0.5402754332
C  C164  1  0.36140000  0.30540000  0.13480000  1.0 -0.0290730883
C  C165  1  0.38070000  0.29770000  0.08840000  1.0 -0.1108860088
C  C166  1  0.37620000  0.20480000  0.12520000  1.0 0.1297535131
C  C167  1  0.40490000  0.20450000  0.03790000  1.0 0.2201629092
C  C168  1  0.46550000  0.15950000  0.04290000  1.0 -0.2378067191
C  C169  1  0.43150000  0.15110000  0.94870000  1.0 -0.2795021335
C  C170  1  0.37150000  0.19760000  0.94420000  1.0 0.2098842372
C  C171  1  0.35780000  0.22460000  0.98890000  1.0 -0.2519162076
C  C172  1  0.57050000  0.04450000  0.04280000  1.0 -0.0984273863
C  C173  1  0.62770000  0.01000000  0.02820000  1.0 -0.0290730883
C  C174  1  0.58670000  0.07660000  0.96710000  1.0 0.0878952925
C  C175  1  0.23880000  0.23340000  0.88210000  1.0 -0.1108860088
C  C176  1  0.34650000  0.22510000  0.85010000  1.0 0.1203112526
C  C177  1  0.21660000  0.25180000  0.83080000  1.0 -0.0215754097
C  C178  1  0.47890000  0.13300000  0.99770000  1.0 0.2098842372
C  C179  1  0.83070000  0.38780000  0.46440000  1.0 0.0987227752
C  C180  1  0.74930000  0.36630000  0.38940000  1.0 -0.0290730883
C  C181  1  0.78740000  0.31210000  0.40760000  1.0 -0.1108860088
C  C182  1  0.95450000  0.30270000  0.53330000  1.0 -0.2598019893
C  C183  1  0.89120000  0.28120000  0.49140000  1.0 0.2031042312
C  C184  1  0.92470000  0.17540000  0.51810000  1.0 0.2031042312
C  C185  1  0.98770000  0.19570000  0.56050000  1.0 -0.2598019893
C  C186  1  0.00100000  0.25950000  0.56700000  1.0 0.2098842372
C  C187  1  0.13270000  0.24830000  0.63790000  1.0 0.1203112526
C  C188  1  0.13280000  0.33370000  0.68040000  1.0 -0.0215754097
C  C189  1  0.06330000  0.33480000  0.64010000  1.0 -0.1205251406
C  C190  1  0.85540000  0.07760000  0.47520000  1.0 -0.0021432093
C  C191  1  0.87530000  0.21820000  0.48380000  1.0 -0.2519162076
C  C192  1  0.97680000  0.06390000  0.52270000  1.0 -0.1300547937
C  C193  1  0.94470000  0.00720000  0.50380000  1.0 -0.0804925741
C  C194  1  0.91090000  0.06950000  0.56090000  1.0 -0.0943844768
C  C195  1  0.87510000  0.01560000  0.54090000  1.0 -0.0804925741
C  C196  1  0.63850000  0.50100000  0.86770000  1.0 0.5512700786
C  C197  1  0.55020000  0.49400000  0.83380000  1.0 0.0019667191
C  C198  1  0.50100000  0.54600000  0.82080000  1.0 -0.1826981141
C  C199  1  0.41920000  0.54130000  0.79130000  1.0 0.2031042312
C  C200  1  0.38850000  0.48260000  0.77300000  1.0 -0.1933984703
C  C201  1  0.43770000  0.42970000  0.78560000  1.0 0.0109421237
C  C202  1  0.51880000  0.43550000  0.81570000  1.0 -0.1108860088
C  C203  1  0.39950000  0.36710000  0.76590000  1.0 0.5512700786
C  C204  1  0.29010000  0.60140000  0.76720000  1.0 0.3892383014
C  C205  1  0.25400000  0.66520000  0.75440000  1.0 -0.0570618616
C  C206  1  0.29410000  0.71960000  0.77650000  1.0 -0.1383279925
C  C207  1  0.25970000  0.77790000  0.76370000  1.0 -0.0097010134
C  C208  1  0.18170000  0.78280000  0.72800000  1.0 -0.1383279925
C  C209  1  0.14070000  0.72820000  0.70550000  1.0 0.0109421237
C  C210  1  0.17590000  0.67060000  0.71920000  1.0 -0.1570151898
C  C211  1  0.30830000  0.83500000  0.78930000  1.0 0.467023853
C  C212  1  0.34450000  0.94390000  0.77340000  1.0 0.2305377309
C  C213  1  0.42570000  0.94220000  0.80560000  1.0 -0.1933984703
C  C214  1  0.47120000  0.99770000  0.81570000  1.0 -0.0215754097
C  C215  1  0.43570000  0.05390000  0.79460000  1.0 -0.1465058218
C  C216  1  0.35520000  0.05600000  0.76310000  1.0 0.0019667191
C  C217  1  0.30840000  0.00050000  0.75260000  1.0 -0.2037939395
C  C218  1  0.55770000  0.99550000  0.85060000  1.0 0.5402754332
C  C219  1  0.31840000  0.11800000  0.74020000  1.0 0.5402754332
C  C220  1  0.05550000  0.73740000  0.66790000  1.0 0.467023853
C  C221  1  0.96460000  0.70100000  0.58410000  1.0 0.2201629092
C  C222  1  0.94100000  0.75960000  0.56150000  1.0 -0.1826981141
C  C223  1  0.87790000  0.76430000  0.51640000  1.0 -0.0215754097
C  C224  1  0.83740000  0.71120000  0.49190000  1.0 -0.1679300184
C  C225  1  0.86110000  0.65210000  0.51380000  1.0 0.0019667191
C  C226  1  0.92540000  0.64730000  0.55970000  1.0 -0.219322678
C  C227  1  0.85420000  0.82900000  0.49400000  1.0 0.5068452542
C  C228  1  0.81700000  0.59440000  0.48790000  1.0 0.5402754332
C  C229  1  0.36140000  0.19460000  0.63480000  1.0 -0.0290730883
C  C230  1  0.38070000  0.20230000  0.58840000  1.0 -0.1108860088
C  C231  1  0.37620000  0.29520000  0.62520000  1.0 0.1297535131
C  C232  1  0.40490000  0.29550000  0.53790000  1.0 0.2201629092
C  C233  1  0.46550000  0.34050000  0.54290000  1.0 -0.2378067191
C  C234  1  0.43150000  0.34890000  0.44870000  1.0 -0.2795021335
C  C235  1  0.37150000  0.30240000  0.44420000  1.0 0.2098842372
C  C236  1  0.35780000  0.27540000  0.48890000  1.0 -0.2519162076
C  C237  1  0.57050000  0.45550000  0.54280000  1.0 -0.0984273863
C  C238  1  0.62770000  0.49000000  0.52820000  1.0 -0.0290730883
C  C239  1  0.58670000  0.42340000  0.46710000  1.0 0.0878952925
C  C240  1  0.23880000  0.26660000  0.38210000  1.0 -0.1108860088
C  C241  1  0.34650000  0.27490000  0.35010000  1.0 0.1203112526
C  C242  1  0.21660000  0.24820000  0.33080000  1.0 -0.0215754097
C  C243  1  0.47890000  0.36700000  0.49770000  1.0 0.2098842372
C  C244  1  0.83070000  0.11220000  0.96440000  1.0 0.0987227752
C  C245  1  0.74930000  0.13370000  0.88940000  1.0 -0.0290730883
C  C246  1  0.78740000  0.18790000  0.90760000  1.0 -0.1108860088
C  C247  1  0.95450000  0.19730000  0.03330000  1.0 -0.2598019893
C  C248  1  0.89120000  0.21880000  0.99140000  1.0 0.2031042312
C  C249  1  0.92470000  0.32460000  0.01810000  1.0 0.2031042312
C  C250  1  0.98770000  0.30430000  0.06050000  1.0 -0.2598019893
C  C251  1  0.00100000  0.24050000  0.06700000  1.0 0.2098842372
C  C252  1  0.13270000  0.25170000  0.13790000  1.0 0.1203112526
C  C253  1  0.13280000  0.16630000  0.18040000  1.0 -0.0215754097
C  C254  1  0.06330000  0.16520000  0.14010000  1.0 -0.1205251406
C  C255  1  0.85540000  0.42240000  0.97520000  1.0 -0.0021432093
C  C256  1  0.87530000  0.28180000  0.98380000  1.0 -0.2519162076
C  C257  1  0.97680000  0.43610000  0.02270000  1.0 -0.1300547937
C  C258  1  0.94470000  0.49280000  0.00380000  1.0 -0.0804925741
C  C259  1  0.91090000  0.43050000  0.06090000  1.0 -0.0943844768
C  C260  1  0.87510000  0.48440000  0.04090000  1.0 -0.0804925741
N  N1  1  0.70250000  0.11290000  0.23920000  1.0 -0.3518228645
N  N2  1  0.62860000  0.40340000  0.22140000  1.0 -0.3886699642
N  N3  1  0.96930000  0.30570000  0.36950000  1.0 -0.376605552
N  N4  1  0.64020000  0.74680000  0.34220000  1.0 -0.2795021335
N  N5  1  0.60910000  0.73410000  0.41690000  1.0 0.0019667191
N  N6  1  0.45740000  0.58720000  0.49750000  1.0 0.0019667191
N  N7  1  0.36120000  0.52970000  0.51840000  1.0 -0.2795021335
N  N8  1  0.67800000  0.71700000  0.60540000  1.0 -0.0021432093
N  N9  1  0.71450000  0.74670000  0.68850000  1.0 -0.2707409079
N  N10  1  0.22410000  0.91390000  0.07510000  1.0 -0.2795021335
N  N11  1  0.15980000  0.82520000  0.04390000  1.0 0.0109421237
N  N12  1  0.93510000  0.78030000  0.88830000  1.0 0.0019667191
N  N13  1  0.82370000  0.77960000  0.82140000  1.0 -0.2795021335
N  N14  1  0.14320000  0.51880000  0.01890000  1.0 -0.0984273863
N  N15  1  0.08980000  0.61030000  0.98890000  1.0 0.0306800173
N  N16  1  0.70250000  0.38710000  0.73920000  1.0 -0.3518228645
N  N17  1  0.62860000  0.09660000  0.72140000  1.0 -0.3886699642
N  N18  1  0.96930000  0.19430000  0.86950000  1.0 -0.376605552
N  N19  1  0.64020000  0.75320000  0.84220000  1.0 -0.2795021335
N  N20  1  0.60910000  0.76590000  0.91690000  1.0 0.0019667191
N  N21  1  0.45740000  0.91280000  0.99750000  1.0 0.0019667191
N  N22  1  0.36120000  0.97030000  0.01840000  1.0 -0.2795021335
N  N23  1  0.67800000  0.78300000  0.10540000  1.0 -0.0021432093
N  N24  1  0.71450000  0.75330000  0.18850000  1.0 -0.2707409079
N  N25  1  0.22410000  0.58610000  0.57510000  1.0 -0.2795021335
N  N26  1  0.15980000  0.67480000  0.54390000  1.0 0.0109421237
N  N27  1  0.93510000  0.71970000  0.38830000  1.0 0.0019667191
N  N28  1  0.82370000  0.72040000  0.32140000  1.0 -0.2795021335
N  N29  1  0.14320000  0.98120000  0.51890000  1.0 -0.0984273863
N  N30  1  0.08980000  0.88970000  0.48890000  1.0 0.0306800173
N  N31  1  0.29750000  0.61290000  0.26080000  1.0 -0.3518228645
N  N32  1  0.37140000  0.90340000  0.27860000  1.0 -0.3886699642
N  N33  1  0.03070000  0.80570000  0.13050000  1.0 -0.376605552
N  N34  1  0.35980000  0.24680000  0.15780000  1.0 -0.2795021335
N  N35  1  0.39090000  0.23410000  0.08310000  1.0 0.0019667191
N  N36  1  0.54260000  0.08720000  0.00250000  1.0 0.0019667191
N  N37  1  0.63880000  0.02970000  0.98160000  1.0 -0.2795021335
N  N38  1  0.32200000  0.21700000  0.89460000  1.0 -0.0021432093
N  N39  1  0.28550000  0.24670000  0.81150000  1.0 -0.2707409079
N  N40  1  0.77590000  0.41390000  0.42490000  1.0 -0.2795021335
N  N41  1  0.84020000  0.32520000  0.45610000  1.0 0.0109421237
N  N42  1  0.06490000  0.28030000  0.61170000  1.0 0.0019667191
N  N43  1  0.17630000  0.27960000  0.67860000  1.0 -0.2795021335
N  N44  1  0.85680000  0.01880000  0.48110000  1.0 -0.0984273863
N  N45  1  0.91020000  0.11030000  0.51110000  1.0 0.0306800173
N  N46  1  0.29750000  0.88710000  0.76080000  1.0 -0.3518228645
N  N47  1  0.37140000  0.59660000  0.77860000  1.0 -0.3886699642
N  N48  1  0.03070000  0.69430000  0.63050000  1.0 -0.376605552
N  N49  1  0.35980000  0.25320000  0.65780000  1.0 -0.2795021335
N  N50  1  0.39090000  0.26590000  0.58310000  1.0 0.0019667191
N  N51  1  0.54260000  0.41280000  0.50250000  1.0 0.0019667191
N  N52  1  0.63880000  0.47030000  0.48160000  1.0 -0.2795021335
N  N53  1  0.32200000  0.28300000  0.39460000  1.0 -0.0021432093
N  N54  1  0.28550000  0.25330000  0.31150000  1.0 -0.2707409079
N  N55  1  0.77590000  0.08610000  0.92490000  1.0 -0.2795021335
N  N56  1  0.84020000  0.17480000  0.95610000  1.0 0.0109421237
N  N57  1  0.06490000  0.21970000  0.11170000  1.0 0.0019667191
N  N58  1  0.17630000  0.22040000  0.17860000  1.0 -0.2795021335
N  N59  1  0.85680000  0.48120000  0.98110000  1.0 -0.0984273863
N  N60  1  0.91020000  0.38970000  0.01110000  1.0 0.0306800173
O  O1  1  0.33850000  0.44380000  0.11890000  1.0 -0.5513889705
O  O2  1  0.31690000  0.54560000  0.11770000  1.0 -0.5688122625
O  O3  1  0.56180000  0.68280000  0.21900000  1.0 -0.5513889705
O  O4  1  0.67300000  0.63250000  0.26500000  1.0 -0.5584560946
O  O5  1  0.41560000  0.05460000  0.12600000  1.0 -0.5386675561
O  O6  1  0.39940000  0.95470000  0.14450000  1.0 -0.5688122625
O  O7  1  0.63120000  0.83590000  0.25070000  1.0 -0.5584560946
O  O8  1  0.75440000  0.87720000  0.28460000  1.0 -0.5513889705
O  O9  1  0.11440000  0.12450000  0.48180000  1.0 -0.4888600449
O  O10  1  0.19320000  0.16600000  0.54980000  1.0 -0.4888600449
O  O11  1  0.25150000  0.39740000  0.54490000  1.0 -0.5386675561
O  O12  1  0.98750000  0.21770000  0.32810000  1.0 -0.2598019893
O  O13  1  0.64550000  0.16990000  0.16600000  1.0 -0.4690538387
O  O14  1  0.75560000  0.44260000  0.22170000  1.0 -0.0215754097
O  O15  1  0.15200000  0.45830000  0.50100000  1.0 -0.5584560946
O  O16  1  0.75320000  0.44490000  0.25930000  1.0 -0.1300547937
O  O17  1  0.92100000  0.19830000  0.37040000  1.0 -0.5026006068
O  O18  1  0.33850000  0.05620000  0.61890000  1.0 -0.5513889705
O  O19  1  0.31690000  0.95440000  0.61770000  1.0 -0.5688122625
O  O20  1  0.56180000  0.81720000  0.71900000  1.0 -0.5513889705
O  O21  1  0.67300000  0.86750000  0.76500000  1.0 -0.5584560946
O  O22  1  0.41560000  0.44540000  0.62600000  1.0 -0.5386675561
O  O23  1  0.39940000  0.54530000  0.64450000  1.0 -0.5688122625
O  O24  1  0.63120000  0.66410000  0.75070000  1.0 -0.5584560946
O  O25  1  0.75440000  0.62280000  0.78460000  1.0 -0.5513889705
O  O26  1  0.11440000  0.37550000  0.98180000  1.0 -0.4888600449
O  O27  1  0.19320000  0.33400000  0.04980000  1.0 -0.4888600449
O  O28  1  0.25150000  0.10260000  0.04490000  1.0 -0.5386675561
O  O29  1  0.98750000  0.28230000  0.82810000  1.0 -0.2598019893
O  O30  1  0.64550000  0.33010000  0.66600000  1.0 -0.4690538387
O  O31  1  0.75560000  0.05740000  0.72170000  1.0 -0.0215754097
O  O32  1  0.15200000  0.04170000  0.00100000  1.0 -0.5584560946
O  O33  1  0.75320000  0.05510000  0.75930000  1.0 -0.1300547937
O  O34  1  0.92100000  0.30170000  0.87040000  1.0 -0.5026006068
O  O35  1  0.66150000  0.94380000  0.38110000  1.0 -0.5513889705
O  O36  1  0.68310000  0.04560000  0.38230000  1.0 -0.5688122625
O  O37  1  0.43820000  0.18280000  0.28100000  1.0 -0.5513889705
O  O38  1  0.32700000  0.13250000  0.23500000  1.0 -0.5584560946
O  O39  1  0.58440000  0.55460000  0.37400000  1.0 -0.5386675561
O  O40  1  0.60060000  0.45470000  0.35550000  1.0 -0.5688122625
O  O41  1  0.36880000  0.33590000  0.24930000  1.0 -0.5584560946
O  O42  1  0.24560000  0.37720000  0.21540000  1.0 -0.5513889705
O  O43  1  0.88560000  0.62450000  0.01820000  1.0 -0.4888600449
O  O44  1  0.80680000  0.66600000  0.95020000  1.0 -0.4888600449
O  O45  1  0.74850000  0.89740000  0.95510000  1.0 -0.5386675561
O  O46  1  0.01250000  0.71770000  0.17190000  1.0 -0.2598019893
O  O47  1  0.35450000  0.66990000  0.33400000  1.0 -0.4690538387
O  O48  1  0.24440000  0.94260000  0.27830000  1.0 -0.0290730883
O  O49  1  0.84800000  0.95830000  0.99900000  1.0 -0.5584560946
O  O50  1  0.24680000  0.94490000  0.24070000  1.0 -0.1300547937
O  O51  1  0.07900000  0.69830000  0.12960000  1.0 -0.5026006068
O  O52  1  0.66150000  0.55620000  0.88110000  1.0 -0.5513889705
O  O53  1  0.68310000  0.45440000  0.88230000  1.0 -0.5688122625
O  O54  1  0.43820000  0.31720000  0.78100000  1.0 -0.5513889705
O  O55  1  0.32700000  0.36750000  0.73500000  1.0 -0.5584560946
O  O56  1  0.58440000  0.94540000  0.87400000  1.0 -0.5386675561
O  O57  1  0.60060000  0.04530000  0.85550000  1.0 -0.5688122625
O  O58  1  0.36880000  0.16410000  0.74930000  1.0 -0.5584560946
O  O59  1  0.24560000  0.12280000  0.71540000  1.0 -0.5513889705
O  O60  1  0.88560000  0.87550000  0.51820000  1.0 -0.4888600449
O  O61  1  0.80680000  0.83400000  0.45020000  1.0 -0.4888600449
O  O62  1  0.74850000  0.60260000  0.45510000  1.0 -0.5386675561
O  O63  1  0.01250000  0.78230000  0.67190000  1.0 -0.2598019893
O  O64  1  0.35450000  0.83010000  0.83400000  1.0 -0.4690538387
O  O65  1  0.24440000  0.55740000  0.77830000  1.0 -0.0215754097
O  O66  1  0.84800000  0.54170000  0.49900000  1.0 -0.5584560946
O  O67  1  0.24680000  0.55510000  0.74070000  1.0 -0.1300547937
O  O68  1  0.07900000  0.80170000  0.62960000  1.0 -0.5026006068
