# DDEC6 charges by PACMAN v1.1 (https://github.com/mtap-research/PACMAN-charge/)
data_QADBII_FSR_pacman
_symmetry_space_group_name_H-M   'P 1'
_cell_length_a   10.07250000
_cell_length_b   10.22970000
_cell_length_c   23.50000000
_cell_angle_alpha   90.00000000
_cell_angle_beta   90.00000000
_cell_angle_gamma   90.00000000
_symmetry_Int_Tables_number   1
_chemical_formula_structural   SnH13(C4O)2
_chemical_formula_sum   'Sn8 H104 C64 O16'
_cell_volume   2421.40835137
_cell_formula_units_Z   8
loop_
 _symmetry_equiv_pos_site_id
 _symmetry_equiv_pos_as_xyz
  1  'x, y, z'
loop_
 _atom_site_type_symbol
 _atom_site_label
 _atom_site_symmetry_multiplicity
 _atom_site_fract_x
 _atom_site_fract_y
 _atom_site_fract_z
 _atom_site_occupancy
 _atom_site_charge
Sn  Sn1  1  0.45274000  0.32193000  0.76461000  1.0 1.2222981999
Sn  Sn2  1  0.04726000  0.67807000  0.26461000  1.0 1.2222981999
Sn  Sn3  1  0.54726000  0.82193000  0.73539000  1.0 1.2222981999
Sn  Sn4  1  0.95274000  0.17807000  0.23539000  1.0 1.2222981999
Sn  Sn5  1  0.32601000  0.69968000  0.52513000  1.0 1.2061306784
Sn  Sn6  1  0.17399000  0.30032000  0.02513000  1.0 1.2061306784
Sn  Sn7  1  0.67399000  0.19968000  0.97487000  1.0 1.2061306784
Sn  Sn8  1  0.82601000  0.80032000  0.47487000  1.0 1.2061306784
H  H1  1  0.61280000  0.40720000  0.62540000  1.0 0.1306347897
H  H2  1  0.88720000  0.59280000  0.12540000  1.0 0.1306347897
H  H3  1  0.38720000  0.90720000  0.87460000  1.0 0.1306347897
H  H4  1  0.11280000  0.09280000  0.37460000  1.0 0.1306347897
H  H5  1  0.78810000  0.61320000  0.59430000  1.0 0.1377114082
H  H6  1  0.71190000  0.38680000  0.09430000  1.0 0.1377114082
H  H7  1  0.21190000  0.11320000  0.90570000  1.0 0.1377114082
H  H8  1  0.28810000  0.88680000  0.40570000  1.0 0.1377114082
H  H9  1  0.75980000  0.48990000  0.55670000  1.0 0.1377114082
H  H10  1  0.74020000  0.51010000  0.05670000  1.0 0.1377114082
H  H11  1  0.24020000  0.98990000  0.94330000  1.0 0.1377114082
H  H12  1  0.25980000  0.01010000  0.44330000  1.0 0.1377114082
H  H13  1  0.87280000  0.56790000  0.69880000  1.0 0.1306347897
H  H14  1  0.62720000  0.43210000  0.19880000  1.0 0.1306347897
H  H15  1  0.12720000  0.06790000  0.80120000  1.0 0.1306347897
H  H16  1  0.37280000  0.93210000  0.30120000  1.0 0.1306347897
H  H17  1  0.04860000  0.45930000  0.74010000  1.0 0.114339071
H  H18  1  0.45140000  0.54070000  0.24010000  1.0 0.114339071
H  H19  1  0.95140000  0.95930000  0.75990000  1.0 0.114339071
H  H20  1  0.54860000  0.04070000  0.25990000  1.0 0.114339071
H  H21  1  0.09940000  0.24410000  0.71310000  1.0 0.1232961944
H  H22  1  0.40060000  0.75590000  0.21310000  1.0 0.1232961944
H  H23  1  0.90060000  0.74410000  0.78690000  1.0 0.1232961944
H  H24  1  0.59940000  0.25590000  0.28690000  1.0 0.1232961944
H  H25  1  0.93440000  0.12170000  0.66890000  1.0 0.1232961944
H  H26  1  0.56560000  0.87830000  0.16890000  1.0 0.1232961944
H  H27  1  0.06560000  0.62170000  0.83110000  1.0 0.1232961944
H  H28  1  0.43440000  0.37830000  0.33110000  1.0 0.1232961944
H  H29  1  0.74530000  0.22650000  0.63530000  1.0 0.1306347897
H  H30  1  0.75470000  0.77350000  0.13530000  1.0 0.1306347897
H  H31  1  0.25470000  0.72650000  0.86470000  1.0 0.1306347897
H  H32  1  0.24530000  0.27350000  0.36470000  1.0 0.1306347897
H  H33  1  0.68130000  0.37350000  0.80850000  1.0 0.1802365097
H  H34  1  0.81870000  0.62650000  0.30850000  1.0 0.1802365097
H  H35  1  0.31870000  0.87350000  0.69150000  1.0 0.1802365097
H  H36  1  0.18130000  0.12650000  0.19150000  1.0 0.1802365097
H  H37  1  0.70130000  0.26230000  0.76340000  1.0 0.1701785984
H  H38  1  0.79870000  0.73770000  0.26340000  1.0 0.1701785984
H  H39  1  0.29870000  0.76230000  0.73660000  1.0 0.1701785984
H  H40  1  0.20130000  0.23770000  0.23660000  1.0 0.1701785984
H  H41  1  0.64590000  0.22860000  0.82400000  1.0 0.1945349599
H  H42  1  0.85410000  0.77140000  0.32400000  1.0 0.1945349599
H  H43  1  0.35410000  0.72860000  0.67600000  1.0 0.1945349599
H  H44  1  0.14590000  0.27140000  0.17600000  1.0 0.1945349599
H  H45  1  0.45830000  0.23130000  0.65970000  1.0 0.1802365097
H  H46  1  0.04170000  0.76870000  0.15970000  1.0 0.1802365097
H  H47  1  0.54170000  0.73130000  0.84030000  1.0 0.1802365097
H  H48  1  0.95830000  0.26870000  0.34030000  1.0 0.1802365097
H  H49  1  0.31990000  0.29830000  0.66860000  1.0 0.1802365097
H  H50  1  0.18010000  0.70170000  0.16860000  1.0 0.1802365097
H  H51  1  0.68010000  0.79830000  0.83140000  1.0 0.1802365097
H  H52  1  0.81990000  0.20170000  0.33140000  1.0 0.1802365097
H  H53  1  0.34490000  0.15700000  0.69200000  1.0 0.1802365097
H  H54  1  0.15510000  0.84300000  0.19200000  1.0 0.1802365097
H  H55  1  0.65510000  0.65700000  0.80800000  1.0 0.1802365097
H  H56  1  0.84490000  0.34300000  0.30800000  1.0 0.1802365097
H  H57  1  0.30830000  0.43770000  0.83820000  1.0 0.1802365097
H  H58  1  0.19170000  0.56230000  0.33820000  1.0 0.1802365097
H  H59  1  0.69170000  0.93770000  0.66180000  1.0 0.1802365097
H  H60  1  0.80830000  0.06230000  0.16180000  1.0 0.1802365097
H  H61  1  0.24760000  0.46490000  0.77790000  1.0 0.1649677406
H  H62  1  0.25240000  0.53510000  0.27790000  1.0 0.1649677406
H  H63  1  0.75240000  0.96490000  0.72210000  1.0 0.1649677406
H  H64  1  0.74760000  0.03510000  0.22210000  1.0 0.1649677406
H  H65  1  0.37140000  0.54460000  0.79880000  1.0 0.1802365097
H  H66  1  0.12860000  0.45540000  0.29880000  1.0 0.1802365097
H  H67  1  0.62860000  0.04460000  0.70120000  1.0 0.1802365097
H  H68  1  0.87140000  0.95540000  0.20120000  1.0 0.1802365097
H  H69  1  0.10880000  0.58290000  0.55840000  1.0 0.1802365097
H  H70  1  0.39120000  0.41710000  0.05840000  1.0 0.1802365097
H  H71  1  0.89120000  0.08290000  0.94160000  1.0 0.1802365097
H  H72  1  0.60880000  0.91710000  0.44160000  1.0 0.1802365097
H  H73  1  0.16510000  0.66050000  0.61070000  1.0 0.1802365097
H  H74  1  0.33490000  0.33950000  0.11070000  1.0 0.1802365097
H  H75  1  0.83490000  0.16050000  0.88930000  1.0 0.1802365097
H  H76  1  0.66510000  0.83950000  0.38930000  1.0 0.1802365097
H  H77  1  0.22640000  0.52490000  0.59410000  1.0 0.1802365097
H  H78  1  0.27360000  0.47510000  0.09410000  1.0 0.1802365097
H  H79  1  0.77360000  0.02490000  0.90590000  1.0 0.1802365097
H  H80  1  0.72640000  0.97510000  0.40590000  1.0 0.1802365097
H  H81  1  0.27670000  0.63150000  0.42420000  1.0 0.1802365097
H  H82  1  0.22330000  0.36850000  0.92420000  1.0 0.1802365097
H  H83  1  0.72330000  0.13150000  0.07580000  1.0 0.1802365097
H  H84  1  0.77670000  0.86850000  0.57580000  1.0 0.1802365097
H  H85  1  0.37950000  0.53250000  0.44970000  1.0 0.1802365097
H  H86  1  0.12050000  0.46750000  0.94970000  1.0 0.1802365097
H  H87  1  0.62050000  0.03250000  0.05030000  1.0 0.1802365097
H  H88  1  0.87950000  0.96750000  0.55030000  1.0 0.1802365097
H  H89  1  0.42720000  0.66940000  0.42790000  1.0 0.1802365097
H  H90  1  0.07280000  0.33060000  0.92790000  1.0 0.1802365097
H  H91  1  0.57280000  0.16940000  0.07210000  1.0 0.1802365097
H  H92  1  0.92720000  0.83060000  0.57210000  1.0 0.1802365097
H  H93  1  0.48730000  0.88710000  0.56130000  1.0 0.1802365097
H  H94  1  0.01270000  0.11290000  0.06130000  1.0 0.1802365097
H  H95  1  0.51270000  0.38710000  0.93870000  1.0 0.1802365097
H  H96  1  0.98730000  0.61290000  0.43870000  1.0 0.1802365097
H  H97  1  0.34330000  0.92490000  0.58070000  1.0 0.1802365097
H  H98  1  0.15670000  0.07510000  0.08070000  1.0 0.1802365097
H  H99  1  0.65670000  0.42490000  0.91930000  1.0 0.1802365097
H  H100  1  0.84330000  0.57510000  0.41930000  1.0 0.1802365097
H  H101  1  0.38870000  0.95100000  0.51790000  1.0 0.1701785984
H  H102  1  0.11130000  0.04900000  0.01790000  1.0 0.1701785984
H  H103  1  0.61130000  0.45100000  0.98210000  1.0 0.1701785984
H  H104  1  0.88870000  0.54900000  0.48210000  1.0 0.1701785984
C  C1  1  0.61600000  0.55500000  0.68020000  1.0 0.5949190209
C  C2  1  0.88400000  0.44500000  0.18020000  1.0 0.5953181932
C  C3  1  0.38400000  0.05500000  0.81980000  1.0 0.5949190209
C  C4  1  0.11600000  0.94500000  0.31980000  1.0 0.5949190209
C  C5  1  0.67700000  0.47400000  0.63700000  1.0 -0.1925245834
C  C6  1  0.82300000  0.52600000  0.13700000  1.0 -0.1925245834
C  C7  1  0.32300000  0.97400000  0.86300000  1.0 -0.1925245834
C  C8  1  0.17700000  0.02600000  0.36300000  1.0 -0.1925245834
C  C9  1  0.72000000  0.55100000  0.58360000  1.0 -0.3651184191
C  C10  1  0.78000000  0.44900000  0.08360000  1.0 -0.3651184191
C  C11  1  0.28000000  0.05100000  0.91640000  1.0 -0.3651184191
C  C12  1  0.22000000  0.94900000  0.41640000  1.0 -0.3651184191
C  C13  1  0.61000000  0.62100000  0.55490000  1.0 0.6378864596
C  C14  1  0.89000000  0.37900000  0.05490000  1.0 0.6378864596
C  C15  1  0.39000000  0.12100000  0.94510000  1.0 0.6378864596
C  C16  1  0.11000000  0.87900000  0.44510000  1.0 0.6378864596
C  C17  1  0.79900000  0.40730000  0.65940000  1.0 0.0950887303
C  C18  1  0.70100000  0.59270000  0.15940000  1.0 0.0950887303
C  C19  1  0.20100000  0.90730000  0.84060000  1.0 0.0950887303
C  C20  1  0.29900000  0.09270000  0.34060000  1.0 0.0950887303
C  C21  1  0.88600000  0.47900000  0.69240000  1.0 -0.1415337933
C  C22  1  0.61400000  0.52100000  0.19240000  1.0 -0.1415337933
C  C23  1  0.11400000  0.97900000  0.80760000  1.0 -0.1415337933
C  C24  1  0.38600000  0.02100000  0.30760000  1.0 -0.1415337933
C  C25  1  0.99200000  0.41500000  0.71540000  1.0 -0.0817736214
C  C26  1  0.50800000  0.58500000  0.21540000  1.0 -0.0817736214
C  C27  1  0.00800000  0.91500000  0.78460000  1.0 -0.0817736214
C  C28  1  0.49200000  0.08500000  0.28460000  1.0 -0.0817736214
C  C29  1  0.01900000  0.28200000  0.70260000  1.0 -0.1011778091
C  C30  1  0.48100000  0.71800000  0.20260000  1.0 -0.1011778091
C  C31  1  0.98100000  0.78200000  0.79740000  1.0 -0.1011778091
C  C32  1  0.51900000  0.21800000  0.29740000  1.0 -0.1011778091
C  C33  1  0.92400000  0.21100000  0.67420000  1.0 -0.0817736214
C  C34  1  0.57600000  0.78900000  0.17420000  1.0 -0.0817736214
C  C35  1  0.07600000  0.71100000  0.82580000  1.0 -0.0817736214
C  C36  1  0.42400000  0.28900000  0.32580000  1.0 -0.0817736214
C  C37  1  0.81200000  0.27440000  0.65340000  1.0 -0.1415337933
C  C38  1  0.68800000  0.72560000  0.15340000  1.0 -0.1415337933
C  C39  1  0.18800000  0.77440000  0.84660000  1.0 -0.1415337933
C  C40  1  0.31200000  0.22560000  0.34660000  1.0 -0.1415337933
C  C41  1  0.64650000  0.29300000  0.79410000  1.0 -0.789934713
C  C42  1  0.85350000  0.70700000  0.29410000  1.0 -0.789934713
C  C43  1  0.35350000  0.79300000  0.70590000  1.0 -0.789934713
C  C44  1  0.14650000  0.20700000  0.20590000  1.0 -0.789934713
C  C45  1  0.38400000  0.24100000  0.68520000  1.0 -0.7973844757
C  C46  1  0.11600000  0.75900000  0.18520000  1.0 -0.7973844757
C  C47  1  0.61600000  0.74100000  0.81480000  1.0 -0.7973844757
C  C48  1  0.88400000  0.25900000  0.31480000  1.0 -0.7973844757
C  C49  1  0.32800000  0.46100000  0.79950000  1.0 -0.7809951518
C  C50  1  0.17200000  0.53900000  0.29950000  1.0 -0.7809951518
C  C51  1  0.67200000  0.96100000  0.70050000  1.0 -0.789934713
C  C52  1  0.82800000  0.03900000  0.20050000  1.0 -0.7809951518
C  C53  1  0.18800000  0.60400000  0.57960000  1.0 -0.7809951518
C  C54  1  0.31200000  0.39600000  0.07960000  1.0 -0.7809951518
C  C55  1  0.81200000  0.10400000  0.92040000  1.0 -0.7809951518
C  C56  1  0.68800000  0.89600000  0.42040000  1.0 -0.7809951518
C  C57  1  0.35600000  0.62300000  0.44630000  1.0 -0.7809951518
C  C58  1  0.14400000  0.37700000  0.94630000  1.0 -0.7809951518
C  C59  1  0.64400000  0.12300000  0.05370000  1.0 -0.7809951518
C  C60  1  0.85600000  0.87700000  0.55370000  1.0 -0.7809951518
C  C61  1  0.39600000  0.89300000  0.54970000  1.0 -0.789934713
C  C62  1  0.10400000  0.10700000  0.04970000  1.0 -0.789934713
C  C63  1  0.60400000  0.39300000  0.95030000  1.0 -0.789934713
C  C64  1  0.89600000  0.60700000  0.45030000  1.0 -0.789934713
O  O1  1  0.53320000  0.51000000  0.71550000  1.0 -0.5404027229
O  O2  1  0.96680000  0.49000000  0.21550000  1.0 -0.5404027229
O  O3  1  0.46680000  0.01000000  0.78450000  1.0 -0.5404027229
O  O4  1  0.03320000  0.99000000  0.28450000  1.0 -0.5404027229
O  O5  1  0.64450000  0.68020000  0.68000000  1.0 -0.5404027229
O  O6  1  0.85550000  0.31980000  0.18000000  1.0 -0.5404027229
O  O7  1  0.35550000  0.18020000  0.82000000  1.0 -0.5404027229
O  O8  1  0.14450000  0.81980000  0.32000000  1.0 -0.5404027229
O  O9  1  0.49110000  0.59500000  0.56930000  1.0 -0.5204372158
O  O10  1  0.00890000  0.40500000  0.06930000  1.0 -0.5204372158
O  O11  1  0.50890000  0.09500000  0.93070000  1.0 -0.5204372158
O  O12  1  0.99110000  0.90500000  0.43070000  1.0 -0.5204372158
O  O13  1  0.63520000  0.69580000  0.51160000  1.0 -0.578700011
O  O14  1  0.86480000  0.30420000  0.01160000  1.0 -0.578700011
O  O15  1  0.36480000  0.19580000  0.98840000  1.0 -0.578700011
O  O16  1  0.13520000  0.80420000  0.48840000  1.0 -0.578700011
