# DDEC6 charges by PACMAN v1.1 (https://github.com/mtap-research/PACMAN-charge/)
data_QAGQEW_ASR_pacman
_symmetry_space_group_name_H-M   'P 1'
_cell_length_a   27.72200000
_cell_length_b   27.72200000
_cell_length_c   27.72200000
_cell_angle_alpha   60.00000000
_cell_angle_beta   60.00000000
_cell_angle_gamma   60.00000000
_symmetry_Int_Tables_number   1
_chemical_formula_structural   CdH2C10(SO2)2
_chemical_formula_sum   'Cd24 H48 C240 S48 O96'
_cell_volume   15064.63729233
_cell_formula_units_Z   24
loop_
 _symmetry_equiv_pos_site_id
 _symmetry_equiv_pos_as_xyz
  1  'x, y, z'
loop_
 _atom_site_type_symbol
 _atom_site_label
 _atom_site_symmetry_multiplicity
 _atom_site_fract_x
 _atom_site_fract_y
 _atom_site_fract_z
 _atom_site_occupancy
 _atom_site_charge
Cd  Cd1  1  0.45719000  0.91101000  0.08899000  1.0 1.0410672184
Cd  Cd2  1  0.95719000  0.41101000  0.04281000  1.0 1.0410672184
Cd  Cd3  1  0.91101000  0.45719000  0.54281000  1.0 1.0410672184
Cd  Cd4  1  0.41101000  0.95719000  0.58899000  1.0 1.0410672184
Cd  Cd5  1  0.58899000  0.95719000  0.04281000  1.0 1.0410672184
Cd  Cd6  1  0.54281000  0.08899000  0.91101000  1.0 1.0410672184
Cd  Cd7  1  0.41101000  0.04281000  0.95719000  1.0 1.0410672184
Cd  Cd8  1  0.58899000  0.41101000  0.95719000  1.0 1.0410672184
Cd  Cd9  1  0.08899000  0.54281000  0.45719000  1.0 1.0410672184
Cd  Cd10  1  0.95719000  0.04281000  0.58899000  1.0 1.0410672184
Cd  Cd11  1  0.08899000  0.45719000  0.91101000  1.0 1.0410672184
Cd  Cd12  1  0.91101000  0.08899000  0.45719000  1.0 1.0410672184
Cd  Cd13  1  0.08899000  0.91101000  0.54281000  1.0 1.0410672184
Cd  Cd14  1  0.54281000  0.91101000  0.45719000  1.0 1.0410672184
Cd  Cd15  1  0.45719000  0.54281000  0.91101000  1.0 1.0410672184
Cd  Cd16  1  0.45719000  0.08899000  0.54281000  1.0 1.0410672184
Cd  Cd17  1  0.91101000  0.54281000  0.08899000  1.0 1.0410672184
Cd  Cd18  1  0.54281000  0.45719000  0.08899000  1.0 1.0410672184
Cd  Cd19  1  0.04281000  0.58899000  0.95719000  1.0 1.0410672184
Cd  Cd20  1  0.58899000  0.04281000  0.41101000  1.0 1.0410672184
Cd  Cd21  1  0.95719000  0.58899000  0.41101000  1.0 1.0410672184
Cd  Cd22  1  0.04281000  0.41101000  0.58899000  1.0 1.0410672184
Cd  Cd23  1  0.04281000  0.95719000  0.41101000  1.0 1.0410672184
Cd  Cd24  1  0.41101000  0.58899000  0.04281000  1.0 1.0410672184
H  H1  1  0.28930000  0.11630000  0.03870000  1.0 0.1386353777
H  H2  1  0.94430000  0.46130000  0.21070000  1.0 0.1386353777
H  H3  1  0.11630000  0.28930000  0.55570000  1.0 0.1386353777
H  H4  1  0.46130000  0.94430000  0.38370000  1.0 0.1386353777
H  H5  1  0.38370000  0.94430000  0.21070000  1.0 0.1386353777
H  H6  1  0.55570000  0.03870000  0.11630000  1.0 0.1386353777
H  H7  1  0.46130000  0.21070000  0.94430000  1.0 0.1386353777
H  H8  1  0.38370000  0.46130000  0.94430000  1.0 0.1386353777
H  H9  1  0.03870000  0.55570000  0.28930000  1.0 0.1386353777
H  H10  1  0.94430000  0.21070000  0.38370000  1.0 0.1386353777
H  H11  1  0.03870000  0.28930000  0.11630000  1.0 0.1386353777
H  H12  1  0.11630000  0.03870000  0.28930000  1.0 0.1386353777
H  H13  1  0.03870000  0.11630000  0.55570000  1.0 0.1386353777
H  H14  1  0.55570000  0.11630000  0.28930000  1.0 0.1386353777
H  H15  1  0.28930000  0.55570000  0.11630000  1.0 0.1386353777
H  H16  1  0.28930000  0.03870000  0.55570000  1.0 0.1386353777
H  H17  1  0.11630000  0.55570000  0.03870000  1.0 0.1386353777
H  H18  1  0.55570000  0.28930000  0.03870000  1.0 0.1386353777
H  H19  1  0.21070000  0.38370000  0.94430000  1.0 0.1386353777
H  H20  1  0.38370000  0.21070000  0.46130000  1.0 0.1386353777
H  H21  1  0.94430000  0.38370000  0.46130000  1.0 0.1386353777
H  H22  1  0.21070000  0.46130000  0.38370000  1.0 0.1386353777
H  H23  1  0.21070000  0.94430000  0.46130000  1.0 0.1386353777
H  H24  1  0.46130000  0.38370000  0.21070000  1.0 0.1386353777
H  H25  1  0.71070000  0.88370000  0.96130000  1.0 0.1386353777
H  H26  1  0.05570000  0.53870000  0.78930000  1.0 0.1386353777
H  H27  1  0.88370000  0.71070000  0.44430000  1.0 0.1386353777
H  H28  1  0.53870000  0.05570000  0.61630000  1.0 0.1386353777
H  H29  1  0.61630000  0.05570000  0.78930000  1.0 0.1386353777
H  H30  1  0.44430000  0.96130000  0.88370000  1.0 0.1386353777
H  H31  1  0.53870000  0.78930000  0.05570000  1.0 0.1386353777
H  H32  1  0.61630000  0.53870000  0.05570000  1.0 0.1386353777
H  H33  1  0.96130000  0.44430000  0.71070000  1.0 0.1386353777
H  H34  1  0.05570000  0.78930000  0.61630000  1.0 0.1386353777
H  H35  1  0.96130000  0.71070000  0.88370000  1.0 0.1386353777
H  H36  1  0.88370000  0.96130000  0.71070000  1.0 0.1386353777
H  H37  1  0.96130000  0.88370000  0.44430000  1.0 0.1386353777
H  H38  1  0.44430000  0.88370000  0.71070000  1.0 0.1386353777
H  H39  1  0.71070000  0.44430000  0.88370000  1.0 0.1386353777
H  H40  1  0.71070000  0.96130000  0.44430000  1.0 0.1386353777
H  H41  1  0.88370000  0.44430000  0.96130000  1.0 0.1386353777
H  H42  1  0.44430000  0.71070000  0.96130000  1.0 0.1386353777
H  H43  1  0.78930000  0.61630000  0.05570000  1.0 0.1386353777
H  H44  1  0.61630000  0.78930000  0.53870000  1.0 0.1386353777
H  H45  1  0.05570000  0.61630000  0.53870000  1.0 0.1386353777
H  H46  1  0.78930000  0.53870000  0.61630000  1.0 0.1386353777
H  H47  1  0.78930000  0.05570000  0.53870000  1.0 0.1386353777
H  H48  1  0.53870000  0.61630000  0.78930000  1.0 0.1386353777
C  C1  1  0.34699000  0.99715000  0.10345000  1.0 0.5800599065
C  C2  1  0.94759000  0.39655000  0.15301000  1.0 0.5800599065
C  C3  1  0.99715000  0.34699000  0.55241000  1.0 0.5800599065
C  C4  1  0.39655000  0.94759000  0.50285000  1.0 0.5800599065
C  C5  1  0.50285000  0.94759000  0.15301000  1.0 0.5800599065
C  C6  1  0.55241000  0.10345000  0.99715000  1.0 0.5800599065
C  C7  1  0.39655000  0.15301000  0.94759000  1.0 0.5800599065
C  C8  1  0.50285000  0.39655000  0.94759000  1.0 0.5800599065
C  C9  1  0.10345000  0.55241000  0.34699000  1.0 0.5800599065
C  C10  1  0.94759000  0.15301000  0.50285000  1.0 0.5800599065
C  C11  1  0.10345000  0.34699000  0.99715000  1.0 0.5800599065
C  C12  1  0.99715000  0.10345000  0.34699000  1.0 0.5800599065
C  C13  1  0.10345000  0.99715000  0.55241000  1.0 0.5800599065
C  C14  1  0.55241000  0.99715000  0.34699000  1.0 0.5800599065
C  C15  1  0.34699000  0.55241000  0.99715000  1.0 0.5800599065
C  C16  1  0.34699000  0.10345000  0.55241000  1.0 0.5800599065
C  C17  1  0.99715000  0.55241000  0.10345000  1.0 0.5800599065
C  C18  1  0.55241000  0.34699000  0.10345000  1.0 0.5800599065
C  C19  1  0.15301000  0.50285000  0.94759000  1.0 0.5800599065
C  C20  1  0.50285000  0.15301000  0.39655000  1.0 0.5800599065
C  C21  1  0.94759000  0.50285000  0.39655000  1.0 0.5800599065
C  C22  1  0.15301000  0.39655000  0.50285000  1.0 0.5800599065
C  C23  1  0.15301000  0.94759000  0.39655000  1.0 0.5800599065
C  C24  1  0.39655000  0.50285000  0.15301000  1.0 0.5800599065
C  C25  1  0.65301000  0.00285000  0.89655000  1.0 0.5800599065
C  C26  1  0.05241000  0.60345000  0.84699000  1.0 0.5800599065
C  C27  1  0.00285000  0.65301000  0.44759000  1.0 0.5800599065
C  C28  1  0.60345000  0.05241000  0.49715000  1.0 0.5800599065
C  C29  1  0.49715000  0.05241000  0.84699000  1.0 0.5800599065
C  C30  1  0.44759000  0.89655000  0.00285000  1.0 0.5800599065
C  C31  1  0.60345000  0.84699000  0.05241000  1.0 0.5800599065
C  C32  1  0.49715000  0.60345000  0.05241000  1.0 0.5800599065
C  C33  1  0.89655000  0.44759000  0.65301000  1.0 0.5800599065
C  C34  1  0.05241000  0.84699000  0.49715000  1.0 0.5800599065
C  C35  1  0.89655000  0.65301000  0.00285000  1.0 0.5800599065
C  C36  1  0.00285000  0.89655000  0.65301000  1.0 0.5800599065
C  C37  1  0.89655000  0.00285000  0.44759000  1.0 0.5800599065
C  C38  1  0.44759000  0.00285000  0.65301000  1.0 0.5800599065
C  C39  1  0.65301000  0.44759000  0.00285000  1.0 0.5800599065
C  C40  1  0.65301000  0.89655000  0.44759000  1.0 0.5800599065
C  C41  1  0.00285000  0.44759000  0.89655000  1.0 0.5800599065
C  C42  1  0.44759000  0.65301000  0.89655000  1.0 0.5800599065
C  C43  1  0.84699000  0.49715000  0.05241000  1.0 0.5800599065
C  C44  1  0.49715000  0.84699000  0.60345000  1.0 0.5800599065
C  C45  1  0.05241000  0.49715000  0.60345000  1.0 0.5800599065
C  C46  1  0.84699000  0.60345000  0.49715000  1.0 0.5800599065
C  C47  1  0.84699000  0.05241000  0.60345000  1.0 0.5800599065
C  C48  1  0.60345000  0.49715000  0.84699000  1.0 0.5800599065
C  C49  1  0.28623000  0.04001000  0.11551000  1.0 -0.0970765234
C  C50  1  0.94175000  0.38449000  0.21377000  1.0 -0.0970765234
C  C51  1  0.04001000  0.28623000  0.55825000  1.0 -0.0970765234
C  C52  1  0.38449000  0.94175000  0.45999000  1.0 -0.0970765234
C  C53  1  0.45999000  0.94175000  0.21377000  1.0 -0.0970765234
C  C54  1  0.55825000  0.11551000  0.04001000  1.0 -0.0970765234
C  C55  1  0.38449000  0.21377000  0.94175000  1.0 -0.0970765234
C  C56  1  0.45999000  0.38449000  0.94175000  1.0 -0.0970765234
C  C57  1  0.11551000  0.55825000  0.28623000  1.0 -0.0970765234
C  C58  1  0.94175000  0.21377000  0.45999000  1.0 -0.0970765234
C  C59  1  0.11551000  0.28623000  0.04001000  1.0 -0.0970765234
C  C60  1  0.04001000  0.11551000  0.28623000  1.0 -0.0970765234
C  C61  1  0.11551000  0.04001000  0.55825000  1.0 -0.0970765234
C  C62  1  0.55825000  0.04001000  0.28623000  1.0 -0.0970765234
C  C63  1  0.28623000  0.55825000  0.04001000  1.0 -0.0970765234
C  C64  1  0.28623000  0.11551000  0.55825000  1.0 -0.0970765234
C  C65  1  0.04001000  0.55825000  0.11551000  1.0 -0.0970765234
C  C66  1  0.55825000  0.28623000  0.11551000  1.0 -0.0970765234
C  C67  1  0.21377000  0.45999000  0.94175000  1.0 -0.0970765234
C  C68  1  0.45999000  0.21377000  0.38449000  1.0 -0.0970765234
C  C69  1  0.94175000  0.45999000  0.38449000  1.0 -0.0970765234
C  C70  1  0.21377000  0.38449000  0.45999000  1.0 -0.0970765234
C  C71  1  0.21377000  0.94175000  0.38449000  1.0 -0.0970765234
C  C72  1  0.38449000  0.45999000  0.21377000  1.0 -0.0970765234
C  C73  1  0.71377000  0.95999000  0.88449000  1.0 -0.0970765234
C  C74  1  0.05825000  0.61551000  0.78623000  1.0 -0.0970765234
C  C75  1  0.95999000  0.71377000  0.44175000  1.0 -0.0970765234
C  C76  1  0.61551000  0.05825000  0.54001000  1.0 -0.0970765234
C  C77  1  0.54001000  0.05825000  0.78623000  1.0 -0.0970765234
C  C78  1  0.44175000  0.88449000  0.95999000  1.0 -0.0970765234
C  C79  1  0.61551000  0.78623000  0.05825000  1.0 -0.0970765234
C  C80  1  0.54001000  0.61551000  0.05825000  1.0 -0.0970765234
C  C81  1  0.88449000  0.44175000  0.71377000  1.0 -0.0970765234
C  C82  1  0.05825000  0.78623000  0.54001000  1.0 -0.0970765234
C  C83  1  0.88449000  0.71377000  0.95999000  1.0 -0.0970765234
C  C84  1  0.95999000  0.88449000  0.71377000  1.0 -0.0970765234
C  C85  1  0.88449000  0.95999000  0.44175000  1.0 -0.0970765234
C  C86  1  0.44175000  0.95999000  0.71377000  1.0 -0.0970765234
C  C87  1  0.71377000  0.44175000  0.95999000  1.0 -0.0970765234
C  C88  1  0.71377000  0.88449000  0.44175000  1.0 -0.0970765234
C  C89  1  0.95999000  0.44175000  0.88449000  1.0 -0.0970765234
C  C90  1  0.44175000  0.71377000  0.88449000  1.0 -0.0970765234
C  C91  1  0.78623000  0.54001000  0.05825000  1.0 -0.0970765234
C  C92  1  0.54001000  0.78623000  0.61551000  1.0 -0.0970765234
C  C93  1  0.05825000  0.54001000  0.61551000  1.0 -0.0970765234
C  C94  1  0.78623000  0.61551000  0.54001000  1.0 -0.0970765234
C  C95  1  0.78623000  0.05825000  0.61551000  1.0 -0.0970765234
C  C96  1  0.61551000  0.54001000  0.78623000  1.0 -0.0970765234
C  C97  1  0.26639000  0.09795000  0.07707000  1.0 -0.1789359245
C  C98  1  0.94141000  0.42293000  0.23361000  1.0 -0.1789359245
C  C99  1  0.09795000  0.26639000  0.55859000  1.0 -0.1789359245
C  C100  1  0.42293000  0.94141000  0.40205000  1.0 -0.1789359245
C  C101  1  0.40205000  0.94141000  0.23361000  1.0 -0.1789359245
C  C102  1  0.55859000  0.07707000  0.09795000  1.0 -0.1789359245
C  C103  1  0.42293000  0.23361000  0.94141000  1.0 -0.1789359245
C  C104  1  0.40205000  0.42293000  0.94141000  1.0 -0.1789359245
C  C105  1  0.07707000  0.55859000  0.26639000  1.0 -0.1789359245
C  C106  1  0.94141000  0.23361000  0.40205000  1.0 -0.1789359245
C  C107  1  0.07707000  0.26639000  0.09795000  1.0 -0.1789359245
C  C108  1  0.09795000  0.07707000  0.26639000  1.0 -0.1789359245
C  C109  1  0.07707000  0.09795000  0.55859000  1.0 -0.1789359245
C  C110  1  0.55859000  0.09795000  0.26639000  1.0 -0.1789359245
C  C111  1  0.26639000  0.55859000  0.09795000  1.0 -0.1789359245
C  C112  1  0.26639000  0.07707000  0.55859000  1.0 -0.1789359245
C  C113  1  0.09795000  0.55859000  0.07707000  1.0 -0.1789359245
C  C114  1  0.55859000  0.26639000  0.07707000  1.0 -0.1789359245
C  C115  1  0.23361000  0.40205000  0.94141000  1.0 -0.1789359245
C  C116  1  0.40205000  0.23361000  0.42293000  1.0 -0.1789359245
C  C117  1  0.94141000  0.40205000  0.42293000  1.0 -0.1789359245
C  C118  1  0.23361000  0.42293000  0.40205000  1.0 -0.1789359245
C  C119  1  0.23361000  0.94141000  0.42293000  1.0 -0.1789359245
C  C120  1  0.42293000  0.40205000  0.23361000  1.0 -0.1789359245
C  C121  1  0.73361000  0.90205000  0.92293000  1.0 -0.1789359245
C  C122  1  0.05859000  0.57707000  0.76639000  1.0 -0.1789359245
C  C123  1  0.90205000  0.73361000  0.44141000  1.0 -0.1789359245
C  C124  1  0.57707000  0.05859000  0.59795000  1.0 -0.1789359245
C  C125  1  0.59795000  0.05859000  0.76639000  1.0 -0.1789359245
C  C126  1  0.44141000  0.92293000  0.90205000  1.0 -0.1789359245
C  C127  1  0.57707000  0.76639000  0.05859000  1.0 -0.1789359245
C  C128  1  0.59795000  0.57707000  0.05859000  1.0 -0.1789359245
C  C129  1  0.92293000  0.44141000  0.73361000  1.0 -0.1789359245
C  C130  1  0.05859000  0.76639000  0.59795000  1.0 -0.1789359245
C  C131  1  0.92293000  0.73361000  0.90205000  1.0 -0.1789359245
C  C132  1  0.90205000  0.92293000  0.73361000  1.0 -0.1789359245
C  C133  1  0.92293000  0.90205000  0.44141000  1.0 -0.1789359245
C  C134  1  0.44141000  0.90205000  0.73361000  1.0 -0.1789359245
C  C135  1  0.73361000  0.44141000  0.90205000  1.0 -0.1789359245
C  C136  1  0.73361000  0.92293000  0.44141000  1.0 -0.1789359245
C  C137  1  0.90205000  0.44141000  0.92293000  1.0 -0.1789359245
C  C138  1  0.44141000  0.73361000  0.92293000  1.0 -0.1789359245
C  C139  1  0.76639000  0.59795000  0.05859000  1.0 -0.1789359245
C  C140  1  0.59795000  0.76639000  0.57707000  1.0 -0.1789359245
C  C141  1  0.05859000  0.59795000  0.57707000  1.0 -0.1789359245
C  C142  1  0.76639000  0.57707000  0.59795000  1.0 -0.1789359245
C  C143  1  0.76639000  0.05859000  0.57707000  1.0 -0.1789359245
C  C144  1  0.57707000  0.59795000  0.76639000  1.0 -0.1789359245
C  C145  1  0.20342000  0.12404000  0.10816000  1.0 0.034540558
C  C146  1  0.93562000  0.39184000  0.29658000  1.0 0.034540558
C  C147  1  0.12404000  0.20342000  0.56438000  1.0 0.034540558
C  C148  1  0.39184000  0.93562000  0.37596000  1.0 0.034540558
C  C149  1  0.37596000  0.93562000  0.29658000  1.0 0.034540558
C  C150  1  0.56438000  0.10816000  0.12404000  1.0 0.034540558
C  C151  1  0.39184000  0.29658000  0.93562000  1.0 0.034540558
C  C152  1  0.37596000  0.39184000  0.93562000  1.0 0.034540558
C  C153  1  0.10816000  0.56438000  0.20342000  1.0 0.034540558
C  C154  1  0.93562000  0.29658000  0.37596000  1.0 0.034540558
C  C155  1  0.10816000  0.20342000  0.12404000  1.0 0.034540558
C  C156  1  0.12404000  0.10816000  0.20342000  1.0 0.034540558
C  C157  1  0.10816000  0.12404000  0.56438000  1.0 0.034540558
C  C158  1  0.56438000  0.12404000  0.20342000  1.0 0.034540558
C  C159  1  0.20342000  0.56438000  0.12404000  1.0 0.034540558
C  C160  1  0.20342000  0.10816000  0.56438000  1.0 0.034540558
C  C161  1  0.12404000  0.56438000  0.10816000  1.0 0.034540558
C  C162  1  0.56438000  0.20342000  0.10816000  1.0 0.034540558
C  C163  1  0.29658000  0.37596000  0.93562000  1.0 0.034540558
C  C164  1  0.37596000  0.29658000  0.39184000  1.0 0.034540558
C  C165  1  0.93562000  0.37596000  0.39184000  1.0 0.034540558
C  C166  1  0.29658000  0.39184000  0.37596000  1.0 0.034540558
C  C167  1  0.29658000  0.93562000  0.39184000  1.0 0.034540558
C  C168  1  0.39184000  0.37596000  0.29658000  1.0 0.034540558
C  C169  1  0.79658000  0.87596000  0.89184000  1.0 0.034540558
C  C170  1  0.06438000  0.60816000  0.70342000  1.0 0.034540558
C  C171  1  0.87596000  0.79658000  0.43562000  1.0 0.034540558
C  C172  1  0.60816000  0.06438000  0.62404000  1.0 0.034540558
C  C173  1  0.62404000  0.06438000  0.70342000  1.0 0.034540558
C  C174  1  0.43562000  0.89184000  0.87596000  1.0 0.034540558
C  C175  1  0.60816000  0.70342000  0.06438000  1.0 0.034540558
C  C176  1  0.62404000  0.60816000  0.06438000  1.0 0.034540558
C  C177  1  0.89184000  0.43562000  0.79658000  1.0 0.034540558
C  C178  1  0.06438000  0.70342000  0.62404000  1.0 0.034540558
C  C179  1  0.89184000  0.79658000  0.87596000  1.0 0.034540558
C  C180  1  0.87596000  0.89184000  0.79658000  1.0 0.034540558
C  C181  1  0.89184000  0.87596000  0.43562000  1.0 0.034540558
C  C182  1  0.43562000  0.87596000  0.79658000  1.0 0.034540558
C  C183  1  0.79658000  0.43562000  0.87596000  1.0 0.034540558
C  C184  1  0.79658000  0.89184000  0.43562000  1.0 0.034540558
C  C185  1  0.87596000  0.43562000  0.89184000  1.0 0.034540558
C  C186  1  0.43562000  0.79658000  0.89184000  1.0 0.034540558
C  C187  1  0.70342000  0.62404000  0.06438000  1.0 0.034540558
C  C188  1  0.62404000  0.70342000  0.60816000  1.0 0.034540558
C  C189  1  0.06438000  0.62404000  0.60816000  1.0 0.034540558
C  C190  1  0.70342000  0.60816000  0.62404000  1.0 0.034540558
C  C191  1  0.70342000  0.06438000  0.60816000  1.0 0.034540558
C  C192  1  0.60816000  0.62404000  0.70342000  1.0 0.034540558
C  C193  1  0.18218000  0.08740000  0.16556000  1.0 -0.0122324666
C  C194  1  0.93514000  0.33444000  0.31782000  1.0 -0.0122324666
C  C195  1  0.08740000  0.18218000  0.56486000  1.0 -0.0122324666
C  C196  1  0.33444000  0.93514000  0.41260000  1.0 -0.0122324666
C  C197  1  0.41260000  0.93514000  0.31782000  1.0 -0.0122324666
C  C198  1  0.56486000  0.16556000  0.08740000  1.0 -0.0122324666
C  C199  1  0.33444000  0.31782000  0.93514000  1.0 -0.0122324666
C  C200  1  0.41260000  0.33444000  0.93514000  1.0 -0.0122324666
C  C201  1  0.16556000  0.56486000  0.18218000  1.0 -0.0122324666
C  C202  1  0.93514000  0.31782000  0.41260000  1.0 -0.0122324666
C  C203  1  0.16556000  0.18218000  0.08740000  1.0 -0.0122324666
C  C204  1  0.08740000  0.16556000  0.18218000  1.0 -0.0122324666
C  C205  1  0.16556000  0.08740000  0.56486000  1.0 -0.0122324666
C  C206  1  0.56486000  0.08740000  0.18218000  1.0 -0.0122324666
C  C207  1  0.18218000  0.56486000  0.08740000  1.0 -0.0122324666
C  C208  1  0.18218000  0.16556000  0.56486000  1.0 -0.0122324666
C  C209  1  0.08740000  0.56486000  0.16556000  1.0 -0.0122324666
C  C210  1  0.56486000  0.18218000  0.16556000  1.0 -0.0122324666
C  C211  1  0.31782000  0.41260000  0.93514000  1.0 -0.0122324666
C  C212  1  0.41260000  0.31782000  0.33444000  1.0 -0.0122324666
C  C213  1  0.93514000  0.41260000  0.33444000  1.0 -0.0122324666
C  C214  1  0.31782000  0.33444000  0.41260000  1.0 -0.0122324666
C  C215  1  0.31782000  0.93514000  0.33444000  1.0 -0.0122324666
C  C216  1  0.33444000  0.41260000  0.31782000  1.0 -0.0122324666
C  C217  1  0.81782000  0.91260000  0.83444000  1.0 -0.0122324666
C  C218  1  0.06486000  0.66556000  0.68218000  1.0 -0.0122324666
C  C219  1  0.91260000  0.81782000  0.43514000  1.0 -0.0122324666
C  C220  1  0.66556000  0.06486000  0.58740000  1.0 -0.0122324666
C  C221  1  0.58740000  0.06486000  0.68218000  1.0 -0.0122324666
C  C222  1  0.43514000  0.83444000  0.91260000  1.0 -0.0122324666
C  C223  1  0.66556000  0.68218000  0.06486000  1.0 -0.0122324666
C  C224  1  0.58740000  0.66556000  0.06486000  1.0 -0.0122324666
C  C225  1  0.83444000  0.43514000  0.81782000  1.0 -0.0122324666
C  C226  1  0.06486000  0.68218000  0.58740000  1.0 -0.0122324666
C  C227  1  0.83444000  0.81782000  0.91260000  1.0 -0.0122324666
C  C228  1  0.91260000  0.83444000  0.81782000  1.0 -0.0122324666
C  C229  1  0.83444000  0.91260000  0.43514000  1.0 -0.0122324666
C  C230  1  0.43514000  0.91260000  0.81782000  1.0 -0.0122324666
C  C231  1  0.81782000  0.43514000  0.91260000  1.0 -0.0122324666
C  C232  1  0.81782000  0.83444000  0.43514000  1.0 -0.0122324666
C  C233  1  0.91260000  0.43514000  0.83444000  1.0 -0.0122324666
C  C234  1  0.43514000  0.81782000  0.83444000  1.0 -0.0122324666
C  C235  1  0.68218000  0.58740000  0.06486000  1.0 -0.0122324666
C  C236  1  0.58740000  0.68218000  0.66556000  1.0 -0.0122324666
C  C237  1  0.06486000  0.58740000  0.66556000  1.0 -0.0122324666
C  C238  1  0.68218000  0.66556000  0.58740000  1.0 -0.0122324666
C  C239  1  0.68218000  0.06486000  0.66556000  1.0 -0.0122324666
C  C240  1  0.66556000  0.58740000  0.68218000  1.0 -0.0122324666
S  S1  1  0.23378000  0.01920000  0.18376000  1.0 0.1276866415
S  S2  1  0.93674000  0.31624000  0.26622000  1.0 0.1276866415
S  S3  1  0.01920000  0.23378000  0.56326000  1.0 0.1276866415
S  S4  1  0.31624000  0.93674000  0.48080000  1.0 0.1276866415
S  S5  1  0.48080000  0.93674000  0.26622000  1.0 0.1276866415
S  S6  1  0.56326000  0.18376000  0.01920000  1.0 0.1276866415
S  S7  1  0.31624000  0.26622000  0.93674000  1.0 0.1276866415
S  S8  1  0.48080000  0.31624000  0.93674000  1.0 0.1276866415
S  S9  1  0.18376000  0.56326000  0.23378000  1.0 0.1276866415
S  S10  1  0.93674000  0.26622000  0.48080000  1.0 0.1276866415
S  S11  1  0.18376000  0.23378000  0.01920000  1.0 0.1276866415
S  S12  1  0.01920000  0.18376000  0.23378000  1.0 0.1276866415
S  S13  1  0.18376000  0.01920000  0.56326000  1.0 0.1276866415
S  S14  1  0.56326000  0.01920000  0.23378000  1.0 0.1276866415
S  S15  1  0.23378000  0.56326000  0.01920000  1.0 0.1276866415
S  S16  1  0.23378000  0.18376000  0.56326000  1.0 0.1276866415
S  S17  1  0.01920000  0.56326000  0.18376000  1.0 0.1276866415
S  S18  1  0.56326000  0.23378000  0.18376000  1.0 0.1276866415
S  S19  1  0.26622000  0.48080000  0.93674000  1.0 0.1276866415
S  S20  1  0.48080000  0.26622000  0.31624000  1.0 0.1276866415
S  S21  1  0.93674000  0.48080000  0.31624000  1.0 0.1276866415
S  S22  1  0.26622000  0.31624000  0.48080000  1.0 0.1276866415
S  S23  1  0.26622000  0.93674000  0.31624000  1.0 0.1276866415
S  S24  1  0.31624000  0.48080000  0.26622000  1.0 0.1276866415
S  S25  1  0.76622000  0.98080000  0.81624000  1.0 0.1276866415
S  S26  1  0.06326000  0.68376000  0.73378000  1.0 0.1276866415
S  S27  1  0.98080000  0.76622000  0.43674000  1.0 0.1276866415
S  S28  1  0.68376000  0.06326000  0.51920000  1.0 0.1276866415
S  S29  1  0.51920000  0.06326000  0.73378000  1.0 0.1276866415
S  S30  1  0.43674000  0.81624000  0.98080000  1.0 0.1276866415
S  S31  1  0.68376000  0.73378000  0.06326000  1.0 0.1276866415
S  S32  1  0.51920000  0.68376000  0.06326000  1.0 0.1276866415
S  S33  1  0.81624000  0.43674000  0.76622000  1.0 0.1276866415
S  S34  1  0.06326000  0.73378000  0.51920000  1.0 0.1276866415
S  S35  1  0.81624000  0.76622000  0.98080000  1.0 0.1276866415
S  S36  1  0.98080000  0.81624000  0.76622000  1.0 0.1276866415
S  S37  1  0.81624000  0.98080000  0.43674000  1.0 0.1276866415
S  S38  1  0.43674000  0.98080000  0.76622000  1.0 0.1276866415
S  S39  1  0.76622000  0.43674000  0.98080000  1.0 0.1276866415
S  S40  1  0.76622000  0.81624000  0.43674000  1.0 0.1276866415
S  S41  1  0.98080000  0.43674000  0.81624000  1.0 0.1276866415
S  S42  1  0.43674000  0.76622000  0.81624000  1.0 0.1276866415
S  S43  1  0.73378000  0.51920000  0.06326000  1.0 0.1276866415
S  S44  1  0.51920000  0.73378000  0.68376000  1.0 0.1276866415
S  S45  1  0.06326000  0.51920000  0.68376000  1.0 0.1276866415
S  S46  1  0.73378000  0.68376000  0.51920000  1.0 0.1276866415
S  S47  1  0.73378000  0.06326000  0.68376000  1.0 0.1276866415
S  S48  1  0.68376000  0.51920000  0.73378000  1.0 0.1276866415
O  O1  1  0.38782000  0.01448000  0.05716000  1.0 -0.577260655
O  O2  1  0.95946000  0.44284000  0.11218000  1.0 -0.577260655
O  O3  1  0.01448000  0.38782000  0.54054000  1.0 -0.577260655
O  O4  1  0.44284000  0.95946000  0.48552000  1.0 -0.577260655
O  O5  1  0.48552000  0.95946000  0.11218000  1.0 -0.577260655
O  O6  1  0.54054000  0.05716000  0.01448000  1.0 -0.577260655
O  O7  1  0.44284000  0.11218000  0.95946000  1.0 -0.577260655
O  O8  1  0.48552000  0.44284000  0.95946000  1.0 -0.577260655
O  O9  1  0.05716000  0.54054000  0.38782000  1.0 -0.577260655
O  O10  1  0.95946000  0.11218000  0.48552000  1.0 -0.577260655
O  O11  1  0.05716000  0.38782000  0.01448000  1.0 -0.577260655
O  O12  1  0.01448000  0.05716000  0.38782000  1.0 -0.577260655
O  O13  1  0.05716000  0.01448000  0.54054000  1.0 -0.577260655
O  O14  1  0.54054000  0.01448000  0.38782000  1.0 -0.577260655
O  O15  1  0.38782000  0.54054000  0.01448000  1.0 -0.577260655
O  O16  1  0.38782000  0.05716000  0.54054000  1.0 -0.577260655
O  O17  1  0.01448000  0.54054000  0.05716000  1.0 -0.577260655
O  O18  1  0.54054000  0.38782000  0.05716000  1.0 -0.577260655
O  O19  1  0.11218000  0.48552000  0.95946000  1.0 -0.577260655
O  O20  1  0.48552000  0.11218000  0.44284000  1.0 -0.577260655
O  O21  1  0.95946000  0.48552000  0.44284000  1.0 -0.577260655
O  O22  1  0.11218000  0.44284000  0.48552000  1.0 -0.577260655
O  O23  1  0.11218000  0.95946000  0.44284000  1.0 -0.577260655
O  O24  1  0.44284000  0.48552000  0.11218000  1.0 -0.577260655
O  O25  1  0.61218000  0.98552000  0.94284000  1.0 -0.577260655
O  O26  1  0.04054000  0.55716000  0.88782000  1.0 -0.577260655
O  O27  1  0.98552000  0.61218000  0.45946000  1.0 -0.577260655
O  O28  1  0.55716000  0.04054000  0.51448000  1.0 -0.577260655
O  O29  1  0.51448000  0.04054000  0.88782000  1.0 -0.577260655
O  O30  1  0.45946000  0.94284000  0.98552000  1.0 -0.577260655
O  O31  1  0.55716000  0.88782000  0.04054000  1.0 -0.577260655
O  O32  1  0.51448000  0.55716000  0.04054000  1.0 -0.577260655
O  O33  1  0.94284000  0.45946000  0.61218000  1.0 -0.577260655
O  O34  1  0.04054000  0.88782000  0.51448000  1.0 -0.577260655
O  O35  1  0.94284000  0.61218000  0.98552000  1.0 -0.577260655
O  O36  1  0.98552000  0.94284000  0.61218000  1.0 -0.577260655
O  O37  1  0.94284000  0.98552000  0.45946000  1.0 -0.577260655
O  O38  1  0.45946000  0.98552000  0.61218000  1.0 -0.577260655
O  O39  1  0.61218000  0.45946000  0.98552000  1.0 -0.577260655
O  O40  1  0.61218000  0.94284000  0.45946000  1.0 -0.577260655
O  O41  1  0.98552000  0.45946000  0.94284000  1.0 -0.577260655
O  O42  1  0.45946000  0.61218000  0.94284000  1.0 -0.577260655
O  O43  1  0.88782000  0.51448000  0.04054000  1.0 -0.577260655
O  O44  1  0.51448000  0.88782000  0.55716000  1.0 -0.577260655
O  O45  1  0.04054000  0.51448000  0.55716000  1.0 -0.577260655
O  O46  1  0.88782000  0.55716000  0.51448000  1.0 -0.577260655
O  O47  1  0.88782000  0.04054000  0.55716000  1.0 -0.577260655
O  O48  1  0.55716000  0.51448000  0.88782000  1.0 -0.577260655
O  O49  1  0.35718000  0.94602000  0.14044000  1.0 -0.5359505234
O  O50  1  0.94364000  0.35956000  0.14282000  1.0 -0.5359505234
O  O51  1  0.94602000  0.35718000  0.55636000  1.0 -0.5359505234
O  O52  1  0.35956000  0.94364000  0.55398000  1.0 -0.5359505234
O  O53  1  0.55398000  0.94364000  0.14282000  1.0 -0.5359505234
O  O54  1  0.55636000  0.14044000  0.94602000  1.0 -0.5359505234
O  O55  1  0.35956000  0.14282000  0.94364000  1.0 -0.5359505234
O  O56  1  0.55398000  0.35956000  0.94364000  1.0 -0.5359505234
O  O57  1  0.14044000  0.55636000  0.35718000  1.0 -0.5359505234
O  O58  1  0.94364000  0.14282000  0.55398000  1.0 -0.5359505234
O  O59  1  0.14044000  0.35718000  0.94602000  1.0 -0.5359505234
O  O60  1  0.94602000  0.14044000  0.35718000  1.0 -0.5359505234
O  O61  1  0.14044000  0.94602000  0.55636000  1.0 -0.5359505234
O  O62  1  0.55636000  0.94602000  0.35718000  1.0 -0.5359505234
O  O63  1  0.35718000  0.55636000  0.94602000  1.0 -0.5359505234
O  O64  1  0.35718000  0.14044000  0.55636000  1.0 -0.5359505234
O  O65  1  0.94602000  0.55636000  0.14044000  1.0 -0.5359505234
O  O66  1  0.55636000  0.35718000  0.14044000  1.0 -0.5359505234
O  O67  1  0.14282000  0.55398000  0.94364000  1.0 -0.5359505234
O  O68  1  0.55398000  0.14282000  0.35956000  1.0 -0.5359505234
O  O69  1  0.94364000  0.55398000  0.35956000  1.0 -0.5359505234
O  O70  1  0.14282000  0.35956000  0.55398000  1.0 -0.5359505234
O  O71  1  0.14282000  0.94364000  0.35956000  1.0 -0.5359505234
O  O72  1  0.35956000  0.55398000  0.14282000  1.0 -0.5359505234
O  O73  1  0.64282000  0.05398000  0.85956000  1.0 -0.5359505234
O  O74  1  0.05636000  0.64044000  0.85718000  1.0 -0.5359505234
O  O75  1  0.05398000  0.64282000  0.44364000  1.0 -0.5359505234
O  O76  1  0.64044000  0.05636000  0.44602000  1.0 -0.5359505234
O  O77  1  0.44602000  0.05636000  0.85718000  1.0 -0.5359505234
O  O78  1  0.44364000  0.85956000  0.05398000  1.0 -0.5359505234
O  O79  1  0.64044000  0.85718000  0.05636000  1.0 -0.5359505234
O  O80  1  0.44602000  0.64044000  0.05636000  1.0 -0.5359505234
O  O81  1  0.85956000  0.44364000  0.64282000  1.0 -0.5359505234
O  O82  1  0.05636000  0.85718000  0.44602000  1.0 -0.5359505234
O  O83  1  0.85956000  0.64282000  0.05398000  1.0 -0.5359505234
O  O84  1  0.05398000  0.85956000  0.64282000  1.0 -0.5359505234
O  O85  1  0.85956000  0.05398000  0.44364000  1.0 -0.5359505234
O  O86  1  0.44364000  0.05398000  0.64282000  1.0 -0.5359505234
O  O87  1  0.64282000  0.44364000  0.05398000  1.0 -0.5359505234
O  O88  1  0.64282000  0.85956000  0.44364000  1.0 -0.5359505234
O  O89  1  0.05398000  0.44364000  0.85956000  1.0 -0.5359505234
O  O90  1  0.44364000  0.64282000  0.85956000  1.0 -0.5359505234
O  O91  1  0.85718000  0.44602000  0.05636000  1.0 -0.5359505234
O  O92  1  0.44602000  0.85718000  0.64044000  1.0 -0.5359505234
O  O93  1  0.05636000  0.44602000  0.64044000  1.0 -0.5359505234
O  O94  1  0.85718000  0.64044000  0.44602000  1.0 -0.5359505234
O  O95  1  0.85718000  0.05636000  0.64044000  1.0 -0.5359505234
O  O96  1  0.64044000  0.44602000  0.85718000  1.0 -0.5359505234
