# DDEC6 charges by PACMAN v1.1 (https://github.com/mtap-research/PACMAN-charge/)
data_QAHDUA_FSR_pacman
_symmetry_space_group_name_H-M   'P 1'
_cell_length_a   41.28800000
_cell_length_b   41.28800000
_cell_length_c   17.54020000
_cell_angle_alpha   90.00000000
_cell_angle_beta   90.00000000
_cell_angle_gamma   120.00000000
_symmetry_Int_Tables_number   1
_chemical_formula_structural   Zn4C61O15
_chemical_formula_sum   'Zn24 C366 O90'
_cell_volume   25894.81811407
_cell_formula_units_Z   6
loop_
 _symmetry_equiv_pos_site_id
 _symmetry_equiv_pos_as_xyz
  1  'x, y, z'
loop_
 _atom_site_type_symbol
 _atom_site_label
 _atom_site_symmetry_multiplicity
 _atom_site_fract_x
 _atom_site_fract_y
 _atom_site_fract_z
 _atom_site_occupancy
 _atom_site_charge
Zn  Zn1  1  0.37192000  0.40083000  0.33952000  1.0 0.9608573337
Zn  Zn2  1  0.59917000  0.97109000  0.33952000  1.0 0.9608573337
Zn  Zn3  1  0.02891000  0.62808000  0.33952000  1.0 0.9608573337
Zn  Zn4  1  0.62808000  0.59917000  0.83952000  1.0 0.9608573337
Zn  Zn5  1  0.40083000  0.02891000  0.83952000  1.0 0.9608573337
Zn  Zn6  1  0.97109000  0.37192000  0.83952000  1.0 0.9608573337
Zn  Zn7  1  0.62808000  0.59917000  0.66048000  1.0 0.9608573337
Zn  Zn8  1  0.40083000  0.02891000  0.66048000  1.0 0.9608573337
Zn  Zn9  1  0.97109000  0.37192000  0.66048000  1.0 0.9608573337
Zn  Zn10  1  0.37192000  0.40083000  0.16048000  1.0 0.9608573337
Zn  Zn11  1  0.59917000  0.97109000  0.16048000  1.0 0.9608573337
Zn  Zn12  1  0.02891000  0.62808000  0.16048000  1.0 0.9608573337
Zn  Zn13  1  0.32064000  0.42520000  0.25000000  1.0 0.9608573337
Zn  Zn14  1  0.57480000  0.89544000  0.25000000  1.0 0.9608573337
Zn  Zn15  1  0.10456000  0.67936000  0.25000000  1.0 0.9667771563
Zn  Zn16  1  0.67936000  0.57480000  0.75000000  1.0 0.9667771563
Zn  Zn17  1  0.42520000  0.10456000  0.75000000  1.0 0.9608573337
Zn  Zn18  1  0.89544000  0.32064000  0.75000000  1.0 0.9667771563
Zn  Zn19  1  0.40834000  0.47783000  0.25000000  1.0 0.9608573337
Zn  Zn20  1  0.52217000  0.93051000  0.25000000  1.0 0.9608573337
Zn  Zn21  1  0.06949000  0.59166000  0.25000000  1.0 0.9608573337
Zn  Zn22  1  0.59166000  0.52217000  0.75000000  1.0 0.9608573337
Zn  Zn23  1  0.47783000  0.06949000  0.75000000  1.0 0.9608573337
Zn  Zn24  1  0.93051000  0.40834000  0.75000000  1.0 0.9608573337
C  C1  1  0.30262000  0.39241000  0.09961000  1.0 0.6304334457
C  C2  1  0.60759000  0.91021000  0.09961000  1.0 0.6304334457
C  C3  1  0.08979000  0.69738000  0.09961000  1.0 0.6304334457
C  C4  1  0.69738000  0.60759000  0.59961000  1.0 0.6304334457
C  C5  1  0.39241000  0.08979000  0.59961000  1.0 0.6304334457
C  C6  1  0.91021000  0.30262000  0.59961000  1.0 0.6304334457
C  C7  1  0.69738000  0.60759000  0.90039000  1.0 0.6304334457
C  C8  1  0.39241000  0.08979000  0.90039000  1.0 0.6304334457
C  C9  1  0.91021000  0.30262000  0.90039000  1.0 0.6304334457
C  C10  1  0.30262000  0.39241000  0.40039000  1.0 0.6304334457
C  C11  1  0.60759000  0.91021000  0.40039000  1.0 0.6304334457
C  C12  1  0.08979000  0.69738000  0.40039000  1.0 0.6304334457
C  C13  1  0.28082000  0.38738000  0.02766000  1.0 -0.0875463987
C  C14  1  0.61262000  0.89344000  0.02766000  1.0 -0.0875463987
C  C15  1  0.10656000  0.71918000  0.02766000  1.0 -0.0875463987
C  C16  1  0.71918000  0.61262000  0.52766000  1.0 -0.0875463987
C  C17  1  0.38738000  0.10656000  0.52766000  1.0 -0.0875463987
C  C18  1  0.89344000  0.28082000  0.52766000  1.0 -0.0875463987
C  C19  1  0.71918000  0.61262000  0.97234000  1.0 -0.0875463987
C  C20  1  0.38738000  0.10656000  0.97234000  1.0 -0.0875463987
C  C21  1  0.89344000  0.28082000  0.97234000  1.0 -0.0875463987
C  C22  1  0.28082000  0.38738000  0.47234000  1.0 -0.0875463987
C  C23  1  0.61262000  0.89344000  0.47234000  1.0 -0.0875463987
C  C24  1  0.10656000  0.71918000  0.47234000  1.0 -0.0875463987
C  C25  1  0.28678000  0.37039000  0.96460000  1.0 0.0493133395
C  C26  1  0.62961000  0.91639000  0.96460000  1.0 0.0493133395
C  C27  1  0.08361000  0.71322000  0.96460000  1.0 0.0493133395
C  C28  1  0.71322000  0.62961000  0.46460000  1.0 0.0493133395
C  C29  1  0.37039000  0.08361000  0.46460000  1.0 0.0493133395
C  C30  1  0.91639000  0.28678000  0.46460000  1.0 0.0493133395
C  C31  1  0.71322000  0.62961000  0.03540000  1.0 0.0493133395
C  C32  1  0.37039000  0.08361000  0.03540000  1.0 0.0493133395
C  C33  1  0.91639000  0.28678000  0.03540000  1.0 0.0493133395
C  C34  1  0.28678000  0.37039000  0.53540000  1.0 0.0493133395
C  C35  1  0.62961000  0.91639000  0.53540000  1.0 0.0493133395
C  C36  1  0.08361000  0.71322000  0.53540000  1.0 0.0493133395
C  C37  1  0.26682000  0.36715000  0.89670000  1.0 -0.0376974053
C  C38  1  0.63285000  0.89967000  0.89670000  1.0 -0.0324691584
C  C39  1  0.10033000  0.73318000  0.89670000  1.0 -0.0193992512
C  C40  1  0.73318000  0.63285000  0.39670000  1.0 -0.0324691584
C  C41  1  0.36715000  0.10033000  0.39670000  1.0 -0.0324691584
C  C42  1  0.89967000  0.26682000  0.39670000  1.0 -0.0324691584
C  C43  1  0.73318000  0.63285000  0.10330000  1.0 -0.0324691584
C  C44  1  0.36715000  0.10033000  0.10330000  1.0 -0.0324691584
C  C45  1  0.89967000  0.26682000  0.10330000  1.0 -0.0193992512
C  C46  1  0.26682000  0.36715000  0.60330000  1.0 -0.0376974053
C  C47  1  0.63285000  0.89967000  0.60330000  1.0 -0.0324691584
C  C48  1  0.10033000  0.73318000  0.60330000  1.0 -0.0193992512
C  C49  1  0.24268000  0.38030000  0.89244000  1.0 0.0824962352
C  C50  1  0.61970000  0.86238000  0.89244000  1.0 0.0862847969
C  C51  1  0.13762000  0.75732000  0.89244000  1.0 0.0824962352
C  C52  1  0.75732000  0.61970000  0.39244000  1.0 0.0824962352
C  C53  1  0.38030000  0.13762000  0.39244000  1.0 0.0824962352
C  C54  1  0.86238000  0.24268000  0.39244000  1.0 0.0824962352
C  C55  1  0.75732000  0.61970000  0.10756000  1.0 0.0824962352
C  C56  1  0.38030000  0.13762000  0.10756000  1.0 0.0824962352
C  C57  1  0.86238000  0.24268000  0.10756000  1.0 0.0824962352
C  C58  1  0.24268000  0.38030000  0.60756000  1.0 0.0824962352
C  C59  1  0.61970000  0.86238000  0.60756000  1.0 0.0862847969
C  C60  1  0.13762000  0.75732000  0.60756000  1.0 0.0824962352
C  C61  1  0.23655000  0.39614000  0.95640000  1.0 -0.069943121
C  C62  1  0.60386000  0.84041000  0.95640000  1.0 -0.0794102412
C  C63  1  0.15959000  0.76345000  0.95640000  1.0 -0.0875463987
C  C64  1  0.76345000  0.60386000  0.45640000  1.0 -0.0794102412
C  C65  1  0.39614000  0.15959000  0.45640000  1.0 -0.0794102412
C  C66  1  0.84041000  0.23655000  0.45640000  1.0 -0.0794102412
C  C67  1  0.76345000  0.60386000  0.04360000  1.0 -0.0794102412
C  C68  1  0.39614000  0.15959000  0.04360000  1.0 -0.069943121
C  C69  1  0.84041000  0.23655000  0.04360000  1.0 -0.0794102412
C  C70  1  0.23655000  0.39614000  0.54360000  1.0 -0.069943121
C  C71  1  0.60386000  0.84041000  0.54360000  1.0 -0.0794102412
C  C72  1  0.15959000  0.76345000  0.54360000  1.0 -0.0875463987
C  C73  1  0.25451000  0.39862000  0.02380000  1.0 0.0020054692
C  C74  1  0.60138000  0.85589000  0.02380000  1.0 0.0020054692
C  C75  1  0.14411000  0.74549000  0.02380000  1.0 -0.0021287144
C  C76  1  0.74549000  0.60138000  0.52380000  1.0 -0.0021287144
C  C77  1  0.39862000  0.14411000  0.52380000  1.0 -0.0021287144
C  C78  1  0.85589000  0.25451000  0.52380000  1.0 -0.0021287144
C  C79  1  0.74549000  0.60138000  0.97620000  1.0 -0.0021287144
C  C80  1  0.39862000  0.14411000  0.97620000  1.0 -0.0021287144
C  C81  1  0.85589000  0.25451000  0.97620000  1.0 -0.0021287144
C  C82  1  0.25451000  0.39862000  0.47620000  1.0 0.0020054692
C  C83  1  0.60138000  0.85589000  0.47620000  1.0 0.0020054692
C  C84  1  0.14411000  0.74549000  0.47620000  1.0 -0.0021287144
C  C85  1  0.22318000  0.37755000  0.81905000  1.0 0.0493133395
C  C86  1  0.62245000  0.84563000  0.81905000  1.0 0.0378022172
C  C87  1  0.15437000  0.77682000  0.81905000  1.0 0.0493133395
C  C88  1  0.77682000  0.62245000  0.31905000  1.0 0.0493133395
C  C89  1  0.37755000  0.15437000  0.31905000  1.0 0.0493133395
C  C90  1  0.84563000  0.22318000  0.31905000  1.0 0.0493133395
C  C91  1  0.77682000  0.62245000  0.18095000  1.0 0.0493133395
C  C92  1  0.37755000  0.15437000  0.18095000  1.0 0.0493133395
C  C93  1  0.84563000  0.22318000  0.18095000  1.0 0.0493133395
C  C94  1  0.22318000  0.37755000  0.68095000  1.0 0.0493133395
C  C95  1  0.62245000  0.84563000  0.68095000  1.0 0.0378022172
C  C96  1  0.15437000  0.77682000  0.68095000  1.0 0.0493133395
C  C97  1  0.23994000  0.37760000  0.75000000  1.0 -0.0875463987
C  C98  1  0.62240000  0.86234000  0.75000000  1.0 -0.0794102412
C  C99  1  0.13766000  0.76006000  0.75000000  1.0 -0.098972787
C  C100  1  0.76006000  0.62240000  0.25000000  1.0 -0.098972787
C  C101  1  0.37760000  0.13766000  0.25000000  1.0 -0.0794102412
C  C102  1  0.86234000  0.23994000  0.25000000  1.0 -0.0875463987
C  C103  1  0.18839000  0.37533000  0.82020000  1.0 -0.069943121
C  C104  1  0.62467000  0.81306000  0.82020000  1.0 -0.0504314507
C  C105  1  0.18694000  0.81161000  0.82020000  1.0 -0.069943121
C  C106  1  0.81161000  0.62467000  0.32020000  1.0 -0.0585708933
C  C107  1  0.37533000  0.18694000  0.32020000  1.0 -0.069943121
C  C108  1  0.81306000  0.18839000  0.32020000  1.0 -0.0504314507
C  C109  1  0.81161000  0.62467000  0.17980000  1.0 -0.0585708933
C  C110  1  0.37533000  0.18694000  0.17980000  1.0 -0.069943121
C  C111  1  0.81306000  0.18839000  0.17980000  1.0 -0.0585708933
C  C112  1  0.18839000  0.37533000  0.67980000  1.0 -0.069943121
C  C113  1  0.62467000  0.81306000  0.67980000  1.0 -0.0504314507
C  C114  1  0.18694000  0.81161000  0.67980000  1.0 -0.069943121
C  C115  1  0.17087000  0.37470000  0.75000000  1.0 0.020892334
C  C116  1  0.62530000  0.79617000  0.75000000  1.0 0.020892334
C  C117  1  0.20383000  0.82913000  0.75000000  1.0 0.0266572941
C  C118  1  0.82913000  0.62530000  0.25000000  1.0 0.0378022172
C  C119  1  0.37470000  0.20383000  0.25000000  1.0 0.0378022172
C  C120  1  0.79617000  0.17087000  0.25000000  1.0 0.0378022172
C  C121  1  0.13424000  0.37300000  0.75000000  1.0 0.0493133395
C  C122  1  0.62700000  0.76124000  0.75000000  1.0 0.0493133395
C  C123  1  0.23876000  0.86576000  0.75000000  1.0 0.0578559029
C  C124  1  0.86576000  0.62700000  0.25000000  1.0 0.0493133395
C  C125  1  0.37300000  0.23876000  0.25000000  1.0 0.0578559029
C  C126  1  0.76124000  0.13424000  0.25000000  1.0 0.0578559029
C  C127  1  0.11070000  0.35790000  0.81210000  1.0 -0.0324691584
C  C128  1  0.64210000  0.75280000  0.81210000  1.0 -0.0324691584
C  C129  1  0.24720000  0.88930000  0.81210000  1.0 -0.0193992512
C  C130  1  0.88930000  0.64210000  0.31210000  1.0 -0.0193992512
C  C131  1  0.35790000  0.24720000  0.31210000  1.0 -0.0193992512
C  C132  1  0.75280000  0.11070000  0.31210000  1.0 -0.0193992512
C  C133  1  0.88930000  0.64210000  0.18790000  1.0 -0.0193992512
C  C134  1  0.35790000  0.24720000  0.18790000  1.0 -0.0193992512
C  C135  1  0.75280000  0.11070000  0.18790000  1.0 -0.0193992512
C  C136  1  0.11070000  0.35790000  0.68790000  1.0 -0.0324691584
C  C137  1  0.64210000  0.75280000  0.68790000  1.0 -0.0324691584
C  C138  1  0.24720000  0.88930000  0.68790000  1.0 -0.0324691584
C  C139  1  0.07740000  0.36010000  0.81310000  1.0 0.0493133395
C  C140  1  0.63990000  0.71730000  0.81310000  1.0 0.0493133395
C  C141  1  0.28270000  0.92260000  0.81310000  1.0 0.0378022172
C  C142  1  0.92260000  0.63990000  0.31310000  1.0 0.0493133395
C  C143  1  0.36010000  0.28270000  0.31310000  1.0 0.0493133395
C  C144  1  0.71730000  0.07740000  0.31310000  1.0 0.0493133395
C  C145  1  0.92260000  0.63990000  0.18690000  1.0 0.0493133395
C  C146  1  0.36010000  0.28270000  0.18690000  1.0 0.0493133395
C  C147  1  0.71730000  0.07740000  0.18690000  1.0 0.0493133395
C  C148  1  0.07740000  0.36010000  0.68690000  1.0 0.0493133395
C  C149  1  0.63990000  0.71730000  0.68690000  1.0 0.0493133395
C  C150  1  0.28270000  0.92260000  0.68690000  1.0 0.0378022172
C  C151  1  0.06619000  0.37285000  0.75000000  1.0 -0.0585708933
C  C152  1  0.62715000  0.69334000  0.75000000  1.0 -0.0585708933
C  C153  1  0.30666000  0.93381000  0.75000000  1.0 -0.0585708933
C  C154  1  0.93381000  0.62715000  0.25000000  1.0 -0.0585708933
C  C155  1  0.37285000  0.30666000  0.25000000  1.0 -0.0585708933
C  C156  1  0.69334000  0.06619000  0.25000000  1.0 -0.0585708933
C  C157  1  0.35736000  0.50678000  0.25000000  1.0 0.5862103805
C  C158  1  0.49322000  0.85058000  0.25000000  1.0 0.5862103805
C  C159  1  0.14942000  0.64264000  0.25000000  1.0 0.5862103805
C  C160  1  0.64264000  0.49322000  0.75000000  1.0 0.5862103805
C  C161  1  0.50678000  0.14942000  0.75000000  1.0 0.5862103805
C  C162  1  0.85058000  0.35736000  0.75000000  1.0 0.5841164097
C  C163  1  0.35319000  0.54008000  0.25000000  1.0 -0.0100839783
C  C164  1  0.45992000  0.81311000  0.25000000  1.0 -0.0100839783
C  C165  1  0.18689000  0.64681000  0.25000000  1.0 -0.0100839783
C  C166  1  0.64681000  0.45992000  0.75000000  1.0 -0.0100839783
C  C167  1  0.54008000  0.18689000  0.75000000  1.0 -0.0100839783
C  C168  1  0.81311000  0.35319000  0.75000000  1.0 -0.0100839783
C  C169  1  0.32251000  0.53734000  0.28859000  1.0 -0.069943121
C  C170  1  0.46266000  0.78517000  0.28859000  1.0 -0.069943121
C  C171  1  0.21483000  0.67749000  0.28859000  1.0 -0.069943121
C  C172  1  0.67749000  0.46266000  0.78859000  1.0 -0.069943121
C  C173  1  0.53734000  0.21483000  0.78859000  1.0 -0.069943121
C  C174  1  0.78517000  0.32251000  0.78859000  1.0 -0.069943121
C  C175  1  0.67749000  0.46266000  0.71141000  1.0 -0.069943121
C  C176  1  0.53734000  0.21483000  0.71141000  1.0 -0.069943121
C  C177  1  0.78517000  0.32251000  0.71141000  1.0 -0.069943121
C  C178  1  0.32251000  0.53734000  0.21141000  1.0 -0.069943121
C  C179  1  0.46266000  0.78517000  0.21141000  1.0 -0.069943121
C  C180  1  0.21483000  0.67749000  0.21141000  1.0 -0.069943121
C  C181  1  0.31823000  0.56853000  0.29560000  1.0 0.020892334
C  C182  1  0.43147000  0.74970000  0.29560000  1.0 0.0266572941
C  C183  1  0.25030000  0.68177000  0.29560000  1.0 0.020892334
C  C184  1  0.68177000  0.43147000  0.79560000  1.0 0.0266572941
C  C185  1  0.56853000  0.25030000  0.79560000  1.0 0.0266572941
C  C186  1  0.74970000  0.31823000  0.79560000  1.0 0.0266572941
C  C187  1  0.68177000  0.43147000  0.70440000  1.0 0.020892334
C  C188  1  0.56853000  0.25030000  0.70440000  1.0 0.0266572941
C  C189  1  0.74970000  0.31823000  0.70440000  1.0 0.0266572941
C  C190  1  0.31823000  0.56853000  0.20440000  1.0 0.020892334
C  C191  1  0.43147000  0.74970000  0.20440000  1.0 0.020892334
C  C192  1  0.25030000  0.68177000  0.20440000  1.0 0.020892334
C  C193  1  0.34463000  0.60246000  0.26390000  1.0 0.0726380661
C  C194  1  0.39754000  0.74217000  0.26390000  1.0 0.0726380661
C  C195  1  0.25783000  0.65537000  0.26390000  1.0 0.0726380661
C  C196  1  0.65537000  0.39754000  0.76390000  1.0 0.0824962352
C  C197  1  0.60246000  0.25783000  0.76390000  1.0 0.0726380661
C  C198  1  0.74217000  0.34463000  0.76390000  1.0 0.0824962352
C  C199  1  0.65537000  0.39754000  0.73610000  1.0 0.0824962352
C  C200  1  0.60246000  0.25783000  0.73610000  1.0 0.0726380661
C  C201  1  0.74217000  0.34463000  0.73610000  1.0 0.0824962352
C  C202  1  0.34463000  0.60246000  0.23610000  1.0 0.0726380661
C  C203  1  0.39754000  0.74217000  0.23610000  1.0 0.0726380661
C  C204  1  0.25783000  0.65537000  0.23610000  1.0 0.0726380661
C  C205  1  0.37531000  0.60521000  0.22530000  1.0 -0.0376974053
C  C206  1  0.39479000  0.77010000  0.22530000  1.0 -0.0376974053
C  C207  1  0.22990000  0.62469000  0.22530000  1.0 -0.0376974053
C  C208  1  0.62469000  0.39479000  0.72530000  1.0 -0.0376974053
C  C209  1  0.60521000  0.22990000  0.72530000  1.0 -0.0376974053
C  C210  1  0.77010000  0.37531000  0.72530000  1.0 -0.0376974053
C  C211  1  0.62469000  0.39479000  0.77470000  1.0 -0.0376974053
C  C212  1  0.60521000  0.22990000  0.77470000  1.0 -0.0376974053
C  C213  1  0.77010000  0.37531000  0.77470000  1.0 -0.0376974053
C  C214  1  0.37531000  0.60521000  0.27470000  1.0 -0.0376974053
C  C215  1  0.39479000  0.77010000  0.27470000  1.0 -0.0376974053
C  C216  1  0.22990000  0.62469000  0.27470000  1.0 -0.0376974053
C  C217  1  0.37959000  0.57402000  0.21836000  1.0 0.0020054692
C  C218  1  0.42598000  0.80557000  0.21836000  1.0 0.0020054692
C  C219  1  0.19443000  0.62041000  0.21836000  1.0 0.0020054692
C  C220  1  0.62041000  0.42598000  0.71836000  1.0 0.0081194503
C  C221  1  0.57402000  0.19443000  0.71836000  1.0 0.0081194503
C  C222  1  0.80557000  0.37959000  0.71836000  1.0 0.0020054692
C  C223  1  0.62041000  0.42598000  0.78164000  1.0 0.0081194503
C  C224  1  0.57402000  0.19443000  0.78164000  1.0 0.0081194503
C  C225  1  0.80557000  0.37959000  0.78164000  1.0 0.0020054692
C  C226  1  0.37959000  0.57402000  0.28164000  1.0 0.0020054692
C  C227  1  0.42598000  0.80557000  0.28164000  1.0 0.0020054692
C  C228  1  0.19443000  0.62041000  0.28164000  1.0 0.0020054692
C  C229  1  0.33820000  0.63564000  0.25000000  1.0 0.020892334
C  C230  1  0.36436000  0.70256000  0.25000000  1.0 0.020892334
C  C231  1  0.29744000  0.66180000  0.25000000  1.0 0.020892334
C  C232  1  0.66180000  0.36436000  0.75000000  1.0 0.020892334
C  C233  1  0.63564000  0.29744000  0.75000000  1.0 0.020892334
C  C234  1  0.70256000  0.33820000  0.75000000  1.0 0.020892334
C  C235  1  0.36833000  0.67092000  0.25000000  1.0 -0.0585708933
C  C236  1  0.32908000  0.69741000  0.25000000  1.0 -0.0585708933
C  C237  1  0.30259000  0.63167000  0.25000000  1.0 -0.0585708933
C  C238  1  0.63167000  0.32908000  0.75000000  1.0 -0.0504314507
C  C239  1  0.67092000  0.30259000  0.75000000  1.0 -0.0504314507
C  C240  1  0.69741000  0.36833000  0.75000000  1.0 -0.0504314507
C  C241  1  0.43980000  0.46676000  0.38940000  1.0 0.6304334457
C  C242  1  0.53324000  0.97304000  0.38940000  1.0 0.6304334457
C  C243  1  0.02696000  0.56020000  0.38940000  1.0 0.6304334457
C  C244  1  0.56020000  0.53324000  0.88940000  1.0 0.6304334457
C  C245  1  0.46676000  0.02696000  0.88940000  1.0 0.6304334457
C  C246  1  0.97304000  0.43980000  0.88940000  1.0 0.6304334457
C  C247  1  0.56020000  0.53324000  0.61060000  1.0 0.6304334457
C  C248  1  0.46676000  0.02696000  0.61060000  1.0 0.6304334457
C  C249  1  0.97304000  0.43980000  0.61060000  1.0 0.6304334457
C  C250  1  0.43980000  0.46676000  0.11060000  1.0 0.6304334457
C  C251  1  0.53324000  0.97304000  0.11060000  1.0 0.6304334457
C  C252  1  0.02696000  0.56020000  0.11060000  1.0 0.6304334457
C  C253  1  0.47180000  0.48443000  0.44760000  1.0 -0.0504314507
C  C254  1  0.51557000  0.98737000  0.44760000  1.0 -0.0504314507
C  C255  1  0.01263000  0.52820000  0.44760000  1.0 -0.0504314507
C  C256  1  0.52820000  0.51557000  0.94760000  1.0 -0.0504314507
C  C257  1  0.48443000  0.01263000  0.94760000  1.0 -0.0504314507
C  C258  1  0.98737000  0.47180000  0.94760000  1.0 -0.0504314507
C  C259  1  0.52820000  0.51557000  0.55240000  1.0 -0.0504314507
C  C260  1  0.48443000  0.01263000  0.55240000  1.0 -0.0504314507
C  C261  1  0.98737000  0.47180000  0.55240000  1.0 -0.0504314507
C  C262  1  0.47180000  0.48443000  0.05240000  1.0 -0.0504314507
C  C263  1  0.51557000  0.98737000  0.05240000  1.0 -0.0504314507
C  C264  1  0.01263000  0.52820000  0.05240000  1.0 -0.0504314507
C  C265  1  0.47410000  0.46640000  0.49850000  1.0 -0.0193992512
C  C266  1  0.53360000  0.00770000  0.49850000  1.0 -0.0100839783
C  C267  1  0.99230000  0.52590000  0.49850000  1.0 -0.0193992512
C  C268  1  0.52590000  0.53360000  0.99850000  1.0 -0.0193992512
C  C269  1  0.46640000  0.99230000  0.99850000  1.0 -0.0193992512
C  C270  1  0.00770000  0.47410000  0.99850000  1.0 -0.0193992512
C  C271  1  0.52590000  0.53360000  0.50150000  1.0 -0.0193992512
C  C272  1  0.46640000  0.99230000  0.50150000  1.0 -0.0193992512
C  C273  1  0.00770000  0.47410000  0.50150000  1.0 -0.0193992512
C  C274  1  0.47410000  0.46640000  0.00150000  1.0 -0.0193992512
C  C275  1  0.53360000  0.00770000  0.00150000  1.0 -0.0100839783
C  C276  1  0.99230000  0.52590000  0.00150000  1.0 -0.0193992512
C  C277  1  0.49730000  0.51870000  0.43870000  1.0 0.1102559286
C  C278  1  0.48130000  0.97860000  0.43870000  1.0 0.1102559286
C  C279  1  0.02140000  0.50270000  0.43870000  1.0 0.1102559286
C  C280  1  0.50270000  0.48130000  0.93870000  1.0 0.1102559286
C  C281  1  0.51870000  0.02140000  0.93870000  1.0 0.1102559286
C  C282  1  0.97860000  0.49730000  0.93870000  1.0 0.1102559286
C  C283  1  0.50270000  0.48130000  0.56130000  1.0 0.1102559286
C  C284  1  0.51870000  0.02140000  0.56130000  1.0 0.1102559286
C  C285  1  0.97860000  0.49730000  0.56130000  1.0 0.1102559286
C  C286  1  0.49730000  0.51870000  0.06130000  1.0 0.1102559286
C  C287  1  0.48130000  0.97860000  0.06130000  1.0 0.1102559286
C  C288  1  0.02140000  0.50270000  0.06130000  1.0 0.1102559286
C  C289  1  0.48720000  0.57200000  0.37530000  1.0 0.0578559029
C  C290  1  0.42800000  0.91520000  0.37530000  1.0 0.0726380661
C  C291  1  0.08480000  0.51280000  0.37530000  1.0 0.0578559029
C  C292  1  0.51280000  0.42800000  0.87530000  1.0 0.0493133395
C  C293  1  0.57200000  0.08480000  0.87530000  1.0 0.0493133395
C  C294  1  0.91520000  0.48720000  0.87530000  1.0 0.0493133395
C  C295  1  0.51280000  0.42800000  0.62470000  1.0 0.0493133395
C  C296  1  0.57200000  0.08480000  0.62470000  1.0 0.0493133395
C  C297  1  0.91520000  0.48720000  0.62470000  1.0 0.0493133395
C  C298  1  0.48720000  0.57200000  0.12470000  1.0 0.0578559029
C  C299  1  0.42800000  0.91520000  0.12470000  1.0 0.0726380661
C  C300  1  0.08480000  0.51280000  0.12470000  1.0 0.0578559029
C  C301  1  0.48340000  0.59100000  0.31890000  1.0 -0.0324691584
C  C302  1  0.40900000  0.89240000  0.31890000  1.0 -0.0324691584
C  C303  1  0.10760000  0.51660000  0.31890000  1.0 -0.0324691584
C  C304  1  0.51660000  0.40900000  0.81890000  1.0 -0.0324691584
C  C305  1  0.59100000  0.10760000  0.81890000  1.0 -0.0324691584
C  C306  1  0.89240000  0.48340000  0.81890000  1.0 -0.0376974053
C  C307  1  0.51660000  0.40900000  0.68110000  1.0 -0.0324691584
C  C308  1  0.59100000  0.10760000  0.68110000  1.0 -0.0324691584
C  C309  1  0.89240000  0.48340000  0.68110000  1.0 -0.0376974053
C  C310  1  0.48340000  0.59100000  0.18110000  1.0 -0.0324691584
C  C311  1  0.40900000  0.89240000  0.18110000  1.0 -0.0324691584
C  C312  1  0.10760000  0.51660000  0.18110000  1.0 -0.0324691584
C  C313  1  0.49070000  0.58000000  0.25000000  1.0 -0.0100839783
C  C314  1  0.42000000  0.91070000  0.25000000  1.0 -0.0100839783
C  C315  1  0.08930000  0.50930000  0.25000000  1.0 -0.0100839783
C  C316  1  0.50930000  0.42000000  0.75000000  1.0 -0.0100839783
C  C317  1  0.58000000  0.08930000  0.75000000  1.0 -0.0100839783
C  C318  1  0.91070000  0.49070000  0.75000000  1.0 -0.0100839783
C  C319  1  0.48060000  0.62320000  0.32400000  1.0 -0.0376974053
C  C320  1  0.37680000  0.85740000  0.32400000  1.0 -0.0376974053
C  C321  1  0.14260000  0.51940000  0.32400000  1.0 -0.0376974053
C  C322  1  0.51940000  0.37680000  0.82400000  1.0 -0.0324691584
C  C323  1  0.62320000  0.14260000  0.82400000  1.0 -0.0376974053
C  C324  1  0.85740000  0.48060000  0.82400000  1.0 -0.0324691584
C  C325  1  0.51940000  0.37680000  0.67600000  1.0 -0.0324691584
C  C326  1  0.62320000  0.14260000  0.67600000  1.0 -0.0376974053
C  C327  1  0.85740000  0.48060000  0.67600000  1.0 -0.0324691584
C  C328  1  0.48060000  0.62320000  0.17600000  1.0 -0.0376974053
C  C329  1  0.37680000  0.85740000  0.17600000  1.0 -0.0376974053
C  C330  1  0.14260000  0.51940000  0.17600000  1.0 -0.0376974053
C  C331  1  0.48740000  0.63610000  0.25000000  1.0 -0.0021287144
C  C332  1  0.36390000  0.85130000  0.25000000  1.0 -0.0021287144
C  C333  1  0.14870000  0.51260000  0.25000000  1.0 0.0020054692
C  C334  1  0.51260000  0.36390000  0.75000000  1.0 0.0020054692
C  C335  1  0.63610000  0.14870000  0.75000000  1.0 0.0020054692
C  C336  1  0.85130000  0.48740000  0.75000000  1.0 -0.0021287144
C  C337  1  0.03139000  0.37381000  0.75000000  1.0 0.5608055299
C  C338  1  0.62619000  0.65758000  0.75000000  1.0 0.5608055299
C  C339  1  0.34242000  0.96861000  0.75000000  1.0 0.5608055299
C  C340  1  0.96861000  0.62619000  0.25000000  1.0 0.5608055299
C  C341  1  0.37381000  0.34242000  0.25000000  1.0 0.5608055299
C  C342  1  0.65758000  0.03139000  0.25000000  1.0 0.5608055299
C  C343  1  0.12330000  0.38660000  0.68560000  1.0 0.0266572941
C  C344  1  0.61340000  0.73670000  0.68560000  1.0 0.0378022172
C  C345  1  0.26330000  0.87670000  0.68560000  1.0 0.0266572941
C  C346  1  0.87670000  0.61340000  0.18560000  1.0 0.0378022172
C  C347  1  0.38660000  0.26330000  0.18560000  1.0 0.0378022172
C  C348  1  0.73670000  0.12330000  0.18560000  1.0 0.0378022172
C  C349  1  0.87670000  0.61340000  0.31440000  1.0 0.0378022172
C  C350  1  0.38660000  0.26330000  0.31440000  1.0 0.0378022172
C  C351  1  0.73670000  0.12330000  0.31440000  1.0 0.0378022172
C  C352  1  0.12330000  0.38660000  0.81440000  1.0 0.0266572941
C  C353  1  0.61340000  0.73670000  0.81440000  1.0 0.0378022172
C  C354  1  0.26330000  0.87670000  0.81440000  1.0 0.0266572941
C  C355  1  0.08920000  0.38730000  0.68640000  1.0 0.0020054692
C  C356  1  0.61270000  0.70190000  0.68640000  1.0 0.0081194503
C  C357  1  0.29810000  0.91080000  0.68640000  1.0 0.020892334
C  C358  1  0.91080000  0.61270000  0.18640000  1.0 0.0081194503
C  C359  1  0.38730000  0.29810000  0.18640000  1.0 0.0081194503
C  C360  1  0.70190000  0.08920000  0.18640000  1.0 0.0081194503
C  C361  1  0.91080000  0.61270000  0.31360000  1.0 0.0081194503
C  C362  1  0.38730000  0.29810000  0.31360000  1.0 0.0081194503
C  C363  1  0.70190000  0.08920000  0.31360000  1.0 0.0081194503
C  C364  1  0.08920000  0.38730000  0.81360000  1.0 0.0020054692
C  C365  1  0.61270000  0.70190000  0.81360000  1.0 0.0020054692
C  C366  1  0.29810000  0.91080000  0.81360000  1.0 0.0081194503
O  O1  1  0.36846000  0.42670000  0.25000000  1.0 -1.0519617096
O  O2  1  0.57330000  0.94176000  0.25000000  1.0 -1.0519617096
O  O3  1  0.05824000  0.63154000  0.25000000  1.0 -1.0577220812
O  O4  1  0.63154000  0.57330000  0.75000000  1.0 -1.0577220812
O  O5  1  0.42670000  0.05824000  0.75000000  1.0 -1.0577220812
O  O6  1  0.94176000  0.36846000  0.75000000  1.0 -1.0577220812
O  O7  1  0.29345000  0.40343000  0.15747000  1.0 -0.5306765866
O  O8  1  0.59657000  0.89002000  0.15747000  1.0 -0.5306765866
O  O9  1  0.10998000  0.70655000  0.15747000  1.0 -0.5306765866
O  O10  1  0.70655000  0.59657000  0.65747000  1.0 -0.5306765866
O  O11  1  0.40343000  0.10998000  0.65747000  1.0 -0.5353746906
O  O12  1  0.89002000  0.29345000  0.65747000  1.0 -0.5353746906
O  O13  1  0.70655000  0.59657000  0.84253000  1.0 -0.5306765866
O  O14  1  0.40343000  0.10998000  0.84253000  1.0 -0.5353746906
O  O15  1  0.89002000  0.29345000  0.84253000  1.0 -0.5306765866
O  O16  1  0.29345000  0.40343000  0.34253000  1.0 -0.5306765866
O  O17  1  0.59657000  0.89002000  0.34253000  1.0 -0.5306765866
O  O18  1  0.10998000  0.70655000  0.34253000  1.0 -0.5306765866
O  O19  1  0.33008000  0.38716000  0.09355000  1.0 -0.5306765866
O  O20  1  0.61284000  0.94292000  0.09355000  1.0 -0.5192273666
O  O21  1  0.05708000  0.66992000  0.09355000  1.0 -0.5306765866
O  O22  1  0.66992000  0.61284000  0.59355000  1.0 -0.5306765866
O  O23  1  0.38716000  0.05708000  0.59355000  1.0 -0.5306765866
O  O24  1  0.94292000  0.33008000  0.59355000  1.0 -0.5306765866
O  O25  1  0.66992000  0.61284000  0.90645000  1.0 -0.5306765866
O  O26  1  0.38716000  0.05708000  0.90645000  1.0 -0.5306765866
O  O27  1  0.94292000  0.33008000  0.90645000  1.0 -0.5306765866
O  O28  1  0.33008000  0.38716000  0.40645000  1.0 -0.5306765866
O  O29  1  0.61284000  0.94292000  0.40645000  1.0 -0.5192273666
O  O30  1  0.05708000  0.66992000  0.40645000  1.0 -0.5306765866
O  O31  1  0.01710000  0.37344000  0.68648000  1.0 -0.4750870958
O  O32  1  0.62656000  0.64366000  0.68648000  1.0 -0.4705900691
O  O33  1  0.35634000  0.98290000  0.68648000  1.0 -0.4705900691
O  O34  1  0.98290000  0.62656000  0.18648000  1.0 -0.4705900691
O  O35  1  0.37344000  0.35634000  0.18648000  1.0 -0.4705900691
O  O36  1  0.64366000  0.01710000  0.18648000  1.0 -0.4705900691
O  O37  1  0.98290000  0.62656000  0.31352000  1.0 -0.4705900691
O  O38  1  0.37344000  0.35634000  0.31352000  1.0 -0.4705900691
O  O39  1  0.64366000  0.01710000  0.31352000  1.0 -0.4705900691
O  O40  1  0.01710000  0.37344000  0.81352000  1.0 -0.4705900691
O  O41  1  0.62656000  0.64366000  0.81352000  1.0 -0.4705900691
O  O42  1  0.35634000  0.98290000  0.81352000  1.0 -0.4705900691
O  O43  1  0.41707000  0.43327000  0.39620000  1.0 -0.5106912051
O  O44  1  0.56673000  0.98380000  0.39620000  1.0 -0.5106912051
O  O45  1  0.01620000  0.58293000  0.39620000  1.0 -0.5106912051
O  O46  1  0.58293000  0.56673000  0.89620000  1.0 -0.5106912051
O  O47  1  0.43327000  0.01620000  0.89620000  1.0 -0.5106912051
O  O48  1  0.98380000  0.41707000  0.89620000  1.0 -0.5106912051
O  O49  1  0.58293000  0.56673000  0.60380000  1.0 -0.5106912051
O  O50  1  0.43327000  0.01620000  0.60380000  1.0 -0.5106912051
O  O51  1  0.98380000  0.41707000  0.60380000  1.0 -0.5106912051
O  O52  1  0.41707000  0.43327000  0.10380000  1.0 -0.5106912051
O  O53  1  0.56673000  0.98380000  0.10380000  1.0 -0.5106912051
O  O54  1  0.01620000  0.58293000  0.10380000  1.0 -0.5106912051
O  O55  1  0.43983000  0.48791000  0.33840000  1.0 -0.5192273666
O  O56  1  0.51209000  0.95192000  0.33840000  1.0 -0.5192273666
O  O57  1  0.04808000  0.56017000  0.33840000  1.0 -0.5192273666
O  O58  1  0.56017000  0.51209000  0.83840000  1.0 -0.5192273666
O  O59  1  0.48791000  0.04808000  0.83840000  1.0 -0.5192273666
O  O60  1  0.95192000  0.43983000  0.83840000  1.0 -0.5192273666
O  O61  1  0.56017000  0.51209000  0.66160000  1.0 -0.5192273666
O  O62  1  0.48791000  0.04808000  0.66160000  1.0 -0.5192273666
O  O63  1  0.95192000  0.43983000  0.66160000  1.0 -0.5192273666
O  O64  1  0.43983000  0.48791000  0.16160000  1.0 -0.5192273666
O  O65  1  0.51209000  0.95192000  0.16160000  1.0 -0.5192273666
O  O66  1  0.04808000  0.56017000  0.16160000  1.0 -0.5192273666
O  O67  1  0.38963000  0.51209000  0.25000000  1.0 -0.4611426636
O  O68  1  0.48791000  0.87754000  0.25000000  1.0 -0.4611426636
O  O69  1  0.12246000  0.61037000  0.25000000  1.0 -0.4611426636
O  O70  1  0.61037000  0.48791000  0.75000000  1.0 -0.4611426636
O  O71  1  0.51209000  0.12246000  0.75000000  1.0 -0.4611426636
O  O72  1  0.87754000  0.38963000  0.75000000  1.0 -0.4611426636
O  O73  1  0.32935000  0.47526000  0.25000000  1.0 -0.4705900691
O  O74  1  0.52474000  0.85409000  0.25000000  1.0 -0.4705900691
O  O75  1  0.14591000  0.67065000  0.25000000  1.0 -0.4705900691
O  O76  1  0.67065000  0.52474000  0.75000000  1.0 -0.4705900691
O  O77  1  0.47526000  0.14591000  0.75000000  1.0 -0.4705900691
O  O78  1  0.85409000  0.32935000  0.75000000  1.0 -0.4705900691
O  O79  1  0.50630000  0.54950000  0.35850000  1.0 -0.1524408117
O  O80  1  0.45050000  0.95680000  0.35850000  1.0 -0.1588805511
O  O81  1  0.04320000  0.49370000  0.35850000  1.0 -0.1524408117
O  O82  1  0.49370000  0.45050000  0.85850000  1.0 -0.1524408117
O  O83  1  0.54950000  0.04320000  0.85850000  1.0 -0.1524408117
O  O84  1  0.95680000  0.50630000  0.85850000  1.0 -0.1524408117
O  O85  1  0.49370000  0.45050000  0.64150000  1.0 -0.1524408117
O  O86  1  0.54950000  0.04320000  0.64150000  1.0 -0.1524408117
O  O87  1  0.95680000  0.50630000  0.64150000  1.0 -0.1524408117
O  O88  1  0.50630000  0.54950000  0.14150000  1.0 -0.1524408117
O  O89  1  0.45050000  0.95680000  0.14150000  1.0 -0.1588805511
O  O90  1  0.04320000  0.49370000  0.14150000  1.0 -0.1524408117
