# DDEC6 charges by PACMAN v1.1 (https://github.com/mtap-research/PACMAN-charge/)
data_QAJJOD02_FSR_pacman
_symmetry_space_group_name_H-M   'P 1'
_cell_length_a   19.01430000
_cell_length_b   19.01430000
_cell_length_c   19.01430000
_cell_angle_alpha   60.00000000
_cell_angle_beta   60.00000000
_cell_angle_gamma   60.00000000
_symmetry_Int_Tables_number   1
_chemical_formula_structural   Zr3(C9O2)10
_chemical_formula_sum   'Zr6 C180 O40'
_cell_volume   4861.00454822
_cell_formula_units_Z   2
loop_
 _symmetry_equiv_pos_site_id
 _symmetry_equiv_pos_as_xyz
  1  'x, y, z'
loop_
 _atom_site_type_symbol
 _atom_site_label
 _atom_site_symmetry_multiplicity
 _atom_site_fract_x
 _atom_site_fract_y
 _atom_site_fract_z
 _atom_site_occupancy
 _atom_site_charge
Zr  Zr1  1  0.40792000  0.59208000  0.59208000  1.0 2.0027887901
Zr  Zr2  1  0.59208000  0.40792000  0.40792000  1.0 2.0027887901
Zr  Zr3  1  0.59208000  0.59208000  0.40792000  1.0 2.0027887901
Zr  Zr4  1  0.40792000  0.40792000  0.59208000  1.0 2.0027887901
Zr  Zr5  1  0.59208000  0.40792000  0.59208000  1.0 2.0027887901
Zr  Zr6  1  0.40792000  0.59208000  0.40792000  1.0 2.0027887901
C  C1  1  0.57340000  0.90920000  0.45500000  1.0 0.009296005
C  C2  1  0.66920000  0.78160000  0.40160000  1.0 0.0243565063
C  C3  1  0.57450000  0.83610000  0.45390000  1.0 -0.0072393696
C  C4  1  0.45500000  0.06240000  0.57340000  1.0 0.0040393065
C  C5  1  0.40160000  0.14760000  0.66920000  1.0 0.030135034
C  C6  1  0.45390000  0.13550000  0.57450000  1.0 -0.0072393696
C  C7  1  0.90920000  0.57340000  0.06240000  1.0 0.009296005
C  C8  1  0.78160000  0.66920000  0.14760000  1.0 0.0243565063
C  C9  1  0.83610000  0.57450000  0.13550000  1.0 -0.0072393696
C  C10  1  0.06240000  0.45500000  0.90920000  1.0 0.0040393065
C  C11  1  0.14760000  0.40160000  0.78160000  1.0 0.030135034
C  C12  1  0.13550000  0.45390000  0.83610000  1.0 -0.0072393696
C  C13  1  0.90920000  0.45500000  0.57340000  1.0 0.009296005
C  C14  1  0.78160000  0.40160000  0.66920000  1.0 0.030135034
C  C15  1  0.83610000  0.45390000  0.57450000  1.0 -0.0072393696
C  C16  1  0.06240000  0.57340000  0.45500000  1.0 0.009296005
C  C17  1  0.14760000  0.66920000  0.40160000  1.0 0.030135034
C  C18  1  0.13550000  0.57450000  0.45390000  1.0 -0.0072393696
C  C19  1  0.57340000  0.06240000  0.90920000  1.0 0.009296005
C  C20  1  0.66920000  0.14760000  0.78160000  1.0 0.030135034
C  C21  1  0.57450000  0.13550000  0.83610000  1.0 -0.0072393696
C  C22  1  0.45500000  0.90920000  0.06240000  1.0 0.009296005
C  C23  1  0.40160000  0.78160000  0.14760000  1.0 0.0243565063
C  C24  1  0.45390000  0.83610000  0.13550000  1.0 -0.0072393696
C  C25  1  0.45500000  0.57340000  0.90920000  1.0 0.009296005
C  C26  1  0.40160000  0.66920000  0.78160000  1.0 0.030135034
C  C27  1  0.45390000  0.57450000  0.83610000  1.0 -0.0072393696
C  C28  1  0.57340000  0.45500000  0.06240000  1.0 0.0040393065
C  C29  1  0.66920000  0.40160000  0.14760000  1.0 0.030135034
C  C30  1  0.57450000  0.45390000  0.13550000  1.0 -0.0072393696
C  C31  1  0.06240000  0.90920000  0.57340000  1.0 0.009296005
C  C32  1  0.14760000  0.78160000  0.66920000  1.0 0.030135034
C  C33  1  0.13550000  0.83610000  0.57450000  1.0 -0.0072393696
C  C34  1  0.90920000  0.06240000  0.45500000  1.0 0.0040393065
C  C35  1  0.78160000  0.14760000  0.40160000  1.0 0.030135034
C  C36  1  0.83610000  0.13550000  0.45390000  1.0 -0.0072393696
C  C37  1  0.42660000  0.93760000  0.54500000  1.0 0.009296005
C  C38  1  0.33080000  0.85240000  0.59840000  1.0 0.030135034
C  C39  1  0.42550000  0.86450000  0.54610000  1.0 -0.0072393696
C  C40  1  0.54500000  0.09080000  0.42660000  1.0 0.009296005
C  C41  1  0.59840000  0.21840000  0.33080000  1.0 0.030135034
C  C42  1  0.54610000  0.16390000  0.42550000  1.0 -0.0072393696
C  C43  1  0.09080000  0.54500000  0.93760000  1.0 0.0040393065
C  C44  1  0.21840000  0.59840000  0.85240000  1.0 0.030135034
C  C45  1  0.16390000  0.54610000  0.86450000  1.0 -0.0072393696
C  C46  1  0.93760000  0.42660000  0.09080000  1.0 0.009296005
C  C47  1  0.85240000  0.33080000  0.21840000  1.0 0.030135034
C  C48  1  0.86450000  0.42550000  0.16390000  1.0 -0.0072393696
C  C49  1  0.09080000  0.93760000  0.42660000  1.0 0.0040393065
C  C50  1  0.21840000  0.85240000  0.33080000  1.0 0.0243565063
C  C51  1  0.16390000  0.86450000  0.42550000  1.0 -0.0072393696
C  C52  1  0.93760000  0.09080000  0.54500000  1.0 0.0040393065
C  C53  1  0.85240000  0.21840000  0.59840000  1.0 0.030135034
C  C54  1  0.86450000  0.16390000  0.54610000  1.0 -0.0072393696
C  C55  1  0.42660000  0.54500000  0.09080000  1.0 0.0040393065
C  C56  1  0.33080000  0.59840000  0.21840000  1.0 0.0243565063
C  C57  1  0.42550000  0.54610000  0.16390000  1.0 -0.0072393696
C  C58  1  0.54500000  0.42660000  0.93760000  1.0 0.009296005
C  C59  1  0.59840000  0.33080000  0.85240000  1.0 0.030135034
C  C60  1  0.54610000  0.42550000  0.86450000  1.0 -0.0072393696
C  C61  1  0.54500000  0.93760000  0.09080000  1.0 0.0040393065
C  C62  1  0.59840000  0.85240000  0.21840000  1.0 0.030135034
C  C63  1  0.54610000  0.86450000  0.16390000  1.0 -0.0072393696
C  C64  1  0.42660000  0.09080000  0.93760000  1.0 0.0040393065
C  C65  1  0.33080000  0.21840000  0.85240000  1.0 0.030135034
C  C66  1  0.42550000  0.16390000  0.86450000  1.0 -0.0072393696
C  C67  1  0.93760000  0.54500000  0.42660000  1.0 0.009296005
C  C68  1  0.85240000  0.59840000  0.33080000  1.0 0.030135034
C  C69  1  0.86450000  0.54610000  0.42550000  1.0 -0.0072393696
C  C70  1  0.09080000  0.42660000  0.54500000  1.0 0.0040393065
C  C71  1  0.21840000  0.33080000  0.59840000  1.0 0.030135034
C  C72  1  0.16390000  0.42550000  0.54610000  1.0 -0.0072393696
C  C73  1  0.42660000  0.09080000  0.54500000  1.0 0.0040393065
C  C74  1  0.33080000  0.21840000  0.59840000  1.0 0.030135034
C  C75  1  0.42550000  0.16390000  0.54610000  1.0 -0.0072393696
C  C76  1  0.54500000  0.93760000  0.42660000  1.0 0.009296005
C  C77  1  0.59840000  0.85240000  0.33080000  1.0 0.030135034
C  C78  1  0.54610000  0.86450000  0.42550000  1.0 -0.0072393696
C  C79  1  0.09080000  0.42660000  0.93760000  1.0 0.009296005
C  C80  1  0.21840000  0.33080000  0.85240000  1.0 0.030135034
C  C81  1  0.16390000  0.42550000  0.86450000  1.0 -0.0072393696
C  C82  1  0.93760000  0.54500000  0.09080000  1.0 0.0040393065
C  C83  1  0.85240000  0.59840000  0.21840000  1.0 0.030135034
C  C84  1  0.86450000  0.54610000  0.16390000  1.0 -0.0072393696
C  C85  1  0.09080000  0.54500000  0.42660000  1.0 0.009296005
C  C86  1  0.21840000  0.59840000  0.33080000  1.0 0.030135034
C  C87  1  0.16390000  0.54610000  0.42550000  1.0 -0.0072393696
C  C88  1  0.93760000  0.42660000  0.54500000  1.0 0.0040393065
C  C89  1  0.85240000  0.33080000  0.59840000  1.0 0.030135034
C  C90  1  0.86450000  0.42550000  0.54610000  1.0 -0.0072393696
C  C91  1  0.42660000  0.93760000  0.09080000  1.0 0.009296005
C  C92  1  0.33080000  0.85240000  0.21840000  1.0 0.0243565063
C  C93  1  0.42550000  0.86450000  0.16390000  1.0 -0.0072393696
C  C94  1  0.54500000  0.09080000  0.93760000  1.0 0.009296005
C  C95  1  0.59840000  0.21840000  0.85240000  1.0 0.030135034
C  C96  1  0.54610000  0.16390000  0.86450000  1.0 -0.0072393696
C  C97  1  0.54500000  0.42660000  0.09080000  1.0 0.0040393065
C  C98  1  0.59840000  0.33080000  0.21840000  1.0 0.030135034
C  C99  1  0.54610000  0.42550000  0.16390000  1.0 -0.0072393696
C  C100  1  0.42660000  0.54500000  0.93760000  1.0 0.009296005
C  C101  1  0.33080000  0.59840000  0.85240000  1.0 0.030135034
C  C102  1  0.42550000  0.54610000  0.86450000  1.0 -0.0072393696
C  C103  1  0.93760000  0.09080000  0.42660000  1.0 0.009296005
C  C104  1  0.85240000  0.21840000  0.33080000  1.0 0.030135034
C  C105  1  0.86450000  0.16390000  0.42550000  1.0 -0.0072393696
C  C106  1  0.09080000  0.93760000  0.54500000  1.0 0.009296005
C  C107  1  0.21840000  0.85240000  0.59840000  1.0 0.030135034
C  C108  1  0.16390000  0.86450000  0.54610000  1.0 -0.0072393696
C  C109  1  0.57340000  0.06240000  0.45500000  1.0 0.009296005
C  C110  1  0.66920000  0.14760000  0.40160000  1.0 0.030135034
C  C111  1  0.57450000  0.13550000  0.45390000  1.0 -0.0072393696
C  C112  1  0.45500000  0.90920000  0.57340000  1.0 0.009296005
C  C113  1  0.40160000  0.78160000  0.66920000  1.0 0.030135034
C  C114  1  0.45390000  0.83610000  0.57450000  1.0 -0.0072393696
C  C115  1  0.90920000  0.45500000  0.06240000  1.0 0.0040393065
C  C116  1  0.78160000  0.40160000  0.14760000  1.0 0.030135034
C  C117  1  0.83610000  0.45390000  0.13550000  1.0 -0.004383653
C  C118  1  0.06240000  0.57340000  0.90920000  1.0 0.0040393065
C  C119  1  0.14760000  0.66920000  0.78160000  1.0 0.030135034
C  C120  1  0.13550000  0.57450000  0.83610000  1.0 -0.0072393696
C  C121  1  0.90920000  0.06240000  0.57340000  1.0 0.009296005
C  C122  1  0.78160000  0.14760000  0.66920000  1.0 0.030135034
C  C123  1  0.83610000  0.13550000  0.57450000  1.0 -0.0072393696
C  C124  1  0.06240000  0.90920000  0.45500000  1.0 0.009296005
C  C125  1  0.14760000  0.78160000  0.40160000  1.0 0.030135034
C  C126  1  0.13550000  0.83610000  0.45390000  1.0 -0.0072393696
C  C127  1  0.57340000  0.45500000  0.90920000  1.0 0.0040393065
C  C128  1  0.66920000  0.40160000  0.78160000  1.0 0.030135034
C  C129  1  0.57450000  0.45390000  0.83610000  1.0 -0.0072393696
C  C130  1  0.45500000  0.57340000  0.06240000  1.0 0.009296005
C  C131  1  0.40160000  0.66920000  0.14760000  1.0 0.0243565063
C  C132  1  0.45390000  0.57450000  0.13550000  1.0 -0.0072393696
C  C133  1  0.45500000  0.06240000  0.90920000  1.0 0.0040393065
C  C134  1  0.40160000  0.14760000  0.78160000  1.0 0.030135034
C  C135  1  0.45390000  0.13550000  0.83610000  1.0 -0.0072393696
C  C136  1  0.57340000  0.90920000  0.06240000  1.0 0.0040393065
C  C137  1  0.66920000  0.78160000  0.14760000  1.0 0.0243565063
C  C138  1  0.57450000  0.83610000  0.13550000  1.0 -0.004383653
C  C139  1  0.06240000  0.45500000  0.57340000  1.0 0.009296005
C  C140  1  0.14760000  0.40160000  0.66920000  1.0 0.030135034
C  C141  1  0.13550000  0.45390000  0.57450000  1.0 -0.0072393696
C  C142  1  0.90920000  0.57340000  0.45500000  1.0 0.009296005
C  C143  1  0.78160000  0.66920000  0.40160000  1.0 0.030135034
C  C144  1  0.83610000  0.57450000  0.45390000  1.0 -0.0072393696
C  C145  1  0.50000000  0.73444000  0.50000000  1.0 0.5109890382
C  C146  1  0.50000000  0.81354000  0.50000000  1.0 -0.0567470246
C  C147  1  0.50000000  0.96074000  0.50000000  1.0 0.009296005
C  C148  1  0.50000000  0.26556000  0.50000000  1.0 0.5109890382
C  C149  1  0.50000000  0.18646000  0.50000000  1.0 -0.0567470246
C  C150  1  0.50000000  0.03926000  0.50000000  1.0 0.009296005
C  C151  1  0.73444000  0.50000000  0.26556000  1.0 0.5109890382
C  C152  1  0.81354000  0.50000000  0.18646000  1.0 -0.0567470246
C  C153  1  0.96074000  0.50000000  0.03926000  1.0 0.0040393065
C  C154  1  0.26556000  0.50000000  0.73444000  1.0 0.5109890382
C  C155  1  0.18646000  0.50000000  0.81354000  1.0 -0.0567470246
C  C156  1  0.03926000  0.50000000  0.96074000  1.0 0.009296005
C  C157  1  0.73444000  0.50000000  0.50000000  1.0 0.5109890382
C  C158  1  0.81354000  0.50000000  0.50000000  1.0 -0.0567470246
C  C159  1  0.96074000  0.50000000  0.50000000  1.0 0.0040393065
C  C160  1  0.26556000  0.50000000  0.50000000  1.0 0.5109890382
C  C161  1  0.18646000  0.50000000  0.50000000  1.0 -0.0567470246
C  C162  1  0.03926000  0.50000000  0.50000000  1.0 0.0040393065
C  C163  1  0.50000000  0.26556000  0.73444000  1.0 0.5109890382
C  C164  1  0.50000000  0.18646000  0.81354000  1.0 -0.0567470246
C  C165  1  0.50000000  0.03926000  0.96074000  1.0 0.0040393065
C  C166  1  0.50000000  0.73444000  0.26556000  1.0 0.5109890382
C  C167  1  0.50000000  0.81354000  0.18646000  1.0 -0.0567470246
C  C168  1  0.50000000  0.96074000  0.03926000  1.0 0.0040393065
C  C169  1  0.50000000  0.50000000  0.73444000  1.0 0.5109890382
C  C170  1  0.50000000  0.50000000  0.81354000  1.0 -0.0567470246
C  C171  1  0.50000000  0.50000000  0.96074000  1.0 0.0040393065
C  C172  1  0.50000000  0.50000000  0.26556000  1.0 0.5109890382
C  C173  1  0.50000000  0.50000000  0.18646000  1.0 -0.0567470246
C  C174  1  0.50000000  0.50000000  0.03926000  1.0 0.0040393065
C  C175  1  0.26556000  0.73444000  0.50000000  1.0 0.5109890382
C  C176  1  0.18646000  0.81354000  0.50000000  1.0 -0.0567470246
C  C177  1  0.03926000  0.96074000  0.50000000  1.0 0.009296005
C  C178  1  0.73444000  0.26556000  0.50000000  1.0 0.5109890382
C  C179  1  0.81354000  0.18646000  0.50000000  1.0 -0.0567470246
C  C180  1  0.96074000  0.03926000  0.50000000  1.0 0.0040393065
O  O1  1  0.44085000  0.70417000  0.55915000  1.0 -0.5828131109
O  O2  1  0.55915000  0.29583000  0.44085000  1.0 -0.5828131109
O  O3  1  0.70417000  0.44085000  0.29583000  1.0 -0.5828131109
O  O4  1  0.29583000  0.55915000  0.70417000  1.0 -0.5828131109
O  O5  1  0.70417000  0.55915000  0.44085000  1.0 -0.5828131109
O  O6  1  0.29583000  0.44085000  0.55915000  1.0 -0.5828131109
O  O7  1  0.44085000  0.29583000  0.70417000  1.0 -0.5828131109
O  O8  1  0.55915000  0.70417000  0.29583000  1.0 -0.5828131109
O  O9  1  0.55915000  0.44085000  0.70417000  1.0 -0.5828131109
O  O10  1  0.44085000  0.55915000  0.29583000  1.0 -0.5828131109
O  O11  1  0.29583000  0.70417000  0.44085000  1.0 -0.5828131109
O  O12  1  0.70417000  0.29583000  0.55915000  1.0 -0.5828131109
O  O13  1  0.55915000  0.70417000  0.44085000  1.0 -0.5828131109
O  O14  1  0.44085000  0.29583000  0.55915000  1.0 -0.5828131109
O  O15  1  0.29583000  0.44085000  0.70417000  1.0 -0.5828131109
O  O16  1  0.70417000  0.55915000  0.29583000  1.0 -0.5828131109
O  O17  1  0.29583000  0.70417000  0.55915000  1.0 -0.5828131109
O  O18  1  0.70417000  0.29583000  0.44085000  1.0 -0.5828131109
O  O19  1  0.55915000  0.44085000  0.29583000  1.0 -0.5828131109
O  O20  1  0.44085000  0.55915000  0.70417000  1.0 -0.5828131109
O  O21  1  0.44085000  0.70417000  0.29583000  1.0 -0.5828131109
O  O22  1  0.55915000  0.29583000  0.70417000  1.0 -0.5828131109
O  O23  1  0.70417000  0.44085000  0.55915000  1.0 -0.5828131109
O  O24  1  0.29583000  0.55915000  0.44085000  1.0 -0.5828131109
O  O25  1  0.38330000  0.53890000  0.53890000  1.0 -0.3495590371
O  O26  1  0.34400000  0.55200000  0.55200000  1.0 -0.2690872234
O  O27  1  0.53890000  0.53890000  0.38330000  1.0 -0.3495590371
O  O28  1  0.55200000  0.55200000  0.34400000  1.0 -0.2690872234
O  O29  1  0.53890000  0.38330000  0.53890000  1.0 -0.3495590371
O  O30  1  0.55200000  0.34400000  0.55200000  1.0 -0.2690872234
O  O31  1  0.53890000  0.53890000  0.53890000  1.0 -0.3495590371
O  O32  1  0.55200000  0.55200000  0.55200000  1.0 -0.2690872234
O  O33  1  0.61670000  0.46110000  0.46110000  1.0 -0.3495590371
O  O34  1  0.65600000  0.44800000  0.44800000  1.0 -0.2690872234
O  O35  1  0.46110000  0.46110000  0.61670000  1.0 -0.3495590371
O  O36  1  0.44800000  0.44800000  0.65600000  1.0 -0.2690872234
O  O37  1  0.46110000  0.46110000  0.46110000  1.0 -0.3495590371
O  O38  1  0.44800000  0.44800000  0.44800000  1.0 -0.2690872234
O  O39  1  0.46110000  0.61670000  0.46110000  1.0 -0.3495590371
O  O40  1  0.44800000  0.65600000  0.44800000  1.0 -0.2690872234
