# DDEC6 charges by PACMAN v1.1 (https://github.com/mtap-research/PACMAN-charge/)
data_QAJKIV_FSR_pacman
_symmetry_space_group_name_H-M   'P 1'
_cell_length_a   10.04300000
_cell_length_b   15.98900000
_cell_length_c   18.30800000
_cell_angle_alpha   90.00000000
_cell_angle_beta   90.00000000
_cell_angle_gamma   90.00000000
_symmetry_Int_Tables_number   1
_chemical_formula_structural   Ga3P3O14
_chemical_formula_sum   'Ga24 P24 O112'
_cell_volume   2939.85336432
_cell_formula_units_Z   8
loop_
 _symmetry_equiv_pos_site_id
 _symmetry_equiv_pos_as_xyz
  1  'x, y, z'
loop_
 _atom_site_type_symbol
 _atom_site_label
 _atom_site_symmetry_multiplicity
 _atom_site_fract_x
 _atom_site_fract_y
 _atom_site_fract_z
 _atom_site_occupancy
 _atom_site_charge
Ga  Ga1  1  0.34755000  0.99491000  0.59431000  1.0 1.4393893696
Ga  Ga2  1  0.65245000  0.50509000  0.09431000  1.0 1.4393893696
Ga  Ga3  1  0.84755000  0.00509000  0.90569000  1.0 1.4393893696
Ga  Ga4  1  0.15245000  0.49491000  0.40569000  1.0 1.4393893696
Ga  Ga5  1  0.65245000  0.00509000  0.40569000  1.0 1.4393893696
Ga  Ga6  1  0.34755000  0.49491000  0.90569000  1.0 1.4393893696
Ga  Ga7  1  0.15245000  0.99491000  0.09431000  1.0 1.4393893696
Ga  Ga8  1  0.84755000  0.50509000  0.59431000  1.0 1.4393893696
Ga  Ga9  1  0.31552000  0.96521000  0.78235000  1.0 1.386732436
Ga  Ga10  1  0.68448000  0.53479000  0.28235000  1.0 1.3836665519
Ga  Ga11  1  0.81552000  0.03479000  0.71765000  1.0 1.386732436
Ga  Ga12  1  0.18448000  0.46521000  0.21765000  1.0 1.3836665519
Ga  Ga13  1  0.68448000  0.03479000  0.21765000  1.0 1.386732436
Ga  Ga14  1  0.31552000  0.46521000  0.71765000  1.0 1.3836665519
Ga  Ga15  1  0.18448000  0.96521000  0.28235000  1.0 1.386732436
Ga  Ga16  1  0.81552000  0.53479000  0.78235000  1.0 1.3836665519
Ga  Ga17  1  0.16442000  0.14742000  0.82548000  1.0 1.4718467213
Ga  Ga18  1  0.83558000  0.35258000  0.32548000  1.0 1.4718467213
Ga  Ga19  1  0.66442000  0.85258000  0.67452000  1.0 1.4718467213
Ga  Ga20  1  0.33558000  0.64742000  0.17452000  1.0 1.4718467213
Ga  Ga21  1  0.83558000  0.85258000  0.17452000  1.0 1.4718467213
Ga  Ga22  1  0.16442000  0.64742000  0.67452000  1.0 1.4718467213
Ga  Ga23  1  0.33558000  0.14742000  0.32548000  1.0 1.4718467213
Ga  Ga24  1  0.66442000  0.35258000  0.82548000  1.0 1.4718467213
P  P1  1  0.11577000  0.06658000  0.68094000  1.0 1.4980559714
P  P2  1  0.88423000  0.43342000  0.18094000  1.0 1.4980559714
P  P3  1  0.61577000  0.93342000  0.81906000  1.0 1.4939690597
P  P4  1  0.38423000  0.56658000  0.31906000  1.0 1.4980559714
P  P5  1  0.88423000  0.93342000  0.31906000  1.0 1.4939690597
P  P6  1  0.11577000  0.56658000  0.81906000  1.0 1.4980559714
P  P7  1  0.38423000  0.06658000  0.18094000  1.0 1.4980559714
P  P8  1  0.61577000  0.43342000  0.68094000  1.0 1.4980559714
P  P9  1  0.33959000  0.81904000  0.66831000  1.0 1.5680269964
P  P10  1  0.66041000  0.68096000  0.16831000  1.0 1.5643459924
P  P11  1  0.83959000  0.18096000  0.83169000  1.0 1.5643459924
P  P12  1  0.16041000  0.31904000  0.33169000  1.0 1.5680269964
P  P13  1  0.66041000  0.18096000  0.33169000  1.0 1.5643459924
P  P14  1  0.33959000  0.31904000  0.83169000  1.0 1.5680269964
P  P15  1  0.16041000  0.81904000  0.16831000  1.0 1.5680269964
P  P16  1  0.83959000  0.68096000  0.66831000  1.0 1.5643459924
P  P17  1  0.36221000  0.98475000  0.42420000  1.0 1.5294441052
P  P18  1  0.63779000  0.51525000  0.92420000  1.0 1.5294441052
P  P19  1  0.86221000  0.01525000  0.07580000  1.0 1.5294441052
P  P20  1  0.13779000  0.48475000  0.57580000  1.0 1.5294441052
P  P21  1  0.63779000  0.01525000  0.57580000  1.0 1.5294441052
P  P22  1  0.36221000  0.48475000  0.07580000  1.0 1.5294441052
P  P23  1  0.13779000  0.98475000  0.92420000  1.0 1.5294441052
P  P24  1  0.86221000  0.51525000  0.42420000  1.0 1.5294441052
O  O1  1  0.14700000  0.99120000  0.72900000  1.0 -0.6216892012
O  O2  1  0.85300000  0.50880000  0.22900000  1.0 -0.6216892012
O  O3  1  0.64700000  0.00880000  0.77100000  1.0 -0.6216892012
O  O4  1  0.35300000  0.49120000  0.27100000  1.0 -0.6216892012
O  O5  1  0.85300000  0.00880000  0.27100000  1.0 -0.6216892012
O  O6  1  0.14700000  0.49120000  0.77100000  1.0 -0.6216892012
O  O7  1  0.35300000  0.99120000  0.22900000  1.0 -0.6216892012
O  O8  1  0.64700000  0.50880000  0.72900000  1.0 -0.6216892012
O  O9  1  0.97000000  0.06350000  0.65660000  1.0 -0.6216892012
O  O10  1  0.03000000  0.43650000  0.15660000  1.0 -0.6216892012
O  O11  1  0.47000000  0.93650000  0.84340000  1.0 -0.6216892012
O  O12  1  0.53000000  0.56350000  0.34340000  1.0 -0.6216892012
O  O13  1  0.03000000  0.93650000  0.34340000  1.0 -0.6216892012
O  O14  1  0.97000000  0.56350000  0.84340000  1.0 -0.6216892012
O  O15  1  0.53000000  0.06350000  0.15660000  1.0 -0.6216892012
O  O16  1  0.47000000  0.43650000  0.65660000  1.0 -0.6216892012
O  O17  1  0.20320000  0.06810000  0.61150000  1.0 -0.6365980364
O  O18  1  0.79680000  0.43190000  0.11150000  1.0 -0.6365980364
O  O19  1  0.70320000  0.93190000  0.88850000  1.0 -0.6365980364
O  O20  1  0.29680000  0.56810000  0.38850000  1.0 -0.6365980364
O  O21  1  0.79680000  0.93190000  0.38850000  1.0 -0.6365980364
O  O22  1  0.20320000  0.56810000  0.88850000  1.0 -0.6365980364
O  O23  1  0.29680000  0.06810000  0.11150000  1.0 -0.6365980364
O  O24  1  0.70320000  0.43190000  0.61150000  1.0 -0.6365980364
O  O25  1  0.14170000  0.14900000  0.72300000  1.0 -0.7010768585
O  O26  1  0.85830000  0.35100000  0.22300000  1.0 -0.7010768585
O  O27  1  0.64170000  0.85100000  0.77700000  1.0 -0.7010768585
O  O28  1  0.35830000  0.64900000  0.27700000  1.0 -0.7010768585
O  O29  1  0.85830000  0.85100000  0.27700000  1.0 -0.7010768585
O  O30  1  0.14170000  0.64900000  0.77700000  1.0 -0.7010768585
O  O31  1  0.35830000  0.14900000  0.22300000  1.0 -0.7010768585
O  O32  1  0.64170000  0.35100000  0.72300000  1.0 -0.7010768585
O  O33  1  0.30250000  0.84900000  0.74480000  1.0 -0.6701921008
O  O34  1  0.69750000  0.65100000  0.24480000  1.0 -0.6701921008
O  O35  1  0.80250000  0.15100000  0.75520000  1.0 -0.6701921008
O  O36  1  0.19750000  0.34900000  0.25520000  1.0 -0.6701921008
O  O37  1  0.69750000  0.15100000  0.25520000  1.0 -0.6701921008
O  O38  1  0.30250000  0.34900000  0.75520000  1.0 -0.6701921008
O  O39  1  0.19750000  0.84900000  0.24480000  1.0 -0.6701921008
O  O40  1  0.80250000  0.65100000  0.74480000  1.0 -0.6701921008
O  O41  1  0.25670000  0.74210000  0.64740000  1.0 -0.6365980364
O  O42  1  0.74330000  0.75790000  0.14740000  1.0 -0.6365980364
O  O43  1  0.75670000  0.25790000  0.85260000  1.0 -0.6365980364
O  O44  1  0.24330000  0.24210000  0.35260000  1.0 -0.6365980364
O  O45  1  0.74330000  0.25790000  0.35260000  1.0 -0.6365980364
O  O46  1  0.25670000  0.24210000  0.85260000  1.0 -0.6365980364
O  O47  1  0.24330000  0.74210000  0.14740000  1.0 -0.6365980364
O  O48  1  0.75670000  0.75790000  0.64740000  1.0 -0.6365980364
O  O49  1  0.48840000  0.79580000  0.66390000  1.0 -0.6471362494
O  O50  1  0.51160000  0.70420000  0.16390000  1.0 -0.6471362494
O  O51  1  0.98840000  0.20420000  0.83610000  1.0 -0.6471362494
O  O52  1  0.01160000  0.29580000  0.33610000  1.0 -0.6471362494
O  O53  1  0.51160000  0.20420000  0.33610000  1.0 -0.6471362494
O  O54  1  0.48840000  0.29580000  0.83610000  1.0 -0.6471362494
O  O55  1  0.01160000  0.79580000  0.16390000  1.0 -0.6471362494
O  O56  1  0.98840000  0.70420000  0.66390000  1.0 -0.6471362494
O  O57  1  0.30340000  0.88340000  0.60820000  1.0 -0.6918377846
O  O58  1  0.69660000  0.61660000  0.10820000  1.0 -0.6918377846
O  O59  1  0.80340000  0.11660000  0.89180000  1.0 -0.6918377846
O  O60  1  0.19660000  0.38340000  0.39180000  1.0 -0.6918377846
O  O61  1  0.69660000  0.11660000  0.39180000  1.0 -0.6918377846
O  O62  1  0.30340000  0.38340000  0.89180000  1.0 -0.6918377846
O  O63  1  0.19660000  0.88340000  0.10820000  1.0 -0.6918377846
O  O64  1  0.80340000  0.61660000  0.60820000  1.0 -0.6918377846
O  O65  1  0.28100000  0.98020000  0.49480000  1.0 -0.6365980364
O  O66  1  0.71900000  0.51980000  0.99480000  1.0 -0.6365980364
O  O67  1  0.78100000  0.01980000  0.00520000  1.0 -0.6365980364
O  O68  1  0.21900000  0.48020000  0.50520000  1.0 -0.6365980364
O  O69  1  0.71900000  0.01980000  0.50520000  1.0 -0.6365980364
O  O70  1  0.28100000  0.48020000  0.00520000  1.0 -0.6365980364
O  O71  1  0.21900000  0.98020000  0.99480000  1.0 -0.6365980364
O  O72  1  0.78100000  0.51980000  0.49480000  1.0 -0.6365980364
O  O73  1  0.29250000  0.93320000  0.36420000  1.0 -0.5860581629
O  O74  1  0.70750000  0.56680000  0.86420000  1.0 -0.5860581629
O  O75  1  0.79250000  0.06680000  0.13580000  1.0 -0.5860581629
O  O76  1  0.20750000  0.43320000  0.63580000  1.0 -0.5838541023
O  O77  1  0.70750000  0.06680000  0.63580000  1.0 -0.5860581629
O  O78  1  0.29250000  0.43320000  0.13580000  1.0 -0.5838541023
O  O79  1  0.20750000  0.93320000  0.86420000  1.0 -0.5860581629
O  O80  1  0.79250000  0.56680000  0.36420000  1.0 -0.5860581629
O  O81  1  0.38320000  0.07680000  0.40160000  1.0 -0.7180252082
O  O82  1  0.61680000  0.42320000  0.90160000  1.0 -0.7180252082
O  O83  1  0.88320000  0.92320000  0.09840000  1.0 -0.7180252082
O  O84  1  0.11680000  0.57680000  0.59840000  1.0 -0.7180252082
O  O85  1  0.61680000  0.92320000  0.59840000  1.0 -0.7180252082
O  O86  1  0.38320000  0.57680000  0.09840000  1.0 -0.7180252082
O  O87  1  0.11680000  0.07680000  0.90160000  1.0 -0.7180252082
O  O88  1  0.88320000  0.42320000  0.40160000  1.0 -0.7180252082
O  O89  1  0.50150000  0.94620000  0.43660000  1.0 -0.6918377846
O  O90  1  0.49850000  0.55380000  0.93660000  1.0 -0.6918377846
O  O91  1  0.00150000  0.05380000  0.06340000  1.0 -0.6918377846
O  O92  1  0.99850000  0.44620000  0.56340000  1.0 -0.6918377846
O  O93  1  0.49850000  0.05380000  0.56340000  1.0 -0.6918377846
O  O94  1  0.50150000  0.44620000  0.06340000  1.0 -0.6918377846
O  O95  1  0.99850000  0.94620000  0.93660000  1.0 -0.6918377846
O  O96  1  0.00150000  0.55380000  0.43660000  1.0 -0.6918377846
O  O97  1  0.32930000  0.08190000  0.81610000  1.0 -0.4702990882
O  O98  1  0.67070000  0.41810000  0.31610000  1.0 -0.4642904433
O  O99  1  0.82930000  0.91810000  0.68390000  1.0 -0.4702990882
O  O100  1  0.17070000  0.58190000  0.18390000  1.0 -0.4702990882
O  O101  1  0.67070000  0.91810000  0.18390000  1.0 -0.4642904433
O  O102  1  0.32930000  0.58190000  0.68390000  1.0 -0.4702990882
O  O103  1  0.17070000  0.08190000  0.31610000  1.0 -0.4702990882
O  O104  1  0.82930000  0.41810000  0.81610000  1.0 -0.4642904433
O  O105  1  0.41150000  0.99720000  0.69530000  1.0 -0.5622689359
O  O106  1  0.58850000  0.50280000  0.19530000  1.0 -0.5622689359
O  O107  1  0.91150000  0.00280000  0.80470000  1.0 -0.5622689359
O  O108  1  0.08850000  0.49720000  0.30470000  1.0 -0.5622689359
O  O109  1  0.58850000  0.00280000  0.30470000  1.0 -0.5622689359
O  O110  1  0.41150000  0.49720000  0.80470000  1.0 -0.5622689359
O  O111  1  0.08850000  0.99720000  0.19530000  1.0 -0.5622689359
O  O112  1  0.91150000  0.50280000  0.69530000  1.0 -0.5622689359
