# DDEC6 charges by PACMAN v1.1 (https://github.com/mtap-research/PACMAN-charge/)
data_QAKQEC_ion_pacman
_symmetry_space_group_name_H-M   'P 1'
_cell_length_a   27.14890000
_cell_length_b   27.14890000
_cell_length_c   27.14890000
_cell_angle_alpha   106.74400000
_cell_angle_beta   106.74400000
_cell_angle_gamma   106.74400000
_symmetry_Int_Tables_number   1
_chemical_formula_structural   Cu2H65C54(NO3)5
_chemical_formula_sum   'Cu24 H780 C648 N60 O180'
_cell_volume   16779.90614097
_cell_formula_units_Z   12
loop_
 _symmetry_equiv_pos_site_id
 _symmetry_equiv_pos_as_xyz
  1  'x, y, z'
loop_
 _atom_site_type_symbol
 _atom_site_label
 _atom_site_symmetry_multiplicity
 _atom_site_fract_x
 _atom_site_fract_y
 _atom_site_fract_z
 _atom_site_occupancy
 _atom_site_charge
Cu  Cu1  1  0.49609000  0.01802000  0.04862000  1.0 0.8372783935
Cu  Cu2  1  0.10974000  0.32591000  0.69643000  1.0 0.6962244884
Cu  Cu3  1  0.04862000  0.49609000  0.01802000  1.0 0.8372783935
Cu  Cu4  1  0.69643000  0.10974000  0.32591000  1.0 0.6962244884
Cu  Cu5  1  0.01802000  0.04862000  0.49609000  1.0 0.8372783935
Cu  Cu6  1  0.32591000  0.69643000  0.10974000  1.0 0.6962244884
Cu  Cu7  1  0.00391000  0.45138000  0.48198000  1.0 0.8372783935
Cu  Cu8  1  0.39026000  0.80357000  0.17409000  1.0 0.6962244884
Cu  Cu9  1  0.45138000  0.48198000  0.00391000  1.0 0.8372783935
Cu  Cu10  1  0.80357000  0.17409000  0.39026000  1.0 0.6962244884
Cu  Cu11  1  0.48198000  0.00391000  0.45138000  1.0 0.8372783935
Cu  Cu12  1  0.17409000  0.39026000  0.80357000  1.0 0.6962244884
Cu  Cu13  1  0.50391000  0.98198000  0.95138000  1.0 0.8372783935
Cu  Cu14  1  0.89026000  0.67409000  0.30357000  1.0 0.6962244884
Cu  Cu15  1  0.95138000  0.50391000  0.98198000  1.0 0.8372783935
Cu  Cu16  1  0.30357000  0.89026000  0.67409000  1.0 0.6962244884
Cu  Cu17  1  0.98198000  0.95138000  0.50391000  1.0 0.8372783935
Cu  Cu18  1  0.67409000  0.30357000  0.89026000  1.0 0.6962244884
Cu  Cu19  1  0.99609000  0.54862000  0.51802000  1.0 0.8372783935
Cu  Cu20  1  0.60974000  0.19643000  0.82591000  1.0 0.6962244884
Cu  Cu21  1  0.54862000  0.51802000  0.99609000  1.0 0.8372783935
Cu  Cu22  1  0.19643000  0.82591000  0.60974000  1.0 0.6962244884
Cu  Cu23  1  0.51802000  0.99609000  0.54862000  1.0 0.8372783935
Cu  Cu24  1  0.82591000  0.60974000  0.19643000  1.0 0.6962244884
H  H1  1  0.33885000  0.03297000  0.99378000  1.0 0.1198266228
H  H2  1  0.25323000  0.03609000  0.94908000  1.0 0.1289872559
H  H3  1  0.27109000  0.00153000  0.80486000  1.0 0.1289872559
H  H4  1  0.35640000  0.99304000  0.84604000  1.0 0.1127874247
H  H5  1  0.12098000  0.16881000  0.69568000  1.0 0.1198266228
H  H6  1  0.12959000  0.09194000  0.71524000  1.0 0.1289872559
H  H7  1  0.17076000  0.17669000  0.87812000  1.0 0.1198266228
H  H8  1  0.16295000  0.25415000  0.85881000  1.0 0.1198266228
H  H9  1  0.15243000  0.95768000  0.85082000  1.0 0.1388054154
H  H10  1  0.06695000  0.03955000  0.78747000  1.0 0.1289872559
H  H11  1  0.04775000  0.91136000  0.80160000  1.0 0.1289872559
H  H12  1  0.04995000  0.95870000  0.85451000  1.0 0.1567519771
H  H13  1  0.01564000  0.95107000  0.79207000  1.0 0.1388054154
H  H14  1  0.25151000  0.08675000  0.76348000  1.0 0.1289872559
H  H15  1  0.33687000  0.14826000  0.78055000  1.0 0.1289872559
H  H16  1  0.36544000  0.22550000  0.93857000  1.0 0.1002287415
H  H17  1  0.27995000  0.15909000  0.92198000  1.0 0.1127874247
H  H18  1  0.39424000  0.30582000  0.90709000  1.0 0.1198266228
H  H19  1  0.54756000  0.35915000  0.90389000  1.0 0.1289872559
H  H20  1  0.44816000  0.19384000  0.83029000  1.0 0.1198266228
H  H21  1  0.45958000  0.10742000  0.12754000  1.0 0.0810469481
H  H22  1  0.61792000  0.18282000  0.23866000  1.0 0.1198266228
H  H23  1  0.60297000  0.13839000  0.17737000  1.0 0.0897770459
H  H24  1  0.58780000  0.11687000  0.22231000  1.0 0.0897770459
H  H25  1  0.56050000  0.22977000  0.23382000  1.0 0.1784175344
H  H26  1  0.49500000  0.19380000  0.21471000  1.0 0.1002287415
H  H27  1  0.51731000  0.20945000  0.17039000  1.0 0.1002287415
H  H28  1  0.85679000  0.91005000  0.53171000  1.0 0.0810469481
H  H29  1  0.82101000  0.94167000  0.66674000  1.0 0.1289872559
H  H30  1  0.77721000  0.93761000  0.61015000  1.0 0.0810469481
H  H31  1  0.83647000  0.99066000  0.64511000  1.0 0.1002287415
H  H32  1  0.86398000  0.89165000  0.66040000  1.0 0.1488604833
H  H33  1  0.90946000  0.90646000  0.63444000  1.0 0.1388054154
H  H34  1  0.85266000  0.85061000  0.59886000  1.0 0.1289872559
H  H35  1  0.63623000  0.15689000  0.22865000  1.0 0.0610940924
H  H36  1  0.60914000  0.14861000  0.16462000  1.0 0.1002287415
H  H37  1  0.70359000  0.20381000  0.20427000  1.0 0.1289872559
H  H38  1  0.69593000  0.24781000  0.25210000  1.0 0.1198266228
H  H39  1  0.66881000  0.23954000  0.18801000  1.0 0.1198266228
H  H40  1  0.02707000  0.20062000  0.55668000  1.0 0.0897770459
H  H41  1  0.91244000  0.21067000  0.61047000  1.0 0.0701927196
H  H42  1  0.97236000  0.26286000  0.64041000  1.0 0.0897770459
H  H43  1  0.92613000  0.25542000  0.58348000  1.0 0.1127874247
H  H44  1  0.95227000  0.13349000  0.51090000  1.0 0.1198266228
H  H45  1  0.90339000  0.12447000  0.53341000  1.0 0.1198266228
H  H46  1  0.90553000  0.15731000  0.49315000  1.0 0.1002287415
H  H47  1  0.73118000  0.94561000  0.51533000  1.0 0.1127874247
H  H48  1  0.87533000  0.05635000  0.55413000  1.0 0.1567519771
H  H49  1  0.82424000  0.07526000  0.55084000  1.0 0.1902739817
H  H50  1  0.82689000  0.03905000  0.49432000  1.0 0.1567519771
H  H51  1  0.87464000  0.00099000  0.58986000  1.0 0.1289872559
H  H52  1  0.82399000  0.94035000  0.56325000  1.0 0.1388054154
H  H53  1  0.82474000  0.99189000  0.61098000  1.0 0.1002287415
H  H54  1  0.99611000  0.23752000  0.63177000  1.0 0.0897770459
H  H55  1  0.95056000  0.15452000  0.46929000  1.0 0.1198266228
H  H56  1  0.01630000  0.18047000  0.50835000  1.0 0.0897770459
H  H57  1  0.98656000  0.22096000  0.49514000  1.0 0.0810469481
H  H58  1  0.89290000  0.12549000  0.50920000  1.0 0.1002287415
H  H59  1  0.89431000  0.17478000  0.55983000  1.0 0.0897770459
H  H60  1  0.92435000  0.13443000  0.57284000  1.0 0.1289872559
H  H61  1  0.99378000  0.33885000  0.03297000  1.0 0.1198266228
H  H62  1  0.94908000  0.25323000  0.03609000  1.0 0.1289872559
H  H63  1  0.80486000  0.27109000  0.00153000  1.0 0.1289872559
H  H64  1  0.84604000  0.35640000  0.99304000  1.0 0.1127874247
H  H65  1  0.69568000  0.12098000  0.16881000  1.0 0.1198266228
H  H66  1  0.71524000  0.12959000  0.09194000  1.0 0.1289872559
H  H67  1  0.87812000  0.17076000  0.17669000  1.0 0.1198266228
H  H68  1  0.85881000  0.16295000  0.25415000  1.0 0.1198266228
H  H69  1  0.85082000  0.15243000  0.95768000  1.0 0.1388054154
H  H70  1  0.78747000  0.06695000  0.03955000  1.0 0.1289872559
H  H71  1  0.80160000  0.04775000  0.91136000  1.0 0.1388054154
H  H72  1  0.85451000  0.04995000  0.95870000  1.0 0.1567519771
H  H73  1  0.79207000  0.01564000  0.95107000  1.0 0.1388054154
H  H74  1  0.76348000  0.25151000  0.08675000  1.0 0.1289872559
H  H75  1  0.78055000  0.33687000  0.14826000  1.0 0.1289872559
H  H76  1  0.93857000  0.36544000  0.22550000  1.0 0.1002287415
H  H77  1  0.92198000  0.27995000  0.15909000  1.0 0.1127874247
H  H78  1  0.90709000  0.39424000  0.30582000  1.0 0.1198266228
H  H79  1  0.90389000  0.54756000  0.35915000  1.0 0.1289872559
H  H80  1  0.83029000  0.44816000  0.19384000  1.0 0.1198266228
H  H81  1  0.12754000  0.45958000  0.10742000  1.0 0.0810469481
H  H82  1  0.23866000  0.61792000  0.18282000  1.0 0.1198266228
H  H83  1  0.17737000  0.60297000  0.13839000  1.0 0.0897770459
H  H84  1  0.22231000  0.58780000  0.11687000  1.0 0.0897770459
H  H85  1  0.23382000  0.56050000  0.22977000  1.0 0.1784175344
H  H86  1  0.21471000  0.49500000  0.19380000  1.0 0.1002287415
H  H87  1  0.17039000  0.51731000  0.20945000  1.0 0.1002287415
H  H88  1  0.53171000  0.85679000  0.91005000  1.0 0.0810469481
H  H89  1  0.66674000  0.82101000  0.94167000  1.0 0.1289872559
H  H90  1  0.61015000  0.77721000  0.93761000  1.0 0.0810469481
H  H91  1  0.64511000  0.83647000  0.99066000  1.0 0.1002287415
H  H92  1  0.66040000  0.86398000  0.89165000  1.0 0.1488604833
H  H93  1  0.63444000  0.90946000  0.90646000  1.0 0.1388054154
H  H94  1  0.59886000  0.85266000  0.85061000  1.0 0.1289872559
H  H95  1  0.22865000  0.63623000  0.15689000  1.0 0.0610940924
H  H96  1  0.16462000  0.60914000  0.14861000  1.0 0.1002287415
H  H97  1  0.20427000  0.70359000  0.20381000  1.0 0.1289872559
H  H98  1  0.25210000  0.69593000  0.24781000  1.0 0.1198266228
H  H99  1  0.18801000  0.66881000  0.23954000  1.0 0.1198266228
H  H100  1  0.55668000  0.02707000  0.20062000  1.0 0.0897770459
H  H101  1  0.61047000  0.91244000  0.21067000  1.0 0.0701927196
H  H102  1  0.64041000  0.97236000  0.26286000  1.0 0.0897770459
H  H103  1  0.58348000  0.92613000  0.25542000  1.0 0.1127874247
H  H104  1  0.51090000  0.95227000  0.13349000  1.0 0.1198266228
H  H105  1  0.53341000  0.90339000  0.12447000  1.0 0.1198266228
H  H106  1  0.49315000  0.90553000  0.15731000  1.0 0.1002287415
H  H107  1  0.51533000  0.73118000  0.94561000  1.0 0.1127874247
H  H108  1  0.55413000  0.87533000  0.05635000  1.0 0.1567519771
H  H109  1  0.55084000  0.82424000  0.07526000  1.0 0.1902739817
H  H110  1  0.49432000  0.82689000  0.03905000  1.0 0.1567519771
H  H111  1  0.58986000  0.87464000  0.00099000  1.0 0.1289872559
H  H112  1  0.56325000  0.82399000  0.94035000  1.0 0.1388054154
H  H113  1  0.61098000  0.82474000  0.99189000  1.0 0.1002287415
H  H114  1  0.63177000  0.99611000  0.23752000  1.0 0.0897770459
H  H115  1  0.46929000  0.95056000  0.15452000  1.0 0.1198266228
H  H116  1  0.50835000  0.01630000  0.18047000  1.0 0.0897770459
H  H117  1  0.49514000  0.98656000  0.22096000  1.0 0.0810469481
H  H118  1  0.50920000  0.89290000  0.12549000  1.0 0.1002287415
H  H119  1  0.55983000  0.89431000  0.17478000  1.0 0.0897770459
H  H120  1  0.57284000  0.92435000  0.13443000  1.0 0.1289872559
H  H121  1  0.03297000  0.99378000  0.33885000  1.0 0.1198266228
H  H122  1  0.03609000  0.94908000  0.25323000  1.0 0.1289872559
H  H123  1  0.00153000  0.80486000  0.27109000  1.0 0.1289872559
H  H124  1  0.99304000  0.84604000  0.35640000  1.0 0.1127874247
H  H125  1  0.16881000  0.69568000  0.12098000  1.0 0.1198266228
H  H126  1  0.09194000  0.71524000  0.12959000  1.0 0.1289872559
H  H127  1  0.17669000  0.87812000  0.17076000  1.0 0.1198266228
H  H128  1  0.25415000  0.85881000  0.16295000  1.0 0.1198266228
H  H129  1  0.95768000  0.85082000  0.15243000  1.0 0.1388054154
H  H130  1  0.03955000  0.78747000  0.06695000  1.0 0.1289872559
H  H131  1  0.91136000  0.80160000  0.04775000  1.0 0.1388054154
H  H132  1  0.95870000  0.85451000  0.04995000  1.0 0.1567519771
H  H133  1  0.95107000  0.79207000  0.01564000  1.0 0.1388054154
H  H134  1  0.08675000  0.76348000  0.25151000  1.0 0.1289872559
H  H135  1  0.14826000  0.78055000  0.33687000  1.0 0.1289872559
H  H136  1  0.22550000  0.93857000  0.36544000  1.0 0.1002287415
H  H137  1  0.15909000  0.92198000  0.27995000  1.0 0.1127874247
H  H138  1  0.30582000  0.90709000  0.39424000  1.0 0.1198266228
H  H139  1  0.35915000  0.90389000  0.54756000  1.0 0.1289872559
H  H140  1  0.19384000  0.83029000  0.44816000  1.0 0.1198266228
H  H141  1  0.10742000  0.12754000  0.45958000  1.0 0.0810469481
H  H142  1  0.18282000  0.23866000  0.61792000  1.0 0.1198266228
H  H143  1  0.13839000  0.17737000  0.60297000  1.0 0.0897770459
H  H144  1  0.11687000  0.22231000  0.58780000  1.0 0.0897770459
H  H145  1  0.22977000  0.23382000  0.56050000  1.0 0.1784175344
H  H146  1  0.19380000  0.21471000  0.49500000  1.0 0.1002287415
H  H147  1  0.20945000  0.17039000  0.51731000  1.0 0.1002287415
H  H148  1  0.91005000  0.53171000  0.85679000  1.0 0.0810469481
H  H149  1  0.94167000  0.66674000  0.82101000  1.0 0.1289872559
H  H150  1  0.93761000  0.61015000  0.77721000  1.0 0.0810469481
H  H151  1  0.99066000  0.64511000  0.83647000  1.0 0.1002287415
H  H152  1  0.89165000  0.66040000  0.86398000  1.0 0.1488604833
H  H153  1  0.90646000  0.63444000  0.90946000  1.0 0.1388054154
H  H154  1  0.85061000  0.59886000  0.85266000  1.0 0.1289872559
H  H155  1  0.15689000  0.22865000  0.63623000  1.0 0.0610940924
H  H156  1  0.14861000  0.16462000  0.60914000  1.0 0.1002287415
H  H157  1  0.20381000  0.20427000  0.70359000  1.0 0.1289872559
H  H158  1  0.24781000  0.25210000  0.69593000  1.0 0.1198266228
H  H159  1  0.23954000  0.18801000  0.66881000  1.0 0.1198266228
H  H160  1  0.20062000  0.55668000  0.02707000  1.0 0.0897770459
H  H161  1  0.21067000  0.61047000  0.91244000  1.0 0.0701927196
H  H162  1  0.26286000  0.64041000  0.97236000  1.0 0.0897770459
H  H163  1  0.25542000  0.58348000  0.92613000  1.0 0.1127874247
H  H164  1  0.13349000  0.51090000  0.95227000  1.0 0.1198266228
H  H165  1  0.12447000  0.53341000  0.90339000  1.0 0.1198266228
H  H166  1  0.15731000  0.49315000  0.90553000  1.0 0.1002287415
H  H167  1  0.94561000  0.51533000  0.73118000  1.0 0.1127874247
H  H168  1  0.05635000  0.55413000  0.87533000  1.0 0.1567519771
H  H169  1  0.07526000  0.55084000  0.82424000  1.0 0.1902739817
H  H170  1  0.03905000  0.49432000  0.82689000  1.0 0.1567519771
H  H171  1  0.00099000  0.58986000  0.87464000  1.0 0.1289872559
H  H172  1  0.94035000  0.56325000  0.82399000  1.0 0.1388054154
H  H173  1  0.99189000  0.61098000  0.82474000  1.0 0.1002287415
H  H174  1  0.23752000  0.63177000  0.99611000  1.0 0.0897770459
H  H175  1  0.15452000  0.46929000  0.95056000  1.0 0.1198266228
H  H176  1  0.18047000  0.50835000  0.01630000  1.0 0.0897770459
H  H177  1  0.22096000  0.49514000  0.98656000  1.0 0.0810469481
H  H178  1  0.12549000  0.50920000  0.89290000  1.0 0.1002287415
H  H179  1  0.17478000  0.55983000  0.89431000  1.0 0.0897770459
H  H180  1  0.13443000  0.57284000  0.92435000  1.0 0.1289872559
H  H181  1  0.16115000  0.50622000  0.46703000  1.0 0.1198266228
H  H182  1  0.24677000  0.55092000  0.46391000  1.0 0.1289872559
H  H183  1  0.22891000  0.69514000  0.49847000  1.0 0.1289872559
H  H184  1  0.14360000  0.65396000  0.50696000  1.0 0.1127874247
H  H185  1  0.37902000  0.80432000  0.33119000  1.0 0.1198266228
H  H186  1  0.37041000  0.78476000  0.40806000  1.0 0.1289872559
H  H187  1  0.32924000  0.62188000  0.32331000  1.0 0.1198266228
H  H188  1  0.33705000  0.64119000  0.24585000  1.0 0.1198266228
H  H189  1  0.34757000  0.64918000  0.54232000  1.0 0.1388054154
H  H190  1  0.43305000  0.71253000  0.46045000  1.0 0.1289872559
H  H191  1  0.45225000  0.69840000  0.58864000  1.0 0.1388054154
H  H192  1  0.45005000  0.64549000  0.54130000  1.0 0.1567519771
H  H193  1  0.48436000  0.70793000  0.54893000  1.0 0.1388054154
H  H194  1  0.24849000  0.73652000  0.41325000  1.0 0.1289872559
H  H195  1  0.16313000  0.71945000  0.35174000  1.0 0.1289872559
H  H196  1  0.13456000  0.56143000  0.27450000  1.0 0.1002287415
H  H197  1  0.22005000  0.57802000  0.34091000  1.0 0.1127874247
H  H198  1  0.10576000  0.59291000  0.19418000  1.0 0.1198266228
H  H199  1  0.95244000  0.59611000  0.14085000  1.0 0.1289872559
H  H200  1  0.05184000  0.66971000  0.30616000  1.0 0.1198266228
H  H201  1  0.04042000  0.37246000  0.39258000  1.0 0.0810469481
H  H202  1  0.88208000  0.26134000  0.31718000  1.0 0.1198266228
H  H203  1  0.89703000  0.32263000  0.36161000  1.0 0.0897770459
H  H204  1  0.91220000  0.27769000  0.38313000  1.0 0.0897770459
H  H205  1  0.93950000  0.26618000  0.27023000  1.0 0.1784175344
H  H206  1  0.00500000  0.28529000  0.30620000  1.0 0.1002287415
H  H207  1  0.98269000  0.32961000  0.29055000  1.0 0.1002287415
H  H208  1  0.64321000  0.96829000  0.58995000  1.0 0.0810469481
H  H209  1  0.67899000  0.83326000  0.55833000  1.0 0.1388054154
H  H210  1  0.72279000  0.88985000  0.56239000  1.0 0.0810469481
H  H211  1  0.66353000  0.85489000  0.50934000  1.0 0.1002287415
H  H212  1  0.63602000  0.83960000  0.60835000  1.0 0.1488604833
H  H213  1  0.59054000  0.86556000  0.59354000  1.0 0.1388054154
H  H214  1  0.64734000  0.90114000  0.64939000  1.0 0.1289872559
H  H215  1  0.86377000  0.27135000  0.34311000  1.0 0.0610940924
H  H216  1  0.89086000  0.33538000  0.35139000  1.0 0.1002287415
H  H217  1  0.79641000  0.29573000  0.29619000  1.0 0.1289872559
H  H218  1  0.80407000  0.24790000  0.25219000  1.0 0.1198266228
H  H219  1  0.83119000  0.31199000  0.26046000  1.0 0.1198266228
H  H220  1  0.47293000  0.94332000  0.29938000  1.0 0.0897770459
H  H221  1  0.58756000  0.88953000  0.28933000  1.0 0.0701927196
H  H222  1  0.52764000  0.85959000  0.23714000  1.0 0.0897770459
H  H223  1  0.57387000  0.91652000  0.24458000  1.0 0.1127874247
H  H224  1  0.54773000  0.98910000  0.36651000  1.0 0.1198266228
H  H225  1  0.59661000  0.96659000  0.37553000  1.0 0.1198266228
H  H226  1  0.59447000  0.00685000  0.34269000  1.0 0.1002287415
H  H227  1  0.76882000  0.98467000  0.55439000  1.0 0.1127874247
H  H228  1  0.62467000  0.94587000  0.44365000  1.0 0.1567519771
H  H229  1  0.67576000  0.94916000  0.42474000  1.0 0.1902739817
H  H230  1  0.67311000  0.00568000  0.46095000  1.0 0.1567519771
H  H231  1  0.62536000  0.91014000  0.49901000  1.0 0.1289872559
H  H232  1  0.67601000  0.93675000  0.55965000  1.0 0.1388054154
H  H233  1  0.67526000  0.88902000  0.50811000  1.0 0.1002287415
H  H234  1  0.50389000  0.86823000  0.26248000  1.0 0.0897770459
H  H235  1  0.54944000  0.03071000  0.34548000  1.0 0.1198266228
H  H236  1  0.48370000  0.99165000  0.31953000  1.0 0.0897770459
H  H237  1  0.51344000  0.00486000  0.27904000  1.0 0.0810469481
H  H238  1  0.60710000  0.99080000  0.37451000  1.0 0.1002287415
H  H239  1  0.60569000  0.94017000  0.32522000  1.0 0.0897770459
H  H240  1  0.57565000  0.92716000  0.36557000  1.0 0.1289872559
H  H241  1  0.50622000  0.46703000  0.16115000  1.0 0.1198266228
H  H242  1  0.55092000  0.46391000  0.24677000  1.0 0.1289872559
H  H243  1  0.69514000  0.49847000  0.22891000  1.0 0.1289872559
H  H244  1  0.65396000  0.50696000  0.14360000  1.0 0.1127874247
H  H245  1  0.80432000  0.33119000  0.37902000  1.0 0.1198266228
H  H246  1  0.78476000  0.40806000  0.37041000  1.0 0.1289872559
H  H247  1  0.62188000  0.32331000  0.32924000  1.0 0.1198266228
H  H248  1  0.64119000  0.24585000  0.33705000  1.0 0.1198266228
H  H249  1  0.64918000  0.54232000  0.34757000  1.0 0.1388054154
H  H250  1  0.71253000  0.46045000  0.43305000  1.0 0.1289872559
H  H251  1  0.69840000  0.58864000  0.45225000  1.0 0.1388054154
H  H252  1  0.64549000  0.54130000  0.45005000  1.0 0.1567519771
H  H253  1  0.70793000  0.54893000  0.48436000  1.0 0.1388054154
H  H254  1  0.73652000  0.41325000  0.24849000  1.0 0.1289872559
H  H255  1  0.71945000  0.35174000  0.16313000  1.0 0.1289872559
H  H256  1  0.56143000  0.27450000  0.13456000  1.0 0.1002287415
H  H257  1  0.57802000  0.34091000  0.22005000  1.0 0.1127874247
H  H258  1  0.59291000  0.19418000  0.10576000  1.0 0.1198266228
H  H259  1  0.59611000  0.14085000  0.95244000  1.0 0.1289872559
H  H260  1  0.66971000  0.30616000  0.05184000  1.0 0.1198266228
H  H261  1  0.37246000  0.39258000  0.04042000  1.0 0.0810469481
H  H262  1  0.26134000  0.31718000  0.88208000  1.0 0.1198266228
H  H263  1  0.32263000  0.36161000  0.89703000  1.0 0.0897770459
H  H264  1  0.27769000  0.38313000  0.91220000  1.0 0.0897770459
H  H265  1  0.26618000  0.27023000  0.93950000  1.0 0.1784175344
H  H266  1  0.28529000  0.30620000  0.00500000  1.0 0.1002287415
H  H267  1  0.32961000  0.29055000  0.98269000  1.0 0.1002287415
H  H268  1  0.96829000  0.58995000  0.64321000  1.0 0.0810469481
H  H269  1  0.83326000  0.55833000  0.67899000  1.0 0.1289872559
H  H270  1  0.88985000  0.56239000  0.72279000  1.0 0.0810469481
H  H271  1  0.85489000  0.50934000  0.66353000  1.0 0.1002287415
H  H272  1  0.83960000  0.60835000  0.63602000  1.0 0.1488604833
H  H273  1  0.86556000  0.59354000  0.59054000  1.0 0.1388054154
H  H274  1  0.90114000  0.64939000  0.64734000  1.0 0.1289872559
H  H275  1  0.27135000  0.34311000  0.86377000  1.0 0.0610940924
H  H276  1  0.33538000  0.35139000  0.89086000  1.0 0.1002287415
H  H277  1  0.29573000  0.29619000  0.79641000  1.0 0.1289872559
H  H278  1  0.24790000  0.25219000  0.80407000  1.0 0.1198266228
H  H279  1  0.31199000  0.26046000  0.83119000  1.0 0.1198266228
H  H280  1  0.94332000  0.29938000  0.47293000  1.0 0.0897770459
H  H281  1  0.88953000  0.28933000  0.58756000  1.0 0.0701927196
H  H282  1  0.85959000  0.23714000  0.52764000  1.0 0.0897770459
H  H283  1  0.91652000  0.24458000  0.57387000  1.0 0.1127874247
H  H284  1  0.98910000  0.36651000  0.54773000  1.0 0.1198266228
H  H285  1  0.96659000  0.37553000  0.59661000  1.0 0.1198266228
H  H286  1  0.00685000  0.34269000  0.59447000  1.0 0.1002287415
H  H287  1  0.98467000  0.55439000  0.76882000  1.0 0.1127874247
H  H288  1  0.94587000  0.44365000  0.62467000  1.0 0.1567519771
H  H289  1  0.94916000  0.42474000  0.67576000  1.0 0.1902739817
H  H290  1  0.00568000  0.46095000  0.67311000  1.0 0.1567519771
H  H291  1  0.91014000  0.49901000  0.62536000  1.0 0.1289872559
H  H292  1  0.93675000  0.55965000  0.67601000  1.0 0.1388054154
H  H293  1  0.88902000  0.50811000  0.67526000  1.0 0.1002287415
H  H294  1  0.86823000  0.26248000  0.50389000  1.0 0.0897770459
H  H295  1  0.03071000  0.34548000  0.54944000  1.0 0.1198266228
H  H296  1  0.99165000  0.31953000  0.48370000  1.0 0.0897770459
H  H297  1  0.00486000  0.27904000  0.51344000  1.0 0.0810469481
H  H298  1  0.99080000  0.37451000  0.60710000  1.0 0.1002287415
H  H299  1  0.94017000  0.32522000  0.60569000  1.0 0.0897770459
H  H300  1  0.92716000  0.36557000  0.57565000  1.0 0.1289872559
H  H301  1  0.46703000  0.16115000  0.50622000  1.0 0.1198266228
H  H302  1  0.46391000  0.24677000  0.55092000  1.0 0.1289872559
H  H303  1  0.49847000  0.22891000  0.69514000  1.0 0.1289872559
H  H304  1  0.50696000  0.14360000  0.65396000  1.0 0.1127874247
H  H305  1  0.33119000  0.37902000  0.80432000  1.0 0.1198266228
H  H306  1  0.40806000  0.37041000  0.78476000  1.0 0.1289872559
H  H307  1  0.32331000  0.32924000  0.62188000  1.0 0.1198266228
H  H308  1  0.24585000  0.33705000  0.64119000  1.0 0.1198266228
H  H309  1  0.54232000  0.34757000  0.64918000  1.0 0.1388054154
H  H310  1  0.46045000  0.43305000  0.71253000  1.0 0.1289872559
H  H311  1  0.58864000  0.45225000  0.69840000  1.0 0.1388054154
H  H312  1  0.54130000  0.45005000  0.64549000  1.0 0.1567519771
H  H313  1  0.54893000  0.48436000  0.70793000  1.0 0.1388054154
H  H314  1  0.41325000  0.24849000  0.73652000  1.0 0.1289872559
H  H315  1  0.35174000  0.16313000  0.71945000  1.0 0.1289872559
H  H316  1  0.27450000  0.13456000  0.56143000  1.0 0.1002287415
H  H317  1  0.34091000  0.22005000  0.57802000  1.0 0.1127874247
H  H318  1  0.19418000  0.10576000  0.59291000  1.0 0.1198266228
H  H319  1  0.14085000  0.95244000  0.59611000  1.0 0.1289872559
H  H320  1  0.30616000  0.05184000  0.66971000  1.0 0.1198266228
H  H321  1  0.39258000  0.04042000  0.37246000  1.0 0.0810469481
H  H322  1  0.31718000  0.88208000  0.26134000  1.0 0.1198266228
H  H323  1  0.36161000  0.89703000  0.32263000  1.0 0.0897770459
H  H324  1  0.38313000  0.91220000  0.27769000  1.0 0.0897770459
H  H325  1  0.27023000  0.93950000  0.26618000  1.0 0.1784175344
H  H326  1  0.30620000  0.00500000  0.28529000  1.0 0.1002287415
H  H327  1  0.29055000  0.98269000  0.32961000  1.0 0.1002287415
H  H328  1  0.58995000  0.64321000  0.96829000  1.0 0.0810469481
H  H329  1  0.55833000  0.67899000  0.83326000  1.0 0.1289872559
H  H330  1  0.56239000  0.72279000  0.88985000  1.0 0.0810469481
H  H331  1  0.50934000  0.66353000  0.85489000  1.0 0.1002287415
H  H332  1  0.60835000  0.63602000  0.83960000  1.0 0.1488604833
H  H333  1  0.59354000  0.59054000  0.86556000  1.0 0.1388054154
H  H334  1  0.64939000  0.64734000  0.90114000  1.0 0.1289872559
H  H335  1  0.34311000  0.86377000  0.27135000  1.0 0.0610940924
H  H336  1  0.35139000  0.89086000  0.33538000  1.0 0.1002287415
H  H337  1  0.29619000  0.79641000  0.29573000  1.0 0.1289872559
H  H338  1  0.25219000  0.80407000  0.24790000  1.0 0.1198266228
H  H339  1  0.26046000  0.83119000  0.31199000  1.0 0.1198266228
H  H340  1  0.29938000  0.47293000  0.94332000  1.0 0.0897770459
H  H341  1  0.28933000  0.58756000  0.88953000  1.0 0.0701927196
H  H342  1  0.23714000  0.52764000  0.85959000  1.0 0.0897770459
H  H343  1  0.24458000  0.57387000  0.91652000  1.0 0.1127874247
H  H344  1  0.36651000  0.54773000  0.98910000  1.0 0.1198266228
H  H345  1  0.37553000  0.59661000  0.96659000  1.0 0.1198266228
H  H346  1  0.34269000  0.59447000  0.00685000  1.0 0.1002287415
H  H347  1  0.55439000  0.76882000  0.98467000  1.0 0.1127874247
H  H348  1  0.44365000  0.62467000  0.94587000  1.0 0.1567519771
H  H349  1  0.42474000  0.67576000  0.94916000  1.0 0.1902739817
H  H350  1  0.46095000  0.67311000  0.00568000  1.0 0.1567519771
H  H351  1  0.49901000  0.62536000  0.91014000  1.0 0.1289872559
H  H352  1  0.55965000  0.67601000  0.93675000  1.0 0.1388054154
H  H353  1  0.50811000  0.67526000  0.88902000  1.0 0.1002287415
H  H354  1  0.26248000  0.50389000  0.86823000  1.0 0.0897770459
H  H355  1  0.34548000  0.54944000  0.03071000  1.0 0.1198266228
H  H356  1  0.31953000  0.48370000  0.99165000  1.0 0.0897770459
H  H357  1  0.27904000  0.51344000  0.00486000  1.0 0.0810469481
H  H358  1  0.37451000  0.60710000  0.99080000  1.0 0.1002287415
H  H359  1  0.32522000  0.60569000  0.94017000  1.0 0.0897770459
H  H360  1  0.36557000  0.57565000  0.92716000  1.0 0.1289872559
H  H361  1  0.66115000  0.96703000  0.00622000  1.0 0.1198266228
H  H362  1  0.74677000  0.96391000  0.05092000  1.0 0.1289872559
H  H363  1  0.72891000  0.99847000  0.19514000  1.0 0.1289872559
H  H364  1  0.64360000  0.00696000  0.15396000  1.0 0.1127874247
H  H365  1  0.87902000  0.83119000  0.30432000  1.0 0.1198266228
H  H366  1  0.87041000  0.90806000  0.28476000  1.0 0.1289872559
H  H367  1  0.82924000  0.82331000  0.12188000  1.0 0.1198266228
H  H368  1  0.83705000  0.74585000  0.14119000  1.0 0.1198266228
H  H369  1  0.84757000  0.04232000  0.14918000  1.0 0.1388054154
H  H370  1  0.93305000  0.96045000  0.21253000  1.0 0.1289872559
H  H371  1  0.95225000  0.08864000  0.19840000  1.0 0.1388054154
H  H372  1  0.95005000  0.04130000  0.14549000  1.0 0.1567519771
H  H373  1  0.98436000  0.04893000  0.20793000  1.0 0.1388054154
H  H374  1  0.74849000  0.91325000  0.23652000  1.0 0.1289872559
H  H375  1  0.66313000  0.85174000  0.21945000  1.0 0.1289872559
H  H376  1  0.63456000  0.77450000  0.06143000  1.0 0.1002287415
H  H377  1  0.72005000  0.84091000  0.07802000  1.0 0.1127874247
H  H378  1  0.60576000  0.69418000  0.09291000  1.0 0.1198266228
H  H379  1  0.45244000  0.64085000  0.09611000  1.0 0.1289872559
H  H380  1  0.55184000  0.80616000  0.16971000  1.0 0.1198266228
H  H381  1  0.54042000  0.89258000  0.87246000  1.0 0.0810469481
H  H382  1  0.38208000  0.81718000  0.76134000  1.0 0.1198266228
H  H383  1  0.39703000  0.86161000  0.82263000  1.0 0.0897770459
H  H384  1  0.41220000  0.88313000  0.77769000  1.0 0.0897770459
H  H385  1  0.43950000  0.77023000  0.76618000  1.0 0.1784175344
H  H386  1  0.50500000  0.80620000  0.78529000  1.0 0.1002287415
H  H387  1  0.48269000  0.79055000  0.82961000  1.0 0.1002287415
H  H388  1  0.14321000  0.08995000  0.46829000  1.0 0.0810469481
H  H389  1  0.17899000  0.05833000  0.33326000  1.0 0.1388054154
H  H390  1  0.22279000  0.06239000  0.38985000  1.0 0.0810469481
H  H391  1  0.16353000  0.00934000  0.35489000  1.0 0.1002287415
H  H392  1  0.13602000  0.10835000  0.33960000  1.0 0.1488604833
H  H393  1  0.09054000  0.09354000  0.36556000  1.0 0.1388054154
H  H394  1  0.14734000  0.14939000  0.40114000  1.0 0.1289872559
H  H395  1  0.36377000  0.84311000  0.77135000  1.0 0.0610940924
H  H396  1  0.39086000  0.85139000  0.83538000  1.0 0.1002287415
H  H397  1  0.29641000  0.79619000  0.79573000  1.0 0.1289872559
H  H398  1  0.30407000  0.75219000  0.74790000  1.0 0.1198266228
H  H399  1  0.33119000  0.76046000  0.81199000  1.0 0.1198266228
H  H400  1  0.97293000  0.79938000  0.44332000  1.0 0.0897770459
H  H401  1  0.08756000  0.78933000  0.38953000  1.0 0.0701927196
H  H402  1  0.02764000  0.73714000  0.35959000  1.0 0.0897770459
H  H403  1  0.07387000  0.74458000  0.41652000  1.0 0.1127874247
H  H404  1  0.04773000  0.86651000  0.48910000  1.0 0.1198266228
H  H405  1  0.09661000  0.87553000  0.46659000  1.0 0.1198266228
H  H406  1  0.09447000  0.84269000  0.50685000  1.0 0.1002287415
H  H407  1  0.26882000  0.05439000  0.48467000  1.0 0.1127874247
H  H408  1  0.12467000  0.94365000  0.44587000  1.0 0.1567519771
H  H409  1  0.17576000  0.92474000  0.44916000  1.0 0.1902739817
H  H410  1  0.17311000  0.96095000  0.50568000  1.0 0.1567519771
H  H411  1  0.12536000  0.99901000  0.41014000  1.0 0.1289872559
H  H412  1  0.17601000  0.05965000  0.43675000  1.0 0.1388054154
H  H413  1  0.17526000  0.00811000  0.38902000  1.0 0.1002287415
H  H414  1  0.00389000  0.76248000  0.36823000  1.0 0.0897770459
H  H415  1  0.04944000  0.84548000  0.53071000  1.0 0.1198266228
H  H416  1  0.98370000  0.81953000  0.49165000  1.0 0.0897770459
H  H417  1  0.01344000  0.77904000  0.50486000  1.0 0.0810469481
H  H418  1  0.10710000  0.87451000  0.49080000  1.0 0.1002287415
H  H419  1  0.10569000  0.82522000  0.44017000  1.0 0.0897770459
H  H420  1  0.07565000  0.86557000  0.42716000  1.0 0.1289872559
H  H421  1  0.00622000  0.66115000  0.96703000  1.0 0.1198266228
H  H422  1  0.05092000  0.74677000  0.96391000  1.0 0.1289872559
H  H423  1  0.19514000  0.72891000  0.99847000  1.0 0.1289872559
H  H424  1  0.15396000  0.64360000  0.00696000  1.0 0.1127874247
H  H425  1  0.30432000  0.87902000  0.83119000  1.0 0.1198266228
H  H426  1  0.28476000  0.87041000  0.90806000  1.0 0.1289872559
H  H427  1  0.12188000  0.82924000  0.82331000  1.0 0.1198266228
H  H428  1  0.14119000  0.83705000  0.74585000  1.0 0.1198266228
H  H429  1  0.14918000  0.84757000  0.04232000  1.0 0.1388054154
H  H430  1  0.21253000  0.93305000  0.96045000  1.0 0.1289872559
H  H431  1  0.19840000  0.95225000  0.08864000  1.0 0.1289872559
H  H432  1  0.14549000  0.95005000  0.04130000  1.0 0.1567519771
H  H433  1  0.20793000  0.98436000  0.04893000  1.0 0.1388054154
H  H434  1  0.23652000  0.74849000  0.91325000  1.0 0.1289872559
H  H435  1  0.21945000  0.66313000  0.85174000  1.0 0.1289872559
H  H436  1  0.06143000  0.63456000  0.77450000  1.0 0.1002287415
H  H437  1  0.07802000  0.72005000  0.84091000  1.0 0.1127874247
H  H438  1  0.09291000  0.60576000  0.69418000  1.0 0.1198266228
H  H439  1  0.09611000  0.45244000  0.64085000  1.0 0.1289872559
H  H440  1  0.16971000  0.55184000  0.80616000  1.0 0.1198266228
H  H441  1  0.87246000  0.54042000  0.89258000  1.0 0.0810469481
H  H442  1  0.76134000  0.38208000  0.81718000  1.0 0.1198266228
H  H443  1  0.82263000  0.39703000  0.86161000  1.0 0.0897770459
H  H444  1  0.77769000  0.41220000  0.88313000  1.0 0.0897770459
H  H445  1  0.76618000  0.43950000  0.77023000  1.0 0.1784175344
H  H446  1  0.78529000  0.50500000  0.80620000  1.0 0.1002287415
H  H447  1  0.82961000  0.48269000  0.79055000  1.0 0.1002287415
H  H448  1  0.46829000  0.14321000  0.08995000  1.0 0.0810469481
H  H449  1  0.33326000  0.17899000  0.05833000  1.0 0.1388054154
H  H450  1  0.38985000  0.22279000  0.06239000  1.0 0.0810469481
H  H451  1  0.35489000  0.16353000  0.00934000  1.0 0.1002287415
H  H452  1  0.33960000  0.13602000  0.10835000  1.0 0.1488604833
H  H453  1  0.36556000  0.09054000  0.09354000  1.0 0.1388054154
H  H454  1  0.40114000  0.14734000  0.14939000  1.0 0.1289872559
H  H455  1  0.77135000  0.36377000  0.84311000  1.0 0.0610940924
H  H456  1  0.83538000  0.39086000  0.85139000  1.0 0.1002287415
H  H457  1  0.79573000  0.29641000  0.79619000  1.0 0.1289872559
H  H458  1  0.74790000  0.30407000  0.75219000  1.0 0.1198266228
H  H459  1  0.81199000  0.33119000  0.76046000  1.0 0.1198266228
H  H460  1  0.44332000  0.97293000  0.79938000  1.0 0.0897770459
H  H461  1  0.38953000  0.08756000  0.78933000  1.0 0.0701927196
H  H462  1  0.35959000  0.02764000  0.73714000  1.0 0.0897770459
H  H463  1  0.41652000  0.07387000  0.74458000  1.0 0.1127874247
H  H464  1  0.48910000  0.04773000  0.86651000  1.0 0.1198266228
H  H465  1  0.46659000  0.09661000  0.87553000  1.0 0.1198266228
H  H466  1  0.50685000  0.09447000  0.84269000  1.0 0.1002287415
H  H467  1  0.48467000  0.26882000  0.05439000  1.0 0.1127874247
H  H468  1  0.44587000  0.12467000  0.94365000  1.0 0.1567519771
H  H469  1  0.44916000  0.17576000  0.92474000  1.0 0.1902739817
H  H470  1  0.50568000  0.17311000  0.96095000  1.0 0.1567519771
H  H471  1  0.41014000  0.12536000  0.99901000  1.0 0.1289872559
H  H472  1  0.43675000  0.17601000  0.05965000  1.0 0.1388054154
H  H473  1  0.38902000  0.17526000  0.00811000  1.0 0.1002287415
H  H474  1  0.36823000  0.00389000  0.76248000  1.0 0.0897770459
H  H475  1  0.53071000  0.04944000  0.84548000  1.0 0.1198266228
H  H476  1  0.49165000  0.98370000  0.81953000  1.0 0.0897770459
H  H477  1  0.50486000  0.01344000  0.77904000  1.0 0.0810469481
H  H478  1  0.49080000  0.10710000  0.87451000  1.0 0.1002287415
H  H479  1  0.44017000  0.10569000  0.82522000  1.0 0.0897770459
H  H480  1  0.42716000  0.07565000  0.86557000  1.0 0.1289872559
H  H481  1  0.96703000  0.00622000  0.66115000  1.0 0.1198266228
H  H482  1  0.96391000  0.05092000  0.74677000  1.0 0.1289872559
H  H483  1  0.99847000  0.19514000  0.72891000  1.0 0.1289872559
H  H484  1  0.00696000  0.15396000  0.64360000  1.0 0.1127874247
H  H485  1  0.83119000  0.30432000  0.87902000  1.0 0.1198266228
H  H486  1  0.90806000  0.28476000  0.87041000  1.0 0.1289872559
H  H487  1  0.82331000  0.12188000  0.82924000  1.0 0.1198266228
H  H488  1  0.74585000  0.14119000  0.83705000  1.0 0.1198266228
H  H489  1  0.04232000  0.14918000  0.84757000  1.0 0.1388054154
H  H490  1  0.96045000  0.21253000  0.93305000  1.0 0.1289872559
H  H491  1  0.08864000  0.19840000  0.95225000  1.0 0.1388054154
H  H492  1  0.04130000  0.14549000  0.95005000  1.0 0.1567519771
H  H493  1  0.04893000  0.20793000  0.98436000  1.0 0.1388054154
H  H494  1  0.91325000  0.23652000  0.74849000  1.0 0.1289872559
H  H495  1  0.85174000  0.21945000  0.66313000  1.0 0.1289872559
H  H496  1  0.77450000  0.06143000  0.63456000  1.0 0.1002287415
H  H497  1  0.84091000  0.07802000  0.72005000  1.0 0.1127874247
H  H498  1  0.69418000  0.09291000  0.60576000  1.0 0.1198266228
H  H499  1  0.64085000  0.09611000  0.45244000  1.0 0.1289872559
H  H500  1  0.80616000  0.16971000  0.55184000  1.0 0.1198266228
H  H501  1  0.89258000  0.87246000  0.54042000  1.0 0.0810469481
H  H502  1  0.81718000  0.76134000  0.38208000  1.0 0.1198266228
H  H503  1  0.86161000  0.82263000  0.39703000  1.0 0.0897770459
H  H504  1  0.88313000  0.77769000  0.41220000  1.0 0.0897770459
H  H505  1  0.77023000  0.76618000  0.43950000  1.0 0.1784175344
H  H506  1  0.80620000  0.78529000  0.50500000  1.0 0.1002287415
H  H507  1  0.79055000  0.82961000  0.48269000  1.0 0.1002287415
H  H508  1  0.08995000  0.46829000  0.14321000  1.0 0.0810469481
H  H509  1  0.05833000  0.33326000  0.17899000  1.0 0.1388054154
H  H510  1  0.06239000  0.38985000  0.22279000  1.0 0.0810469481
H  H511  1  0.00934000  0.35489000  0.16353000  1.0 0.1002287415
H  H512  1  0.10835000  0.33960000  0.13602000  1.0 0.1488604833
H  H513  1  0.09354000  0.36556000  0.09054000  1.0 0.1388054154
H  H514  1  0.14939000  0.40114000  0.14734000  1.0 0.1289872559
H  H515  1  0.84311000  0.77135000  0.36377000  1.0 0.0610940924
H  H516  1  0.85139000  0.83538000  0.39086000  1.0 0.1002287415
H  H517  1  0.79619000  0.79573000  0.29641000  1.0 0.1289872559
H  H518  1  0.75219000  0.74790000  0.30407000  1.0 0.1198266228
H  H519  1  0.76046000  0.81199000  0.33119000  1.0 0.1198266228
H  H520  1  0.79938000  0.44332000  0.97293000  1.0 0.0897770459
H  H521  1  0.78933000  0.38953000  0.08756000  1.0 0.0701927196
H  H522  1  0.73714000  0.35959000  0.02764000  1.0 0.0897770459
H  H523  1  0.74458000  0.41652000  0.07387000  1.0 0.1127874247
H  H524  1  0.86651000  0.48910000  0.04773000  1.0 0.1198266228
H  H525  1  0.87553000  0.46659000  0.09661000  1.0 0.1198266228
H  H526  1  0.84269000  0.50685000  0.09447000  1.0 0.1002287415
H  H527  1  0.05439000  0.48467000  0.26882000  1.0 0.1127874247
H  H528  1  0.94365000  0.44587000  0.12467000  1.0 0.1567519771
H  H529  1  0.92474000  0.44916000  0.17576000  1.0 0.1902739817
H  H530  1  0.96095000  0.50568000  0.17311000  1.0 0.1567519771
H  H531  1  0.99901000  0.41014000  0.12536000  1.0 0.1289872559
H  H532  1  0.05965000  0.43675000  0.17601000  1.0 0.1388054154
H  H533  1  0.00811000  0.38902000  0.17526000  1.0 0.1002287415
H  H534  1  0.76248000  0.36823000  0.00389000  1.0 0.0897770459
H  H535  1  0.84548000  0.53071000  0.04944000  1.0 0.1198266228
H  H536  1  0.81953000  0.49165000  0.98370000  1.0 0.0897770459
H  H537  1  0.77904000  0.50486000  0.01344000  1.0 0.0810469481
H  H538  1  0.87451000  0.49080000  0.10710000  1.0 0.1002287415
H  H539  1  0.82522000  0.44017000  0.10569000  1.0 0.0897770459
H  H540  1  0.86557000  0.42716000  0.07565000  1.0 0.1289872559
H  H541  1  0.83885000  0.49378000  0.53297000  1.0 0.1198266228
H  H542  1  0.75323000  0.44908000  0.53609000  1.0 0.1289872559
H  H543  1  0.77109000  0.30486000  0.50153000  1.0 0.1289872559
H  H544  1  0.85640000  0.34604000  0.49304000  1.0 0.1127874247
H  H545  1  0.62098000  0.19568000  0.66881000  1.0 0.1198266228
H  H546  1  0.62959000  0.21524000  0.59194000  1.0 0.1289872559
H  H547  1  0.67076000  0.37812000  0.67669000  1.0 0.1198266228
H  H548  1  0.66295000  0.35881000  0.75415000  1.0 0.1198266228
H  H549  1  0.65243000  0.35082000  0.45768000  1.0 0.1388054154
H  H550  1  0.56695000  0.28747000  0.53955000  1.0 0.1289872559
H  H551  1  0.54775000  0.30160000  0.41136000  1.0 0.1388054154
H  H552  1  0.54995000  0.35451000  0.45870000  1.0 0.1567519771
H  H553  1  0.51564000  0.29207000  0.45107000  1.0 0.1388054154
H  H554  1  0.75151000  0.26348000  0.58675000  1.0 0.1289872559
H  H555  1  0.83687000  0.28055000  0.64826000  1.0 0.1289872559
H  H556  1  0.86544000  0.43857000  0.72550000  1.0 0.1002287415
H  H557  1  0.77995000  0.42198000  0.65909000  1.0 0.1127874247
H  H558  1  0.89424000  0.40709000  0.80582000  1.0 0.1198266228
H  H559  1  0.04756000  0.40389000  0.85915000  1.0 0.1289872559
H  H560  1  0.94816000  0.33029000  0.69384000  1.0 0.1198266228
H  H561  1  0.95958000  0.62754000  0.60742000  1.0 0.0810469481
H  H562  1  0.11792000  0.73866000  0.68282000  1.0 0.1198266228
H  H563  1  0.10297000  0.67737000  0.63839000  1.0 0.0897770459
H  H564  1  0.08780000  0.72231000  0.61687000  1.0 0.0897770459
H  H565  1  0.06050000  0.73382000  0.72977000  1.0 0.1784175344
H  H566  1  0.99500000  0.71471000  0.69380000  1.0 0.1002287415
H  H567  1  0.01731000  0.67039000  0.70945000  1.0 0.1002287415
H  H568  1  0.35679000  0.03171000  0.41005000  1.0 0.0810469481
H  H569  1  0.32101000  0.16674000  0.44167000  1.0 0.1388054154
H  H570  1  0.27721000  0.11015000  0.43761000  1.0 0.0810469481
H  H571  1  0.33647000  0.14511000  0.49066000  1.0 0.1002287415
H  H572  1  0.36398000  0.16040000  0.39165000  1.0 0.1488604833
H  H573  1  0.40946000  0.13444000  0.40646000  1.0 0.1388054154
H  H574  1  0.35266000  0.09886000  0.35061000  1.0 0.1289872559
H  H575  1  0.13623000  0.72865000  0.65689000  1.0 0.0610940924
H  H576  1  0.10914000  0.66462000  0.64861000  1.0 0.1002287415
H  H577  1  0.20359000  0.70427000  0.70381000  1.0 0.1289872559
H  H578  1  0.19593000  0.75210000  0.74781000  1.0 0.1198266228
H  H579  1  0.16881000  0.68801000  0.73954000  1.0 0.1198266228
H  H580  1  0.52707000  0.05668000  0.70062000  1.0 0.0897770459
H  H581  1  0.41244000  0.11047000  0.71067000  1.0 0.0701927196
H  H582  1  0.47236000  0.14041000  0.76286000  1.0 0.0897770459
H  H583  1  0.42613000  0.08348000  0.75542000  1.0 0.1127874247
H  H584  1  0.45227000  0.01090000  0.63349000  1.0 0.1198266228
H  H585  1  0.40339000  0.03341000  0.62447000  1.0 0.1198266228
H  H586  1  0.40553000  0.99315000  0.65731000  1.0 0.1002287415
H  H587  1  0.23118000  0.01533000  0.44561000  1.0 0.1127874247
H  H588  1  0.37533000  0.05413000  0.55635000  1.0 0.1567519771
H  H589  1  0.32424000  0.05084000  0.57526000  1.0 0.1902739817
H  H590  1  0.32689000  0.99432000  0.53905000  1.0 0.1567519771
H  H591  1  0.37464000  0.08986000  0.50099000  1.0 0.1289872559
H  H592  1  0.32399000  0.06325000  0.44035000  1.0 0.1388054154
H  H593  1  0.32474000  0.11098000  0.49189000  1.0 0.1002287415
H  H594  1  0.49611000  0.13177000  0.73752000  1.0 0.0897770459
H  H595  1  0.45056000  0.96929000  0.65452000  1.0 0.1198266228
H  H596  1  0.51630000  0.00835000  0.68047000  1.0 0.0897770459
H  H597  1  0.48656000  0.99514000  0.72096000  1.0 0.0810469481
H  H598  1  0.39290000  0.00920000  0.62549000  1.0 0.1002287415
H  H599  1  0.39431000  0.05983000  0.67478000  1.0 0.0897770459
H  H600  1  0.42435000  0.07284000  0.63443000  1.0 0.1289872559
H  H601  1  0.49378000  0.53297000  0.83885000  1.0 0.1198266228
H  H602  1  0.44908000  0.53609000  0.75323000  1.0 0.1289872559
H  H603  1  0.30486000  0.50153000  0.77109000  1.0 0.1289872559
H  H604  1  0.34604000  0.49304000  0.85640000  1.0 0.1127874247
H  H605  1  0.19568000  0.66881000  0.62098000  1.0 0.1198266228
H  H606  1  0.21524000  0.59194000  0.62959000  1.0 0.1289872559
H  H607  1  0.37812000  0.67669000  0.67076000  1.0 0.1198266228
H  H608  1  0.35881000  0.75415000  0.66295000  1.0 0.1198266228
H  H609  1  0.35082000  0.45768000  0.65243000  1.0 0.1388054154
H  H610  1  0.28747000  0.53955000  0.56695000  1.0 0.1289872559
H  H611  1  0.30160000  0.41136000  0.54775000  1.0 0.1388054154
H  H612  1  0.35451000  0.45870000  0.54995000  1.0 0.1567519771
H  H613  1  0.29207000  0.45107000  0.51564000  1.0 0.1388054154
H  H614  1  0.26348000  0.58675000  0.75151000  1.0 0.1289872559
H  H615  1  0.28055000  0.64826000  0.83687000  1.0 0.1289872559
H  H616  1  0.43857000  0.72550000  0.86544000  1.0 0.1002287415
H  H617  1  0.42198000  0.65909000  0.77995000  1.0 0.1127874247
H  H618  1  0.40709000  0.80582000  0.89424000  1.0 0.1198266228
H  H619  1  0.40389000  0.85915000  0.04756000  1.0 0.1289872559
H  H620  1  0.33029000  0.69384000  0.94816000  1.0 0.1198266228
H  H621  1  0.62754000  0.60742000  0.95958000  1.0 0.0810469481
H  H622  1  0.73866000  0.68282000  0.11792000  1.0 0.1198266228
H  H623  1  0.67737000  0.63839000  0.10297000  1.0 0.0897770459
H  H624  1  0.72231000  0.61687000  0.08780000  1.0 0.0897770459
H  H625  1  0.73382000  0.72977000  0.06050000  1.0 0.1784175344
H  H626  1  0.71471000  0.69380000  0.99500000  1.0 0.1002287415
H  H627  1  0.67039000  0.70945000  0.01731000  1.0 0.1002287415
H  H628  1  0.03171000  0.41005000  0.35679000  1.0 0.0810469481
H  H629  1  0.16674000  0.44167000  0.32101000  1.0 0.1388054154
H  H630  1  0.11015000  0.43761000  0.27721000  1.0 0.0810469481
H  H631  1  0.14511000  0.49066000  0.33647000  1.0 0.1002287415
H  H632  1  0.16040000  0.39165000  0.36398000  1.0 0.1488604833
H  H633  1  0.13444000  0.40646000  0.40946000  1.0 0.1388054154
H  H634  1  0.09886000  0.35061000  0.35266000  1.0 0.1289872559
H  H635  1  0.72865000  0.65689000  0.13623000  1.0 0.0610940924
H  H636  1  0.66462000  0.64861000  0.10914000  1.0 0.1002287415
H  H637  1  0.70427000  0.70381000  0.20359000  1.0 0.1289872559
H  H638  1  0.75210000  0.74781000  0.19593000  1.0 0.1198266228
H  H639  1  0.68801000  0.73954000  0.16881000  1.0 0.1198266228
H  H640  1  0.05668000  0.70062000  0.52707000  1.0 0.0897770459
H  H641  1  0.11047000  0.71067000  0.41244000  1.0 0.0701927196
H  H642  1  0.14041000  0.76286000  0.47236000  1.0 0.0897770459
H  H643  1  0.08348000  0.75542000  0.42613000  1.0 0.1127874247
H  H644  1  0.01090000  0.63349000  0.45227000  1.0 0.1198266228
H  H645  1  0.03341000  0.62447000  0.40339000  1.0 0.1198266228
H  H646  1  0.99315000  0.65731000  0.40553000  1.0 0.1002287415
H  H647  1  0.01533000  0.44561000  0.23118000  1.0 0.1127874247
H  H648  1  0.05413000  0.55635000  0.37533000  1.0 0.1567519771
H  H649  1  0.05084000  0.57526000  0.32424000  1.0 0.1902739817
H  H650  1  0.99432000  0.53905000  0.32689000  1.0 0.1567519771
H  H651  1  0.08986000  0.50099000  0.37464000  1.0 0.1289872559
H  H652  1  0.06325000  0.44035000  0.32399000  1.0 0.1388054154
H  H653  1  0.11098000  0.49189000  0.32474000  1.0 0.1002287415
H  H654  1  0.13177000  0.73752000  0.49611000  1.0 0.0897770459
H  H655  1  0.96929000  0.65452000  0.45056000  1.0 0.1198266228
H  H656  1  0.00835000  0.68047000  0.51630000  1.0 0.0897770459
H  H657  1  0.99514000  0.72096000  0.48656000  1.0 0.0810469481
H  H658  1  0.00920000  0.62549000  0.39290000  1.0 0.1002287415
H  H659  1  0.05983000  0.67478000  0.39431000  1.0 0.0897770459
H  H660  1  0.07284000  0.63443000  0.42435000  1.0 0.1289872559
H  H661  1  0.53297000  0.83885000  0.49378000  1.0 0.1198266228
H  H662  1  0.53609000  0.75323000  0.44908000  1.0 0.1289872559
H  H663  1  0.50153000  0.77109000  0.30486000  1.0 0.1289872559
H  H664  1  0.49304000  0.85640000  0.34604000  1.0 0.1127874247
H  H665  1  0.66881000  0.62098000  0.19568000  1.0 0.1198266228
H  H666  1  0.59194000  0.62959000  0.21524000  1.0 0.1289872559
H  H667  1  0.67669000  0.67076000  0.37812000  1.0 0.1198266228
H  H668  1  0.75415000  0.66295000  0.35881000  1.0 0.1198266228
H  H669  1  0.45768000  0.65243000  0.35082000  1.0 0.1388054154
H  H670  1  0.53955000  0.56695000  0.28747000  1.0 0.1289872559
H  H671  1  0.41136000  0.54775000  0.30160000  1.0 0.1388054154
H  H672  1  0.45870000  0.54995000  0.35451000  1.0 0.1567519771
H  H673  1  0.45107000  0.51564000  0.29207000  1.0 0.1388054154
H  H674  1  0.58675000  0.75151000  0.26348000  1.0 0.1289872559
H  H675  1  0.64826000  0.83687000  0.28055000  1.0 0.1289872559
H  H676  1  0.72550000  0.86544000  0.43857000  1.0 0.1002287415
H  H677  1  0.65909000  0.77995000  0.42198000  1.0 0.1127874247
H  H678  1  0.80582000  0.89424000  0.40709000  1.0 0.1198266228
H  H679  1  0.85915000  0.04756000  0.40389000  1.0 0.1289872559
H  H680  1  0.69384000  0.94816000  0.33029000  1.0 0.1198266228
H  H681  1  0.60742000  0.95958000  0.62754000  1.0 0.0810469481
H  H682  1  0.68282000  0.11792000  0.73866000  1.0 0.1198266228
H  H683  1  0.63839000  0.10297000  0.67737000  1.0 0.0897770459
H  H684  1  0.61687000  0.08780000  0.72231000  1.0 0.0897770459
H  H685  1  0.72977000  0.06050000  0.73382000  1.0 0.1784175344
H  H686  1  0.69380000  0.99500000  0.71471000  1.0 0.1002287415
H  H687  1  0.70945000  0.01731000  0.67039000  1.0 0.1002287415
H  H688  1  0.41005000  0.35679000  0.03171000  1.0 0.0810469481
H  H689  1  0.44167000  0.32101000  0.16674000  1.0 0.1388054154
H  H690  1  0.43761000  0.27721000  0.11015000  1.0 0.0810469481
H  H691  1  0.49066000  0.33647000  0.14511000  1.0 0.1002287415
H  H692  1  0.39165000  0.36398000  0.16040000  1.0 0.1488604833
H  H693  1  0.40646000  0.40946000  0.13444000  1.0 0.1388054154
H  H694  1  0.35061000  0.35266000  0.09886000  1.0 0.1289872559
H  H695  1  0.65689000  0.13623000  0.72865000  1.0 0.0610940924
H  H696  1  0.64861000  0.10914000  0.66462000  1.0 0.1002287415
H  H697  1  0.70381000  0.20359000  0.70427000  1.0 0.1289872559
H  H698  1  0.74781000  0.19593000  0.75210000  1.0 0.1198266228
H  H699  1  0.73954000  0.16881000  0.68801000  1.0 0.1198266228
H  H700  1  0.70062000  0.52707000  0.05668000  1.0 0.0897770459
H  H701  1  0.71067000  0.41244000  0.11047000  1.0 0.0701927196
H  H702  1  0.76286000  0.47236000  0.14041000  1.0 0.0897770459
H  H703  1  0.75542000  0.42613000  0.08348000  1.0 0.1127874247
H  H704  1  0.63349000  0.45227000  0.01090000  1.0 0.1198266228
H  H705  1  0.62447000  0.40339000  0.03341000  1.0 0.1198266228
H  H706  1  0.65731000  0.40553000  0.99315000  1.0 0.1002287415
H  H707  1  0.44561000  0.23118000  0.01533000  1.0 0.1127874247
H  H708  1  0.55635000  0.37533000  0.05413000  1.0 0.1567519771
H  H709  1  0.57526000  0.32424000  0.05084000  1.0 0.1902739817
H  H710  1  0.53905000  0.32689000  0.99432000  1.0 0.1567519771
H  H711  1  0.50099000  0.37464000  0.08986000  1.0 0.1289872559
H  H712  1  0.44035000  0.32399000  0.06325000  1.0 0.1388054154
H  H713  1  0.49189000  0.32474000  0.11098000  1.0 0.1002287415
H  H714  1  0.73752000  0.49611000  0.13177000  1.0 0.0897770459
H  H715  1  0.65452000  0.45056000  0.96929000  1.0 0.1198266228
H  H716  1  0.68047000  0.51630000  0.00835000  1.0 0.0897770459
H  H717  1  0.72096000  0.48656000  0.99514000  1.0 0.0810469481
H  H718  1  0.62549000  0.39290000  0.00920000  1.0 0.1002287415
H  H719  1  0.67478000  0.39431000  0.05983000  1.0 0.0897770459
H  H720  1  0.63443000  0.42435000  0.07284000  1.0 0.1289872559
H  H721  1  0.59492000  0.69542000  0.44978000  1.0 0.0810469481
H  H722  1  0.61457000  0.64660000  0.42683000  1.0 0.0810469481
H  H723  1  0.68714000  0.73312000  0.46239000  1.0 0.1002287415
H  H724  1  0.68321000  0.74785000  0.52224000  1.0 0.1289872559
H  H725  1  0.70290000  0.69895000  0.49925000  1.0 0.1388054154
H  H726  1  0.44978000  0.59492000  0.69542000  1.0 0.0810469481
H  H727  1  0.42683000  0.61457000  0.64660000  1.0 0.0810469481
H  H728  1  0.46239000  0.68714000  0.73312000  1.0 0.1002287415
H  H729  1  0.52224000  0.68321000  0.74785000  1.0 0.1289872559
H  H730  1  0.49925000  0.70290000  0.69895000  1.0 0.1388054154
H  H731  1  0.69542000  0.44978000  0.59492000  1.0 0.0810469481
H  H732  1  0.64660000  0.42683000  0.61457000  1.0 0.0810469481
H  H733  1  0.73312000  0.46239000  0.68714000  1.0 0.1002287415
H  H734  1  0.74785000  0.52224000  0.68321000  1.0 0.1289872559
H  H735  1  0.69895000  0.49925000  0.70290000  1.0 0.1388054154
H  H736  1  0.90508000  0.05022000  0.80458000  1.0 0.0810469481
H  H737  1  0.88543000  0.07317000  0.85340000  1.0 0.0810469481
H  H738  1  0.81286000  0.03761000  0.76688000  1.0 0.1002287415
H  H739  1  0.81679000  0.97776000  0.75215000  1.0 0.1289872559
H  H740  1  0.79710000  0.00075000  0.80105000  1.0 0.1388054154
H  H741  1  0.05022000  0.80458000  0.90508000  1.0 0.0810469481
H  H742  1  0.07317000  0.85340000  0.88543000  1.0 0.0810469481
H  H743  1  0.03761000  0.76688000  0.81286000  1.0 0.1002287415
H  H744  1  0.97776000  0.75215000  0.81679000  1.0 0.1289872559
H  H745  1  0.00075000  0.80105000  0.79710000  1.0 0.1388054154
H  H746  1  0.80458000  0.90508000  0.05022000  1.0 0.0810469481
H  H747  1  0.85340000  0.88543000  0.07317000  1.0 0.0810469481
H  H748  1  0.76688000  0.81286000  0.03761000  1.0 0.1002287415
H  H749  1  0.75215000  0.81679000  0.97776000  1.0 0.1289872559
H  H750  1  0.80105000  0.79710000  0.00075000  1.0 0.1388054154
H  H751  1  0.40508000  0.30458000  0.55022000  1.0 0.0810469481
H  H752  1  0.38543000  0.35340000  0.57317000  1.0 0.0810469481
H  H753  1  0.31286000  0.26688000  0.53761000  1.0 0.1002287415
H  H754  1  0.31679000  0.25215000  0.47776000  1.0 0.1289872559
H  H755  1  0.29710000  0.30105000  0.50075000  1.0 0.1388054154
H  H756  1  0.55022000  0.40508000  0.30458000  1.0 0.0810469481
H  H757  1  0.57317000  0.38543000  0.35340000  1.0 0.0810469481
H  H758  1  0.53761000  0.31286000  0.26688000  1.0 0.1002287415
H  H759  1  0.47776000  0.31679000  0.25215000  1.0 0.1289872559
H  H760  1  0.50075000  0.29710000  0.30105000  1.0 0.1388054154
H  H761  1  0.30458000  0.55022000  0.40508000  1.0 0.0810469481
H  H762  1  0.35340000  0.57317000  0.38543000  1.0 0.0810469481
H  H763  1  0.26688000  0.53761000  0.31286000  1.0 0.1002287415
H  H764  1  0.25215000  0.47776000  0.31679000  1.0 0.1289872559
H  H765  1  0.30105000  0.50075000  0.29710000  1.0 0.1388054154
H  H766  1  0.09492000  0.94978000  0.19542000  1.0 0.0810469481
H  H767  1  0.11457000  0.92683000  0.14660000  1.0 0.0810469481
H  H768  1  0.18714000  0.96239000  0.23312000  1.0 0.1002287415
H  H769  1  0.18321000  0.02224000  0.24785000  1.0 0.1289872559
H  H770  1  0.20290000  0.99925000  0.19895000  1.0 0.1388054154
H  H771  1  0.94978000  0.19542000  0.09492000  1.0 0.0810469481
H  H772  1  0.92683000  0.14660000  0.11457000  1.0 0.0810469481
H  H773  1  0.96239000  0.23312000  0.18714000  1.0 0.1002287415
H  H774  1  0.02224000  0.24785000  0.18321000  1.0 0.1289872559
H  H775  1  0.99925000  0.19895000  0.20290000  1.0 0.1388054154
H  H776  1  0.19542000  0.09492000  0.94978000  1.0 0.0810469481
H  H777  1  0.14660000  0.11457000  0.92683000  1.0 0.0810469481
H  H778  1  0.23312000  0.18714000  0.96239000  1.0 0.1002287415
H  H779  1  0.24785000  0.18321000  0.02224000  1.0 0.1289872559
H  H780  1  0.19895000  0.20290000  0.99925000  1.0 0.1388054154
C  C1  1  0.41053000  0.00831000  0.95126000  1.0 0.5020525333
C  C2  1  0.35662000  0.01347000  0.92411000  1.0 -0.039620223
C  C3  1  0.32559000  0.02621000  0.95500000  1.0 -0.1216841091
C  C4  1  0.27528000  0.02892000  0.92850000  1.0 -0.1459489886
C  C5  1  0.25665000  0.02155000  0.87350000  1.0 0.0701927196
C  C6  1  0.28516000  0.00804000  0.84350000  1.0 -0.1329875361
C  C7  1  0.33651000  0.00322000  0.86807000  1.0 -0.2299060324
C  C8  1  0.13830000  0.26960000  0.76570000  1.0 0.5482452687
C  C9  1  0.13160000  0.17120000  0.73310000  1.0 -0.0936370391
C  C10  1  0.13610000  0.12510000  0.74500000  1.0 -0.1329875361
C  C11  1  0.14956000  0.12654000  0.79850000  1.0 0.0610940924
C  C12  1  0.16030000  0.17420000  0.84060000  1.0 -0.1591101424
C  C13  1  0.15600000  0.22110000  0.82860000  1.0 -0.1082439695
C  C14  1  0.14288000  0.22082000  0.77750000  1.0 -0.0211832693
C  C15  1  0.15158000  0.07792000  0.81150000  1.0 0.0302175348
C  C16  1  0.20275000  0.07255000  0.83350000  1.0 -0.0289097473
C  C17  1  0.20219000  0.02661000  0.84820000  1.0 0.0302175348
C  C18  1  0.15220000  0.98830000  0.84050000  1.0 -0.2009524081
C  C19  1  0.10210000  0.99180000  0.81870000  1.0 0.1902739817
C  C20  1  0.10170000  0.03690000  0.80340000  1.0 -0.2219925447
C  C21  1  0.04910000  0.94940000  0.81660000  1.0 -0.4475312952
C  C22  1  0.25711000  0.11572000  0.84097000  1.0 0.0701927196
C  C23  1  0.27460000  0.11470000  0.80050000  1.0 -0.1012695788
C  C24  1  0.32526000  0.15330000  0.81084000  1.0 -0.1591101424
C  C25  1  0.35989000  0.19673000  0.85836000  1.0 0.0302175348
C  C26  1  0.34224000  0.19730000  0.90166000  1.0 -0.2647346679
C  C27  1  0.29110000  0.15710000  0.89160000  1.0 -0.2009524081
C  C28  1  0.41253000  0.24210000  0.86856000  1.0 0.0101852666
C  C29  1  0.42240000  0.29746000  0.89672000  1.0 -0.1937062093
C  C30  1  0.47216000  0.34095000  0.91018000  1.0 -0.0211832693
C  C31  1  0.51332000  0.32924000  0.89474000  1.0 -0.1329875361
C  C32  1  0.50501000  0.27539000  0.86660000  1.0 -0.0048568521
C  C33  1  0.45454000  0.23130000  0.85175000  1.0 -0.2906068339
C  C34  1  0.48203000  0.40045000  0.94302000  1.0 0.5194928225
C  C35  1  0.55338000  0.26352000  0.85560000  1.0 0.5375060912
C  C36  1  0.49200000  0.10160000  0.14490000  1.0 0.0610940924
C  C37  1  0.59050000  0.14650000  0.20820000  1.0 -0.0590563877
C  C38  1  0.52620000  0.19940000  0.20280000  1.0 -0.1937062093
C  C39  1  0.84060000  0.92730000  0.55430000  1.0 0.0101852666
C  C40  1  0.81710000  0.95000000  0.63340000  1.0 -0.3605015186
C  C41  1  0.86920000  0.88990000  0.62580000  1.0 -0.344747347
C  C42  1  0.62650000  0.17640000  0.20410000  1.0 -0.0764499653
C  C43  1  0.67780000  0.22050000  0.21280000  1.0 -0.4248694602
C  C44  1  0.01630000  0.22520000  0.57990000  1.0 0.1567519771
C  C45  1  0.94190000  0.23550000  0.60410000  1.0 -0.3605015186
C  C46  1  0.92830000  0.15030000  0.52350000  1.0 -0.1012695788
C  C47  1  0.75020000  0.97790000  0.51040000  1.0 -0.0211832693
C  C48  1  0.83500000  0.04530000  0.53370000  1.0 -0.1329875361
C  C49  1  0.83420000  0.98100000  0.57840000  1.0 -0.039620223
C  C50  1  0.00640000  0.23470000  0.60070000  1.0 0.1784175344
C  C51  1  0.98150000  0.18670000  0.50200000  1.0 -0.3055860821
C  C52  1  0.91560000  0.15350000  0.54800000  1.0 -0.1012695788
C  C53  1  0.95126000  0.41053000  0.00831000  1.0 0.5020525333
C  C54  1  0.92411000  0.35662000  0.01347000  1.0 -0.039620223
C  C55  1  0.95500000  0.32559000  0.02621000  1.0 -0.1216841091
C  C56  1  0.92850000  0.27528000  0.02892000  1.0 -0.1459489886
C  C57  1  0.87350000  0.25665000  0.02155000  1.0 0.0701927196
C  C58  1  0.84350000  0.28516000  0.00804000  1.0 -0.1329875361
C  C59  1  0.86807000  0.33651000  0.00322000  1.0 -0.2299060324
C  C60  1  0.76570000  0.13830000  0.26960000  1.0 0.5482452687
C  C61  1  0.73310000  0.13160000  0.17120000  1.0 -0.0936370391
C  C62  1  0.74500000  0.13610000  0.12510000  1.0 -0.1329875361
C  C63  1  0.79850000  0.14956000  0.12654000  1.0 0.0610940924
C  C64  1  0.84060000  0.16030000  0.17420000  1.0 -0.1591101424
C  C65  1  0.82860000  0.15600000  0.22110000  1.0 -0.1082439695
C  C66  1  0.77750000  0.14288000  0.22082000  1.0 -0.0211832693
C  C67  1  0.81150000  0.15158000  0.07792000  1.0 0.0302175348
C  C68  1  0.83350000  0.20275000  0.07255000  1.0 -0.0289097473
C  C69  1  0.84820000  0.20219000  0.02661000  1.0 0.0302175348
C  C70  1  0.84050000  0.15220000  0.98830000  1.0 -0.2009524081
C  C71  1  0.81870000  0.10210000  0.99180000  1.0 0.1902739817
C  C72  1  0.80340000  0.10170000  0.03690000  1.0 -0.2219925447
C  C73  1  0.81660000  0.04910000  0.94940000  1.0 -0.4475312952
C  C74  1  0.84097000  0.25711000  0.11572000  1.0 0.0701927196
C  C75  1  0.80050000  0.27460000  0.11470000  1.0 -0.1012695788
C  C76  1  0.81084000  0.32526000  0.15330000  1.0 -0.1591101424
C  C77  1  0.85836000  0.35989000  0.19673000  1.0 0.0302175348
C  C78  1  0.90166000  0.34224000  0.19730000  1.0 -0.2647346679
C  C79  1  0.89160000  0.29110000  0.15710000  1.0 -0.2009524081
C  C80  1  0.86856000  0.41253000  0.24210000  1.0 0.0101852666
C  C81  1  0.89672000  0.42240000  0.29746000  1.0 -0.1937062093
C  C82  1  0.91018000  0.47216000  0.34095000  1.0 -0.0211832693
C  C83  1  0.89474000  0.51332000  0.32924000  1.0 -0.1329875361
C  C84  1  0.86660000  0.50501000  0.27539000  1.0 -0.0048568521
C  C85  1  0.85175000  0.45454000  0.23130000  1.0 -0.2906068339
C  C86  1  0.94302000  0.48203000  0.40045000  1.0 0.5194928225
C  C87  1  0.85560000  0.55338000  0.26352000  1.0 0.5375060912
C  C88  1  0.14490000  0.49200000  0.10160000  1.0 0.0610940924
C  C89  1  0.20820000  0.59050000  0.14650000  1.0 -0.0590563877
C  C90  1  0.20280000  0.52620000  0.19940000  1.0 -0.1937062093
C  C91  1  0.55430000  0.84060000  0.92730000  1.0 0.0101852666
C  C92  1  0.63340000  0.81710000  0.95000000  1.0 -0.3605015186
C  C93  1  0.62580000  0.86920000  0.88990000  1.0 -0.344747347
C  C94  1  0.20410000  0.62650000  0.17640000  1.0 -0.0764499653
C  C95  1  0.21280000  0.67780000  0.22050000  1.0 -0.4268106703
C  C96  1  0.57990000  0.01630000  0.22520000  1.0 0.1567519771
C  C97  1  0.60410000  0.94190000  0.23550000  1.0 -0.3605015186
C  C98  1  0.52350000  0.92830000  0.15030000  1.0 -0.1012695788
C  C99  1  0.51040000  0.75020000  0.97790000  1.0 -0.0211832693
C  C100  1  0.53370000  0.83500000  0.04530000  1.0 -0.1329875361
C  C101  1  0.57840000  0.83420000  0.98100000  1.0 -0.039620223
C  C102  1  0.60070000  0.00640000  0.23470000  1.0 0.1784175344
C  C103  1  0.50200000  0.98150000  0.18670000  1.0 -0.3055860821
C  C104  1  0.54800000  0.91560000  0.15350000  1.0 -0.1012695788
C  C105  1  0.00831000  0.95126000  0.41053000  1.0 0.5020525333
C  C106  1  0.01347000  0.92411000  0.35662000  1.0 -0.039620223
C  C107  1  0.02621000  0.95500000  0.32559000  1.0 -0.1216841091
C  C108  1  0.02892000  0.92850000  0.27528000  1.0 -0.1459489886
C  C109  1  0.02155000  0.87350000  0.25665000  1.0 0.0701927196
C  C110  1  0.00804000  0.84350000  0.28516000  1.0 -0.1329875361
C  C111  1  0.00322000  0.86807000  0.33651000  1.0 -0.2299060324
C  C112  1  0.26960000  0.76570000  0.13830000  1.0 0.5482452687
C  C113  1  0.17120000  0.73310000  0.13160000  1.0 -0.0936370391
C  C114  1  0.12510000  0.74500000  0.13610000  1.0 -0.1329875361
C  C115  1  0.12654000  0.79850000  0.14956000  1.0 0.0610940924
C  C116  1  0.17420000  0.84060000  0.16030000  1.0 -0.1591101424
C  C117  1  0.22110000  0.82860000  0.15600000  1.0 -0.1082439695
C  C118  1  0.22082000  0.77750000  0.14288000  1.0 -0.0211832693
C  C119  1  0.07792000  0.81150000  0.15158000  1.0 0.0302175348
C  C120  1  0.07255000  0.83350000  0.20275000  1.0 -0.0289097473
C  C121  1  0.02661000  0.84820000  0.20219000  1.0 0.0302175348
C  C122  1  0.98830000  0.84050000  0.15220000  1.0 -0.2009524081
C  C123  1  0.99180000  0.81870000  0.10210000  1.0 0.1902739817
C  C124  1  0.03690000  0.80340000  0.10170000  1.0 -0.2219925447
C  C125  1  0.94940000  0.81660000  0.04910000  1.0 -0.4475312952
C  C126  1  0.11572000  0.84097000  0.25711000  1.0 0.0701927196
C  C127  1  0.11470000  0.80050000  0.27460000  1.0 -0.1012695788
C  C128  1  0.15330000  0.81084000  0.32526000  1.0 -0.1591101424
C  C129  1  0.19673000  0.85836000  0.35989000  1.0 0.0302175348
C  C130  1  0.19730000  0.90166000  0.34224000  1.0 -0.2647346679
C  C131  1  0.15710000  0.89160000  0.29110000  1.0 -0.2009524081
C  C132  1  0.24210000  0.86856000  0.41253000  1.0 0.0101852666
C  C133  1  0.29746000  0.89672000  0.42240000  1.0 -0.1937062093
C  C134  1  0.34095000  0.91018000  0.47216000  1.0 -0.0211832693
C  C135  1  0.32924000  0.89474000  0.51332000  1.0 -0.1329875361
C  C136  1  0.27539000  0.86660000  0.50501000  1.0 -0.0083530786
C  C137  1  0.23130000  0.85175000  0.45454000  1.0 -0.2906068339
C  C138  1  0.40045000  0.94302000  0.48203000  1.0 0.5194928225
C  C139  1  0.26352000  0.85560000  0.55338000  1.0 0.5375060912
C  C140  1  0.10160000  0.14490000  0.49200000  1.0 0.0610940924
C  C141  1  0.14650000  0.20820000  0.59050000  1.0 -0.0590563877
C  C142  1  0.19940000  0.20280000  0.52620000  1.0 -0.1937062093
C  C143  1  0.92730000  0.55430000  0.84060000  1.0 0.0101852666
C  C144  1  0.95000000  0.63340000  0.81710000  1.0 -0.3605015186
C  C145  1  0.88990000  0.62580000  0.86920000  1.0 -0.344747347
C  C146  1  0.17640000  0.20410000  0.62650000  1.0 -0.0764499653
C  C147  1  0.22050000  0.21280000  0.67780000  1.0 -0.4248694602
C  C148  1  0.22520000  0.57990000  0.01630000  1.0 0.1567519771
C  C149  1  0.23550000  0.60410000  0.94190000  1.0 -0.3605015186
C  C150  1  0.15030000  0.52350000  0.92830000  1.0 -0.1012695788
C  C151  1  0.97790000  0.51040000  0.75020000  1.0 -0.0211832693
C  C152  1  0.04530000  0.53370000  0.83500000  1.0 -0.1329875361
C  C153  1  0.98100000  0.57840000  0.83420000  1.0 -0.039620223
C  C154  1  0.23470000  0.60070000  0.00640000  1.0 0.1784175344
C  C155  1  0.18670000  0.50200000  0.98150000  1.0 -0.3055860821
C  C156  1  0.15350000  0.54800000  0.91560000  1.0 -0.1082439695
C  C157  1  0.08947000  0.54874000  0.49169000  1.0 0.5020525333
C  C158  1  0.14338000  0.57589000  0.48653000  1.0 -0.039620223
C  C159  1  0.17441000  0.54500000  0.47379000  1.0 -0.1216841091
C  C160  1  0.22472000  0.57150000  0.47108000  1.0 -0.1459489886
C  C161  1  0.24335000  0.62650000  0.47845000  1.0 0.0701927196
C  C162  1  0.21484000  0.65650000  0.49196000  1.0 -0.1329875361
C  C163  1  0.16349000  0.63193000  0.49678000  1.0 -0.2299060324
C  C164  1  0.36170000  0.73430000  0.23040000  1.0 0.5482452687
C  C165  1  0.36840000  0.76690000  0.32880000  1.0 -0.0936370391
C  C166  1  0.36390000  0.75500000  0.37490000  1.0 -0.1329875361
C  C167  1  0.35044000  0.70150000  0.37346000  1.0 0.0610940924
C  C168  1  0.33970000  0.65940000  0.32580000  1.0 -0.1591101424
C  C169  1  0.34400000  0.67140000  0.27890000  1.0 -0.1082439695
C  C170  1  0.35712000  0.72250000  0.27918000  1.0 -0.0211832693
C  C171  1  0.34842000  0.68850000  0.42208000  1.0 0.0302175348
C  C172  1  0.29725000  0.66650000  0.42745000  1.0 -0.0289097473
C  C173  1  0.29781000  0.65180000  0.47339000  1.0 0.0302175348
C  C174  1  0.34780000  0.65950000  0.51170000  1.0 -0.2009524081
C  C175  1  0.39790000  0.68130000  0.50820000  1.0 0.1902739817
C  C176  1  0.39830000  0.69660000  0.46310000  1.0 -0.2219925447
C  C177  1  0.45090000  0.68340000  0.55060000  1.0 -0.4475312952
C  C178  1  0.24289000  0.65903000  0.38428000  1.0 0.0701927196
C  C179  1  0.22540000  0.69950000  0.38530000  1.0 -0.1012695788
C  C180  1  0.17474000  0.68916000  0.34670000  1.0 -0.1591101424
C  C181  1  0.14011000  0.64164000  0.30327000  1.0 0.0302175348
C  C182  1  0.15776000  0.59834000  0.30270000  1.0 -0.2647346679
C  C183  1  0.20890000  0.60840000  0.34290000  1.0 -0.2009524081
C  C184  1  0.08747000  0.63144000  0.25790000  1.0 0.0101852666
C  C185  1  0.07760000  0.60328000  0.20254000  1.0 -0.1937062093
C  C186  1  0.02784000  0.58982000  0.15905000  1.0 -0.0211832693
C  C187  1  0.98668000  0.60526000  0.17076000  1.0 -0.1329875361
C  C188  1  0.99499000  0.63340000  0.22461000  1.0 -0.0048568521
C  C189  1  0.04546000  0.64825000  0.26870000  1.0 -0.2906068339
C  C190  1  0.01797000  0.55698000  0.09955000  1.0 0.5194928225
C  C191  1  0.94662000  0.64440000  0.23648000  1.0 0.5375060912
C  C192  1  0.00800000  0.35510000  0.39840000  1.0 0.0610940924
C  C193  1  0.90950000  0.29180000  0.35350000  1.0 -0.0590563877
C  C194  1  0.97380000  0.29720000  0.30060000  1.0 -0.1937062093
C  C195  1  0.65940000  0.94570000  0.57270000  1.0 0.0101852666
C  C196  1  0.68290000  0.86660000  0.55000000  1.0 -0.3605015186
C  C197  1  0.63080000  0.87420000  0.61010000  1.0 -0.344747347
C  C198  1  0.87350000  0.29590000  0.32360000  1.0 -0.0764499653
C  C199  1  0.82220000  0.28720000  0.27950000  1.0 -0.4248694602
C  C200  1  0.48370000  0.92010000  0.27480000  1.0 0.1567519771
C  C201  1  0.55810000  0.89590000  0.26450000  1.0 -0.3605015186
C  C202  1  0.57170000  0.97650000  0.34970000  1.0 -0.1012695788
C  C203  1  0.74980000  0.98960000  0.52210000  1.0 -0.0211832693
C  C204  1  0.66500000  0.96630000  0.45470000  1.0 -0.1329875361
C  C205  1  0.66580000  0.92160000  0.51900000  1.0 -0.039620223
C  C206  1  0.49360000  0.89930000  0.26530000  1.0 0.1784175344
C  C207  1  0.51850000  0.99800000  0.31330000  1.0 -0.3055860821
C  C208  1  0.58440000  0.95200000  0.34650000  1.0 -0.1012695788
C  C209  1  0.54874000  0.49169000  0.08947000  1.0 0.5020525333
C  C210  1  0.57589000  0.48653000  0.14338000  1.0 -0.039620223
C  C211  1  0.54500000  0.47379000  0.17441000  1.0 -0.1216841091
C  C212  1  0.57150000  0.47108000  0.22472000  1.0 -0.1459489886
C  C213  1  0.62650000  0.47845000  0.24335000  1.0 0.0701927196
C  C214  1  0.65650000  0.49196000  0.21484000  1.0 -0.1329875361
C  C215  1  0.63193000  0.49678000  0.16349000  1.0 -0.2299060324
C  C216  1  0.73430000  0.23040000  0.36170000  1.0 0.5482452687
C  C217  1  0.76690000  0.32880000  0.36840000  1.0 -0.0936370391
C  C218  1  0.75500000  0.37490000  0.36390000  1.0 -0.1329875361
C  C219  1  0.70150000  0.37346000  0.35044000  1.0 0.0610940924
C  C220  1  0.65940000  0.32580000  0.33970000  1.0 -0.1591101424
C  C221  1  0.67140000  0.27890000  0.34400000  1.0 -0.1082439695
C  C222  1  0.72250000  0.27918000  0.35712000  1.0 -0.0211832693
C  C223  1  0.68850000  0.42208000  0.34842000  1.0 0.0302175348
C  C224  1  0.66650000  0.42745000  0.29725000  1.0 -0.0289097473
C  C225  1  0.65180000  0.47339000  0.29781000  1.0 0.0302175348
C  C226  1  0.65950000  0.51170000  0.34780000  1.0 -0.2009524081
C  C227  1  0.68130000  0.50820000  0.39790000  1.0 0.1902739817
C  C228  1  0.69660000  0.46310000  0.39830000  1.0 -0.2219925447
C  C229  1  0.68340000  0.55060000  0.45090000  1.0 -0.4475312952
C  C230  1  0.65903000  0.38428000  0.24289000  1.0 0.0701927196
C  C231  1  0.69950000  0.38530000  0.22540000  1.0 -0.1012695788
C  C232  1  0.68916000  0.34670000  0.17474000  1.0 -0.1591101424
C  C233  1  0.64164000  0.30327000  0.14011000  1.0 0.0302175348
C  C234  1  0.59834000  0.30270000  0.15776000  1.0 -0.2647346679
C  C235  1  0.60840000  0.34290000  0.20890000  1.0 -0.2009524081
C  C236  1  0.63144000  0.25790000  0.08747000  1.0 0.0101852666
C  C237  1  0.60328000  0.20254000  0.07760000  1.0 -0.1937062093
C  C238  1  0.58982000  0.15905000  0.02784000  1.0 -0.0211832693
C  C239  1  0.60526000  0.17076000  0.98668000  1.0 -0.1329875361
C  C240  1  0.63340000  0.22461000  0.99499000  1.0 -0.0048568521
C  C241  1  0.64825000  0.26870000  0.04546000  1.0 -0.2906068339
C  C242  1  0.55698000  0.09955000  0.01797000  1.0 0.5194928225
C  C243  1  0.64440000  0.23648000  0.94662000  1.0 0.5375060912
C  C244  1  0.35510000  0.39840000  0.00800000  1.0 0.0610940924
C  C245  1  0.29180000  0.35350000  0.90950000  1.0 -0.0590563877
C  C246  1  0.29720000  0.30060000  0.97380000  1.0 -0.1937062093
C  C247  1  0.94570000  0.57270000  0.65940000  1.0 0.0101852666
C  C248  1  0.86660000  0.55000000  0.68290000  1.0 -0.3605015186
C  C249  1  0.87420000  0.61010000  0.63080000  1.0 -0.344747347
C  C250  1  0.29590000  0.32360000  0.87350000  1.0 -0.0764499653
C  C251  1  0.28720000  0.27950000  0.82220000  1.0 -0.4248694602
C  C252  1  0.92010000  0.27480000  0.48370000  1.0 0.1567519771
C  C253  1  0.89590000  0.26450000  0.55810000  1.0 -0.3605015186
C  C254  1  0.97650000  0.34970000  0.57170000  1.0 -0.1012695788
C  C255  1  0.98960000  0.52210000  0.74980000  1.0 -0.0211832693
C  C256  1  0.96630000  0.45470000  0.66500000  1.0 -0.1329875361
C  C257  1  0.92160000  0.51900000  0.66580000  1.0 -0.039620223
C  C258  1  0.89930000  0.26530000  0.49360000  1.0 0.1784175344
C  C259  1  0.99800000  0.31330000  0.51850000  1.0 -0.3055860821
C  C260  1  0.95200000  0.34650000  0.58440000  1.0 -0.1012695788
C  C261  1  0.49169000  0.08947000  0.54874000  1.0 0.5020525333
C  C262  1  0.48653000  0.14338000  0.57589000  1.0 -0.039620223
C  C263  1  0.47379000  0.17441000  0.54500000  1.0 -0.1216841091
C  C264  1  0.47108000  0.22472000  0.57150000  1.0 -0.1459489886
C  C265  1  0.47845000  0.24335000  0.62650000  1.0 0.0701927196
C  C266  1  0.49196000  0.21484000  0.65650000  1.0 -0.1329875361
C  C267  1  0.49678000  0.16349000  0.63193000  1.0 -0.2299060324
C  C268  1  0.23040000  0.36170000  0.73430000  1.0 0.5482452687
C  C269  1  0.32880000  0.36840000  0.76690000  1.0 -0.0936370391
C  C270  1  0.37490000  0.36390000  0.75500000  1.0 -0.1329875361
C  C271  1  0.37346000  0.35044000  0.70150000  1.0 0.0610940924
C  C272  1  0.32580000  0.33970000  0.65940000  1.0 -0.1591101424
C  C273  1  0.27890000  0.34400000  0.67140000  1.0 -0.1082439695
C  C274  1  0.27918000  0.35712000  0.72250000  1.0 -0.0211832693
C  C275  1  0.42208000  0.34842000  0.68850000  1.0 0.0302175348
C  C276  1  0.42745000  0.29725000  0.66650000  1.0 -0.0289097473
C  C277  1  0.47339000  0.29781000  0.65180000  1.0 0.0302175348
C  C278  1  0.51170000  0.34780000  0.65950000  1.0 -0.2009524081
C  C279  1  0.50820000  0.39790000  0.68130000  1.0 0.1902739817
C  C280  1  0.46310000  0.39830000  0.69660000  1.0 -0.2219925447
C  C281  1  0.55060000  0.45090000  0.68340000  1.0 -0.4475312952
C  C282  1  0.38428000  0.24289000  0.65903000  1.0 0.0701927196
C  C283  1  0.38530000  0.22540000  0.69950000  1.0 -0.1012695788
C  C284  1  0.34670000  0.17474000  0.68916000  1.0 -0.1591101424
C  C285  1  0.30327000  0.14011000  0.64164000  1.0 0.0302175348
C  C286  1  0.30270000  0.15776000  0.59834000  1.0 -0.2647346679
C  C287  1  0.34290000  0.20890000  0.60840000  1.0 -0.2009524081
C  C288  1  0.25790000  0.08747000  0.63144000  1.0 0.0101852666
C  C289  1  0.20254000  0.07760000  0.60328000  1.0 -0.1937062093
C  C290  1  0.15905000  0.02784000  0.58982000  1.0 -0.0211832693
C  C291  1  0.17076000  0.98668000  0.60526000  1.0 -0.1351794723
C  C292  1  0.22461000  0.99499000  0.63340000  1.0 -0.0083530786
C  C293  1  0.26870000  0.04546000  0.64825000  1.0 -0.2906068339
C  C294  1  0.09955000  0.01797000  0.55698000  1.0 0.5194928225
C  C295  1  0.23648000  0.94662000  0.64440000  1.0 0.5375060912
C  C296  1  0.39840000  0.00800000  0.35510000  1.0 0.0610940924
C  C297  1  0.35350000  0.90950000  0.29180000  1.0 -0.0590563877
C  C298  1  0.30060000  0.97380000  0.29720000  1.0 -0.1937062093
C  C299  1  0.57270000  0.65940000  0.94570000  1.0 0.0101852666
C  C300  1  0.55000000  0.68290000  0.86660000  1.0 -0.3605015186
C  C301  1  0.61010000  0.63080000  0.87420000  1.0 -0.344747347
C  C302  1  0.32360000  0.87350000  0.29590000  1.0 -0.0764499653
C  C303  1  0.27950000  0.82220000  0.28720000  1.0 -0.4268106703
C  C304  1  0.27480000  0.48370000  0.92010000  1.0 0.1567519771
C  C305  1  0.26450000  0.55810000  0.89590000  1.0 -0.3605015186
C  C306  1  0.34970000  0.57170000  0.97650000  1.0 -0.1012695788
C  C307  1  0.52210000  0.74980000  0.98960000  1.0 -0.0211832693
C  C308  1  0.45470000  0.66500000  0.96630000  1.0 -0.1329875361
C  C309  1  0.51900000  0.66580000  0.92160000  1.0 -0.039620223
C  C310  1  0.26530000  0.49360000  0.89930000  1.0 0.1784175344
C  C311  1  0.31330000  0.51850000  0.99800000  1.0 -0.3055860821
C  C312  1  0.34650000  0.58440000  0.95200000  1.0 -0.1082439695
C  C313  1  0.58947000  0.99169000  0.04874000  1.0 0.5020525333
C  C314  1  0.64338000  0.98653000  0.07589000  1.0 -0.039620223
C  C315  1  0.67441000  0.97379000  0.04500000  1.0 -0.1216841091
C  C316  1  0.72472000  0.97108000  0.07150000  1.0 -0.1459489886
C  C317  1  0.74335000  0.97845000  0.12650000  1.0 0.0701927196
C  C318  1  0.71484000  0.99196000  0.15650000  1.0 -0.1329875361
C  C319  1  0.66349000  0.99678000  0.13193000  1.0 -0.2299060324
C  C320  1  0.86170000  0.73040000  0.23430000  1.0 0.5482452687
C  C321  1  0.86840000  0.82880000  0.26690000  1.0 -0.0936370391
C  C322  1  0.86390000  0.87490000  0.25500000  1.0 -0.1329875361
C  C323  1  0.85044000  0.87346000  0.20150000  1.0 0.0610940924
C  C324  1  0.83970000  0.82580000  0.15940000  1.0 -0.1591101424
C  C325  1  0.84400000  0.77890000  0.17140000  1.0 -0.1082439695
C  C326  1  0.85712000  0.77918000  0.22250000  1.0 -0.0211832693
C  C327  1  0.84842000  0.92208000  0.18850000  1.0 0.0302175348
C  C328  1  0.79725000  0.92745000  0.16650000  1.0 -0.0289097473
C  C329  1  0.79781000  0.97339000  0.15180000  1.0 0.0302175348
C  C330  1  0.84780000  0.01170000  0.15950000  1.0 -0.2009524081
C  C331  1  0.89790000  0.00820000  0.18130000  1.0 0.1902739817
C  C332  1  0.89830000  0.96310000  0.19660000  1.0 -0.2219925447
C  C333  1  0.95090000  0.05060000  0.18340000  1.0 -0.4475312952
C  C334  1  0.74289000  0.88428000  0.15903000  1.0 0.0701927196
C  C335  1  0.72540000  0.88530000  0.19950000  1.0 -0.1012695788
C  C336  1  0.67474000  0.84670000  0.18916000  1.0 -0.1591101424
C  C337  1  0.64011000  0.80327000  0.14164000  1.0 0.0302175348
C  C338  1  0.65776000  0.80270000  0.09834000  1.0 -0.2647346679
C  C339  1  0.70890000  0.84290000  0.10840000  1.0 -0.2009524081
C  C340  1  0.58747000  0.75790000  0.13144000  1.0 0.0101852666
C  C341  1  0.57760000  0.70254000  0.10328000  1.0 -0.1937062093
C  C342  1  0.52784000  0.65905000  0.08982000  1.0 -0.0211832693
C  C343  1  0.48668000  0.67076000  0.10526000  1.0 -0.1329875361
C  C344  1  0.49499000  0.72461000  0.13340000  1.0 -0.0083530786
C  C345  1  0.54546000  0.76870000  0.14825000  1.0 -0.2906068339
C  C346  1  0.51797000  0.59955000  0.05698000  1.0 0.5194928225
C  C347  1  0.44662000  0.73648000  0.14440000  1.0 0.5375060912
C  C348  1  0.50800000  0.89840000  0.85510000  1.0 0.0533329863
C  C349  1  0.40950000  0.85350000  0.79180000  1.0 -0.0590563877
C  C350  1  0.47380000  0.80060000  0.79720000  1.0 -0.1937062093
C  C351  1  0.15940000  0.07270000  0.44570000  1.0 0.0101852666
C  C352  1  0.18290000  0.05000000  0.36660000  1.0 -0.3605015186
C  C353  1  0.13080000  0.11010000  0.37420000  1.0 -0.344747347
C  C354  1  0.37350000  0.82360000  0.79590000  1.0 -0.0764499653
C  C355  1  0.32220000  0.77950000  0.78720000  1.0 -0.4268106703
C  C356  1  0.98370000  0.77480000  0.42010000  1.0 0.1567519771
C  C357  1  0.05810000  0.76450000  0.39590000  1.0 -0.3605015186
C  C358  1  0.07170000  0.84970000  0.47650000  1.0 -0.1012695788
C  C359  1  0.24980000  0.02210000  0.48960000  1.0 -0.0211832693
C  C360  1  0.16500000  0.95470000  0.46630000  1.0 -0.1329875361
C  C361  1  0.16580000  0.01900000  0.42160000  1.0 -0.039620223
C  C362  1  0.99360000  0.76530000  0.39930000  1.0 0.1784175344
C  C363  1  0.01850000  0.81330000  0.49800000  1.0 -0.3055860821
C  C364  1  0.08440000  0.84650000  0.45200000  1.0 -0.1082439695
C  C365  1  0.04874000  0.58947000  0.99169000  1.0 0.5020525333
C  C366  1  0.07589000  0.64338000  0.98653000  1.0 -0.039620223
C  C367  1  0.04500000  0.67441000  0.97379000  1.0 -0.1216841091
C  C368  1  0.07150000  0.72472000  0.97108000  1.0 -0.1459489886
C  C369  1  0.12650000  0.74335000  0.97845000  1.0 0.0701927196
C  C370  1  0.15650000  0.71484000  0.99196000  1.0 -0.1329875361
C  C371  1  0.13193000  0.66349000  0.99678000  1.0 -0.2299060324
C  C372  1  0.23430000  0.86170000  0.73040000  1.0 0.5482452687
C  C373  1  0.26690000  0.86840000  0.82880000  1.0 -0.0936370391
C  C374  1  0.25500000  0.86390000  0.87490000  1.0 -0.1329875361
C  C375  1  0.20150000  0.85044000  0.87346000  1.0 0.0610940924
C  C376  1  0.15940000  0.83970000  0.82580000  1.0 -0.1591101424
C  C377  1  0.17140000  0.84400000  0.77890000  1.0 -0.1082439695
C  C378  1  0.22250000  0.85712000  0.77918000  1.0 -0.0211832693
C  C379  1  0.18850000  0.84842000  0.92208000  1.0 0.0302175348
C  C380  1  0.16650000  0.79725000  0.92745000  1.0 -0.0289097473
C  C381  1  0.15180000  0.79781000  0.97339000  1.0 0.0302175348
C  C382  1  0.15950000  0.84780000  0.01170000  1.0 -0.2009524081
C  C383  1  0.18130000  0.89790000  0.00820000  1.0 0.1902739817
C  C384  1  0.19660000  0.89830000  0.96310000  1.0 -0.2219925447
C  C385  1  0.18340000  0.95090000  0.05060000  1.0 -0.4475312952
C  C386  1  0.15903000  0.74289000  0.88428000  1.0 0.0701927196
C  C387  1  0.19950000  0.72540000  0.88530000  1.0 -0.1012695788
C  C388  1  0.18916000  0.67474000  0.84670000  1.0 -0.1591101424
C  C389  1  0.14164000  0.64011000  0.80327000  1.0 0.0302175348
C  C390  1  0.09834000  0.65776000  0.80270000  1.0 -0.2647346679
C  C391  1  0.10840000  0.70890000  0.84290000  1.0 -0.2009524081
C  C392  1  0.13144000  0.58747000  0.75790000  1.0 0.0101852666
C  C393  1  0.10328000  0.57760000  0.70254000  1.0 -0.1937062093
C  C394  1  0.08982000  0.52784000  0.65905000  1.0 -0.0211832693
C  C395  1  0.10526000  0.48668000  0.67076000  1.0 -0.1329875361
C  C396  1  0.13340000  0.49499000  0.72461000  1.0 -0.0048568521
C  C397  1  0.14825000  0.54546000  0.76870000  1.0 -0.2906068339
C  C398  1  0.05698000  0.51797000  0.59955000  1.0 0.5194928225
C  C399  1  0.14440000  0.44662000  0.73648000  1.0 0.5375060912
C  C400  1  0.85510000  0.50800000  0.89840000  1.0 0.0533329863
C  C401  1  0.79180000  0.40950000  0.85350000  1.0 -0.0590563877
C  C402  1  0.79720000  0.47380000  0.80060000  1.0 -0.1937062093
C  C403  1  0.44570000  0.15940000  0.07270000  1.0 0.0101852666
C  C404  1  0.36660000  0.18290000  0.05000000  1.0 -0.3605015186
C  C405  1  0.37420000  0.13080000  0.11010000  1.0 -0.344747347
C  C406  1  0.79590000  0.37350000  0.82360000  1.0 -0.0764499653
C  C407  1  0.78720000  0.32220000  0.77950000  1.0 -0.4248694602
C  C408  1  0.42010000  0.98370000  0.77480000  1.0 0.1567519771
C  C409  1  0.39590000  0.05810000  0.76450000  1.0 -0.3605015186
C  C410  1  0.47650000  0.07170000  0.84970000  1.0 -0.1012695788
C  C411  1  0.48960000  0.24980000  0.02210000  1.0 -0.0211832693
C  C412  1  0.46630000  0.16500000  0.95470000  1.0 -0.1329875361
C  C413  1  0.42160000  0.16580000  0.01900000  1.0 -0.039620223
C  C414  1  0.39930000  0.99360000  0.76530000  1.0 0.1784175344
C  C415  1  0.49800000  0.01850000  0.81330000  1.0 -0.3055860821
C  C416  1  0.45200000  0.08440000  0.84650000  1.0 -0.1012695788
C  C417  1  0.99169000  0.04874000  0.58947000  1.0 0.5020525333
C  C418  1  0.98653000  0.07589000  0.64338000  1.0 -0.039620223
C  C419  1  0.97379000  0.04500000  0.67441000  1.0 -0.1216841091
C  C420  1  0.97108000  0.07150000  0.72472000  1.0 -0.1459489886
C  C421  1  0.97845000  0.12650000  0.74335000  1.0 0.0701927196
C  C422  1  0.99196000  0.15650000  0.71484000  1.0 -0.1329875361
C  C423  1  0.99678000  0.13193000  0.66349000  1.0 -0.2299060324
C  C424  1  0.73040000  0.23430000  0.86170000  1.0 0.5482452687
C  C425  1  0.82880000  0.26690000  0.86840000  1.0 -0.0936370391
C  C426  1  0.87490000  0.25500000  0.86390000  1.0 -0.1329875361
C  C427  1  0.87346000  0.20150000  0.85044000  1.0 0.0610940924
C  C428  1  0.82580000  0.15940000  0.83970000  1.0 -0.1591101424
C  C429  1  0.77890000  0.17140000  0.84400000  1.0 -0.1082439695
C  C430  1  0.77918000  0.22250000  0.85712000  1.0 -0.0211832693
C  C431  1  0.92208000  0.18850000  0.84842000  1.0 0.0302175348
C  C432  1  0.92745000  0.16650000  0.79725000  1.0 -0.0289097473
C  C433  1  0.97339000  0.15180000  0.79781000  1.0 0.0302175348
C  C434  1  0.01170000  0.15950000  0.84780000  1.0 -0.2009524081
C  C435  1  0.00820000  0.18130000  0.89790000  1.0 0.1902739817
C  C436  1  0.96310000  0.19660000  0.89830000  1.0 -0.2219925447
C  C437  1  0.05060000  0.18340000  0.95090000  1.0 -0.4475312952
C  C438  1  0.88428000  0.15903000  0.74289000  1.0 0.0701927196
C  C439  1  0.88530000  0.19950000  0.72540000  1.0 -0.1012695788
C  C440  1  0.84670000  0.18916000  0.67474000  1.0 -0.1591101424
C  C441  1  0.80327000  0.14164000  0.64011000  1.0 0.0302175348
C  C442  1  0.80270000  0.09834000  0.65776000  1.0 -0.2647346679
C  C443  1  0.84290000  0.10840000  0.70890000  1.0 -0.2009524081
C  C444  1  0.75790000  0.13144000  0.58747000  1.0 0.0101852666
C  C445  1  0.70254000  0.10328000  0.57760000  1.0 -0.1937062093
C  C446  1  0.65905000  0.08982000  0.52784000  1.0 -0.0211832693
C  C447  1  0.67076000  0.10526000  0.48668000  1.0 -0.1329875361
C  C448  1  0.72461000  0.13340000  0.49499000  1.0 -0.0048568521
C  C449  1  0.76870000  0.14825000  0.54546000  1.0 -0.2906068339
C  C450  1  0.59955000  0.05698000  0.51797000  1.0 0.5194928225
C  C451  1  0.73648000  0.14440000  0.44662000  1.0 0.5375060912
C  C452  1  0.89840000  0.85510000  0.50800000  1.0 0.0610940924
C  C453  1  0.85350000  0.79180000  0.40950000  1.0 -0.0590563877
C  C454  1  0.80060000  0.79720000  0.47380000  1.0 -0.1937062093
C  C455  1  0.07270000  0.44570000  0.15940000  1.0 0.0101852666
C  C456  1  0.05000000  0.36660000  0.18290000  1.0 -0.3605015186
C  C457  1  0.11010000  0.37420000  0.13080000  1.0 -0.3452667419
C  C458  1  0.82360000  0.79590000  0.37350000  1.0 -0.0764499653
C  C459  1  0.77950000  0.78720000  0.32220000  1.0 -0.4268106703
C  C460  1  0.77480000  0.42010000  0.98370000  1.0 0.1567519771
C  C461  1  0.76450000  0.39590000  0.05810000  1.0 -0.3605015186
C  C462  1  0.84970000  0.47650000  0.07170000  1.0 -0.1012695788
C  C463  1  0.02210000  0.48960000  0.24980000  1.0 -0.0211832693
C  C464  1  0.95470000  0.46630000  0.16500000  1.0 -0.1329875361
C  C465  1  0.01900000  0.42160000  0.16580000  1.0 -0.039620223
C  C466  1  0.76530000  0.39930000  0.99360000  1.0 0.1784175344
C  C467  1  0.81330000  0.49800000  0.01850000  1.0 -0.3055860821
C  C468  1  0.84650000  0.45200000  0.08440000  1.0 -0.1012695788
C  C469  1  0.91053000  0.45126000  0.50831000  1.0 0.5020525333
C  C470  1  0.85662000  0.42411000  0.51347000  1.0 -0.039620223
C  C471  1  0.82559000  0.45500000  0.52621000  1.0 -0.1216841091
C  C472  1  0.77528000  0.42850000  0.52892000  1.0 -0.1459489886
C  C473  1  0.75665000  0.37350000  0.52155000  1.0 0.0701927196
C  C474  1  0.78516000  0.34350000  0.50804000  1.0 -0.1329875361
C  C475  1  0.83651000  0.36807000  0.50322000  1.0 -0.2299060324
C  C476  1  0.63830000  0.26570000  0.76960000  1.0 0.5482452687
C  C477  1  0.63160000  0.23310000  0.67120000  1.0 -0.0936370391
C  C478  1  0.63610000  0.24500000  0.62510000  1.0 -0.1329875361
C  C479  1  0.64956000  0.29850000  0.62654000  1.0 0.0610940924
C  C480  1  0.66030000  0.34060000  0.67420000  1.0 -0.1591101424
C  C481  1  0.65600000  0.32860000  0.72110000  1.0 -0.1082439695
C  C482  1  0.64288000  0.27750000  0.72082000  1.0 -0.0211832693
C  C483  1  0.65158000  0.31150000  0.57792000  1.0 0.0302175348
C  C484  1  0.70275000  0.33350000  0.57255000  1.0 -0.0289097473
C  C485  1  0.70219000  0.34820000  0.52661000  1.0 0.0302175348
C  C486  1  0.65220000  0.34050000  0.48830000  1.0 -0.2009524081
C  C487  1  0.60210000  0.31870000  0.49180000  1.0 0.1902739817
C  C488  1  0.60170000  0.30340000  0.53690000  1.0 -0.2219925447
C  C489  1  0.54910000  0.31660000  0.44940000  1.0 -0.4475312952
C  C490  1  0.75711000  0.34097000  0.61572000  1.0 0.0701927196
C  C491  1  0.77460000  0.30050000  0.61470000  1.0 -0.1012695788
C  C492  1  0.82526000  0.31084000  0.65330000  1.0 -0.1591101424
C  C493  1  0.85989000  0.35836000  0.69673000  1.0 0.0302175348
C  C494  1  0.84224000  0.40166000  0.69730000  1.0 -0.2647346679
C  C495  1  0.79110000  0.39160000  0.65710000  1.0 -0.2009524081
C  C496  1  0.91253000  0.36856000  0.74210000  1.0 0.0101852666
C  C497  1  0.92240000  0.39672000  0.79746000  1.0 -0.1937062093
C  C498  1  0.97216000  0.41018000  0.84095000  1.0 -0.0211832693
C  C499  1  0.01332000  0.39474000  0.82924000  1.0 -0.1351794723
C  C500  1  0.00501000  0.36660000  0.77539000  1.0 -0.0048568521
C  C501  1  0.95454000  0.35175000  0.73130000  1.0 -0.2906068339
C  C502  1  0.98203000  0.44302000  0.90045000  1.0 0.5194928225
C  C503  1  0.05338000  0.35560000  0.76352000  1.0 0.5375060912
C  C504  1  0.99200000  0.64490000  0.60160000  1.0 0.0610940924
C  C505  1  0.09050000  0.70820000  0.64650000  1.0 -0.0590563877
C  C506  1  0.02620000  0.70280000  0.69940000  1.0 -0.1937062093
C  C507  1  0.34060000  0.05430000  0.42730000  1.0 0.0101852666
C  C508  1  0.31710000  0.13340000  0.45000000  1.0 -0.3605015186
C  C509  1  0.36920000  0.12580000  0.38990000  1.0 -0.344747347
C  C510  1  0.12650000  0.70410000  0.67640000  1.0 -0.0764499653
C  C511  1  0.17780000  0.71280000  0.72050000  1.0 -0.4268106703
C  C512  1  0.51630000  0.07990000  0.72520000  1.0 0.1567519771
C  C513  1  0.44190000  0.10410000  0.73550000  1.0 -0.3605015186
C  C514  1  0.42830000  0.02350000  0.65030000  1.0 -0.1012695788
C  C515  1  0.25020000  0.01040000  0.47790000  1.0 -0.0211832693
C  C516  1  0.33500000  0.03370000  0.54530000  1.0 -0.1329875361
C  C517  1  0.33420000  0.07840000  0.48100000  1.0 -0.039620223
C  C518  1  0.50640000  0.10070000  0.73470000  1.0 0.1784175344
C  C519  1  0.48150000  0.00200000  0.68670000  1.0 -0.3055860821
C  C520  1  0.41560000  0.04800000  0.65350000  1.0 -0.1012695788
C  C521  1  0.45126000  0.50831000  0.91053000  1.0 0.5020525333
C  C522  1  0.42411000  0.51347000  0.85662000  1.0 -0.039620223
C  C523  1  0.45500000  0.52621000  0.82559000  1.0 -0.1216841091
C  C524  1  0.42850000  0.52892000  0.77528000  1.0 -0.1459489886
C  C525  1  0.37350000  0.52155000  0.75665000  1.0 0.0701927196
C  C526  1  0.34350000  0.50804000  0.78516000  1.0 -0.1329875361
C  C527  1  0.36807000  0.50322000  0.83651000  1.0 -0.2299060324
C  C528  1  0.26570000  0.76960000  0.63830000  1.0 0.5482452687
C  C529  1  0.23310000  0.67120000  0.63160000  1.0 -0.0936370391
C  C530  1  0.24500000  0.62510000  0.63610000  1.0 -0.1329875361
C  C531  1  0.29850000  0.62654000  0.64956000  1.0 0.0610940924
C  C532  1  0.34060000  0.67420000  0.66030000  1.0 -0.1591101424
C  C533  1  0.32860000  0.72110000  0.65600000  1.0 -0.1082439695
C  C534  1  0.27750000  0.72082000  0.64288000  1.0 -0.0211832693
C  C535  1  0.31150000  0.57792000  0.65158000  1.0 0.0302175348
C  C536  1  0.33350000  0.57255000  0.70275000  1.0 -0.0289097473
C  C537  1  0.34820000  0.52661000  0.70219000  1.0 0.0302175348
C  C538  1  0.34050000  0.48830000  0.65220000  1.0 -0.2009524081
C  C539  1  0.31870000  0.49180000  0.60210000  1.0 0.1902739817
C  C540  1  0.30340000  0.53690000  0.60170000  1.0 -0.2219925447
C  C541  1  0.31660000  0.44940000  0.54910000  1.0 -0.4475312952
C  C542  1  0.34097000  0.61572000  0.75711000  1.0 0.0701927196
C  C543  1  0.30050000  0.61470000  0.77460000  1.0 -0.1012695788
C  C544  1  0.31084000  0.65330000  0.82526000  1.0 -0.1591101424
C  C545  1  0.35836000  0.69673000  0.85989000  1.0 0.0302175348
C  C546  1  0.40166000  0.69730000  0.84224000  1.0 -0.2647346679
C  C547  1  0.39160000  0.65710000  0.79110000  1.0 -0.2009524081
C  C548  1  0.36856000  0.74210000  0.91253000  1.0 0.0101852666
C  C549  1  0.39672000  0.79746000  0.92240000  1.0 -0.1937062093
C  C550  1  0.41018000  0.84095000  0.97216000  1.0 -0.0211832693
C  C551  1  0.39474000  0.82924000  0.01332000  1.0 -0.1329875361
C  C552  1  0.36660000  0.77539000  0.00501000  1.0 -0.0083530786
C  C553  1  0.35175000  0.73130000  0.95454000  1.0 -0.2906068339
C  C554  1  0.44302000  0.90045000  0.98203000  1.0 0.5194928225
C  C555  1  0.35560000  0.76352000  0.05338000  1.0 0.5375060912
C  C556  1  0.64490000  0.60160000  0.99200000  1.0 0.0610940924
C  C557  1  0.70820000  0.64650000  0.09050000  1.0 -0.0590563877
C  C558  1  0.70280000  0.69940000  0.02620000  1.0 -0.1937062093
C  C559  1  0.05430000  0.42730000  0.34060000  1.0 0.0101852666
C  C560  1  0.13340000  0.45000000  0.31710000  1.0 -0.3605015186
C  C561  1  0.12580000  0.38990000  0.36920000  1.0 -0.3452667419
C  C562  1  0.70410000  0.67640000  0.12650000  1.0 -0.0764499653
C  C563  1  0.71280000  0.72050000  0.17780000  1.0 -0.4268106703
C  C564  1  0.07990000  0.72520000  0.51630000  1.0 0.1567519771
C  C565  1  0.10410000  0.73550000  0.44190000  1.0 -0.3605015186
C  C566  1  0.02350000  0.65030000  0.42830000  1.0 -0.1012695788
C  C567  1  0.01040000  0.47790000  0.25020000  1.0 -0.0211832693
C  C568  1  0.03370000  0.54530000  0.33500000  1.0 -0.1329875361
C  C569  1  0.07840000  0.48100000  0.33420000  1.0 -0.039620223
C  C570  1  0.10070000  0.73470000  0.50640000  1.0 0.1784175344
C  C571  1  0.00200000  0.68670000  0.48150000  1.0 -0.3055860821
C  C572  1  0.04800000  0.65350000  0.41560000  1.0 -0.1082439695
C  C573  1  0.50831000  0.91053000  0.45126000  1.0 0.5020525333
C  C574  1  0.51347000  0.85662000  0.42411000  1.0 -0.039620223
C  C575  1  0.52621000  0.82559000  0.45500000  1.0 -0.1216841091
C  C576  1  0.52892000  0.77528000  0.42850000  1.0 -0.1459489886
C  C577  1  0.52155000  0.75665000  0.37350000  1.0 0.0701927196
C  C578  1  0.50804000  0.78516000  0.34350000  1.0 -0.1329875361
C  C579  1  0.50322000  0.83651000  0.36807000  1.0 -0.2299060324
C  C580  1  0.76960000  0.63830000  0.26570000  1.0 0.5482452687
C  C581  1  0.67120000  0.63160000  0.23310000  1.0 -0.0936370391
C  C582  1  0.62510000  0.63610000  0.24500000  1.0 -0.1329875361
C  C583  1  0.62654000  0.64956000  0.29850000  1.0 0.0610940924
C  C584  1  0.67420000  0.66030000  0.34060000  1.0 -0.1591101424
C  C585  1  0.72110000  0.65600000  0.32860000  1.0 -0.1082439695
C  C586  1  0.72082000  0.64288000  0.27750000  1.0 -0.0211832693
C  C587  1  0.57792000  0.65158000  0.31150000  1.0 0.0302175348
C  C588  1  0.57255000  0.70275000  0.33350000  1.0 -0.0289097473
C  C589  1  0.52661000  0.70219000  0.34820000  1.0 0.0302175348
C  C590  1  0.48830000  0.65220000  0.34050000  1.0 -0.2009524081
C  C591  1  0.49180000  0.60210000  0.31870000  1.0 0.1902739817
C  C592  1  0.53690000  0.60170000  0.30340000  1.0 -0.2219925447
C  C593  1  0.44940000  0.54910000  0.31660000  1.0 -0.4475312952
C  C594  1  0.61572000  0.75711000  0.34097000  1.0 0.0701927196
C  C595  1  0.61470000  0.77460000  0.30050000  1.0 -0.1012695788
C  C596  1  0.65330000  0.82526000  0.31084000  1.0 -0.1591101424
C  C597  1  0.69673000  0.85989000  0.35836000  1.0 0.0302175348
C  C598  1  0.69730000  0.84224000  0.40166000  1.0 -0.2647346679
C  C599  1  0.65710000  0.79110000  0.39160000  1.0 -0.2009524081
C  C600  1  0.74210000  0.91253000  0.36856000  1.0 0.0101852666
C  C601  1  0.79746000  0.92240000  0.39672000  1.0 -0.1937062093
C  C602  1  0.84095000  0.97216000  0.41018000  1.0 -0.0211832693
C  C603  1  0.82924000  0.01332000  0.39474000  1.0 -0.1329875361
C  C604  1  0.77539000  0.00501000  0.36660000  1.0 -0.0048568521
C  C605  1  0.73130000  0.95454000  0.35175000  1.0 -0.2906068339
C  C606  1  0.90045000  0.98203000  0.44302000  1.0 0.5194928225
C  C607  1  0.76352000  0.05338000  0.35560000  1.0 0.5375060912
C  C608  1  0.60160000  0.99200000  0.64490000  1.0 0.0533329863
C  C609  1  0.64650000  0.09050000  0.70820000  1.0 -0.0590563877
C  C610  1  0.69940000  0.02620000  0.70280000  1.0 -0.1937062093
C  C611  1  0.42730000  0.34060000  0.05430000  1.0 0.0101852666
C  C612  1  0.45000000  0.31710000  0.13340000  1.0 -0.3605015186
C  C613  1  0.38990000  0.36920000  0.12580000  1.0 -0.344747347
C  C614  1  0.67640000  0.12650000  0.70410000  1.0 -0.0764499653
C  C615  1  0.72050000  0.17780000  0.71280000  1.0 -0.4248694602
C  C616  1  0.72520000  0.51630000  0.07990000  1.0 0.1567519771
C  C617  1  0.73550000  0.44190000  0.10410000  1.0 -0.3605015186
C  C618  1  0.65030000  0.42830000  0.02350000  1.0 -0.1012695788
C  C619  1  0.47790000  0.25020000  0.01040000  1.0 -0.0211832693
C  C620  1  0.54530000  0.33500000  0.03370000  1.0 -0.1329875361
C  C621  1  0.48100000  0.33420000  0.07840000  1.0 -0.039620223
C  C622  1  0.73470000  0.50640000  0.10070000  1.0 0.1784175344
C  C623  1  0.68670000  0.48150000  0.00200000  1.0 -0.3055860821
C  C624  1  0.65350000  0.41560000  0.04800000  1.0 -0.1012695788
C  C625  1  0.61950000  0.67650000  0.46130000  1.0 0.0533329863
C  C626  1  0.67800000  0.71740000  0.48850000  1.0 -0.4268106703
C  C627  1  0.46130000  0.61950000  0.67650000  1.0 0.0533329863
C  C628  1  0.48850000  0.67800000  0.71740000  1.0 -0.4268106703
C  C629  1  0.67650000  0.46130000  0.61950000  1.0 0.0533329863
C  C630  1  0.71740000  0.48850000  0.67800000  1.0 -0.4268106703
C  C631  1  0.88050000  0.03870000  0.82350000  1.0 0.0533329863
C  C632  1  0.82200000  0.01150000  0.78260000  1.0 -0.4268106703
C  C633  1  0.03870000  0.82350000  0.88050000  1.0 0.0533329863
C  C634  1  0.01150000  0.78260000  0.82200000  1.0 -0.4268106703
C  C635  1  0.82350000  0.88050000  0.03870000  1.0 0.0533329863
C  C636  1  0.78260000  0.82200000  0.01150000  1.0 -0.4268106703
C  C637  1  0.38050000  0.32350000  0.53870000  1.0 0.0533329863
C  C638  1  0.32200000  0.28260000  0.51150000  1.0 -0.4268106703
C  C639  1  0.53870000  0.38050000  0.32350000  1.0 0.0533329863
C  C640  1  0.51150000  0.32200000  0.28260000  1.0 -0.4268106703
C  C641  1  0.32350000  0.53870000  0.38050000  1.0 0.0533329863
C  C642  1  0.28260000  0.51150000  0.32200000  1.0 -0.4268106703
C  C643  1  0.11950000  0.96130000  0.17650000  1.0 0.0533329863
C  C644  1  0.17800000  0.98850000  0.21740000  1.0 -0.4268106703
C  C645  1  0.96130000  0.17650000  0.11950000  1.0 0.0533329863
C  C646  1  0.98850000  0.21740000  0.17800000  1.0 -0.4268106703
C  C647  1  0.17650000  0.11950000  0.96130000  1.0 0.0533329863
C  C648  1  0.21740000  0.17800000  0.98850000  1.0 -0.4268106703
N  N1  1  0.53500000  0.14890000  0.18750000  1.0 -0.0083530786
N  N2  1  0.84170000  0.92120000  0.60160000  1.0 -0.0488263077
N  N3  1  0.96330000  0.20330000  0.57260000  1.0 0.1488604833
N  N4  1  0.80410000  0.99510000  0.53650000  1.0 -0.0488263077
N  N5  1  0.96890000  0.19280000  0.55110000  1.0 0.1388054154
N  N6  1  0.18750000  0.53500000  0.14890000  1.0 -0.0083530786
N  N7  1  0.60160000  0.84170000  0.92120000  1.0 -0.0488263077
N  N8  1  0.57260000  0.96330000  0.20330000  1.0 0.1488604833
N  N9  1  0.53650000  0.80410000  0.99510000  1.0 -0.0488263077
N  N10  1  0.55110000  0.96890000  0.19280000  1.0 0.1388054154
N  N11  1  0.14890000  0.18750000  0.53500000  1.0 -0.0083530786
N  N12  1  0.92120000  0.60160000  0.84170000  1.0 -0.0488263077
N  N13  1  0.20330000  0.57260000  0.96330000  1.0 0.1488604833
N  N14  1  0.99510000  0.53650000  0.80410000  1.0 -0.0488263077
N  N15  1  0.19280000  0.55110000  0.96890000  1.0 0.1388054154
N  N16  1  0.96500000  0.31250000  0.35110000  1.0 -0.0083530786
N  N17  1  0.65830000  0.89840000  0.57880000  1.0 -0.0488263077
N  N18  1  0.53670000  0.92740000  0.29670000  1.0 0.1488604833
N  N19  1  0.69590000  0.96350000  0.50490000  1.0 -0.0488263077
N  N20  1  0.53110000  0.94890000  0.30720000  1.0 0.1388054154
N  N21  1  0.31250000  0.35110000  0.96500000  1.0 -0.0083530786
N  N22  1  0.89840000  0.57880000  0.65830000  1.0 -0.0488263077
N  N23  1  0.92740000  0.29670000  0.53670000  1.0 0.1488604833
N  N24  1  0.96350000  0.50490000  0.69590000  1.0 -0.0488263077
N  N25  1  0.94890000  0.30720000  0.53110000  1.0 0.1388054154
N  N26  1  0.35110000  0.96500000  0.31250000  1.0 -0.0083530786
N  N27  1  0.57880000  0.65830000  0.89840000  1.0 -0.0488263077
N  N28  1  0.29670000  0.53670000  0.92740000  1.0 0.1488604833
N  N29  1  0.50490000  0.69590000  0.96350000  1.0 -0.0488263077
N  N30  1  0.30720000  0.53110000  0.94890000  1.0 0.1388054154
N  N31  1  0.46500000  0.85110000  0.81250000  1.0 -0.0083530786
N  N32  1  0.15830000  0.07880000  0.39840000  1.0 -0.0488263077
N  N33  1  0.03670000  0.79670000  0.42740000  1.0 0.1488604833
N  N34  1  0.19590000  0.00490000  0.46350000  1.0 -0.0488263077
N  N35  1  0.03110000  0.80720000  0.44890000  1.0 0.1388054154
N  N36  1  0.81250000  0.46500000  0.85110000  1.0 -0.0083530786
N  N37  1  0.39840000  0.15830000  0.07880000  1.0 -0.0488263077
N  N38  1  0.42740000  0.03670000  0.79670000  1.0 0.1488604833
N  N39  1  0.46350000  0.19590000  0.00490000  1.0 -0.0488263077
N  N40  1  0.44890000  0.03110000  0.80720000  1.0 0.1388054154
N  N41  1  0.85110000  0.81250000  0.46500000  1.0 -0.0083530786
N  N42  1  0.07880000  0.39840000  0.15830000  1.0 -0.0488263077
N  N43  1  0.79670000  0.42740000  0.03670000  1.0 0.1488604833
N  N44  1  0.00490000  0.46350000  0.19590000  1.0 -0.0488263077
N  N45  1  0.80720000  0.44890000  0.03110000  1.0 0.1388054154
N  N46  1  0.03500000  0.68750000  0.64890000  1.0 -0.0083530786
N  N47  1  0.34170000  0.10160000  0.42120000  1.0 -0.0488263077
N  N48  1  0.46330000  0.07260000  0.70330000  1.0 0.1488604833
N  N49  1  0.30410000  0.03650000  0.49510000  1.0 -0.0488263077
N  N50  1  0.46890000  0.05110000  0.69280000  1.0 0.1388054154
N  N51  1  0.68750000  0.64890000  0.03500000  1.0 -0.0083530786
N  N52  1  0.10160000  0.42120000  0.34170000  1.0 -0.0488263077
N  N53  1  0.07260000  0.70330000  0.46330000  1.0 0.1488604833
N  N54  1  0.03650000  0.49510000  0.30410000  1.0 -0.0488263077
N  N55  1  0.05110000  0.69280000  0.46890000  1.0 0.1388054154
N  N56  1  0.64890000  0.03500000  0.68750000  1.0 -0.0083530786
N  N57  1  0.42120000  0.34170000  0.10160000  1.0 -0.0488263077
N  N58  1  0.70330000  0.46330000  0.07260000  1.0 0.1488604833
N  N59  1  0.49510000  0.30410000  0.03650000  1.0 -0.0488263077
N  N60  1  0.69280000  0.46890000  0.05110000  1.0 0.1388054154
O  O1  1  0.42821000  0.02177000  0.00364000  1.0 -0.5271972381
O  O2  1  0.43500000  0.99188000  0.92048000  1.0 -0.5514075184
O  O3  1  0.11333000  0.26408000  0.71789000  1.0 -0.4971931476
O  O4  1  0.16272000  0.31625000  0.80863000  1.0 -0.5244580503
O  O5  1  0.44493000  0.40787000  0.95872000  1.0 -0.5244580503
O  O6  1  0.52817000  0.43898000  0.95285000  1.0 -0.5373752936
O  O7  1  0.54460000  0.21546000  0.82469000  1.0 -0.5244580503
O  O8  1  0.60120000  0.30649000  0.88322000  1.0 -0.5596544766
O  O9  1  0.48713000  0.05314000  0.12479000  1.0 -0.4268106703
O  O10  1  0.05327000  0.27062000  0.61061000  1.0 -0.3605015186
O  O11  1  0.81600000  0.95850000  0.54200000  1.0 -0.0590563877
O  O12  1  0.71890000  0.98920000  0.48360000  1.0 -0.0289097473
O  O13  1  0.58650000  0.19680000  0.21560000  1.0 -0.0590563877
O  O14  1  0.86660000  0.09020000  0.54000000  1.0 -0.247946528
O  O15  1  0.00364000  0.42821000  0.02177000  1.0 -0.5271972381
O  O16  1  0.92048000  0.43500000  0.99188000  1.0 -0.5514075184
O  O17  1  0.71789000  0.11333000  0.26408000  1.0 -0.4971931476
O  O18  1  0.80863000  0.16272000  0.31625000  1.0 -0.5244580503
O  O19  1  0.95872000  0.44493000  0.40787000  1.0 -0.5244580503
O  O20  1  0.95285000  0.52817000  0.43898000  1.0 -0.5373752936
O  O21  1  0.82469000  0.54460000  0.21546000  1.0 -0.5244580503
O  O22  1  0.88322000  0.60120000  0.30649000  1.0 -0.5596544766
O  O23  1  0.12479000  0.48713000  0.05314000  1.0 -0.4268106703
O  O24  1  0.61061000  0.05327000  0.27062000  1.0 -0.3605015186
O  O25  1  0.54200000  0.81600000  0.95850000  1.0 -0.0590563877
O  O26  1  0.48360000  0.71890000  0.98920000  1.0 -0.0289097473
O  O27  1  0.21560000  0.58650000  0.19680000  1.0 -0.0590563877
O  O28  1  0.54000000  0.86660000  0.09020000  1.0 -0.247946528
O  O29  1  0.02177000  0.00364000  0.42821000  1.0 -0.5271972381
O  O30  1  0.99188000  0.92048000  0.43500000  1.0 -0.5514075184
O  O31  1  0.26408000  0.71789000  0.11333000  1.0 -0.4971931476
O  O32  1  0.31625000  0.80863000  0.16272000  1.0 -0.5244580503
O  O33  1  0.40787000  0.95872000  0.44493000  1.0 -0.5244580503
O  O34  1  0.43898000  0.95285000  0.52817000  1.0 -0.5373752936
O  O35  1  0.21546000  0.82469000  0.54460000  1.0 -0.5271972381
O  O36  1  0.30649000  0.88322000  0.60120000  1.0 -0.5596544766
O  O37  1  0.05314000  0.12479000  0.48713000  1.0 -0.4268106703
O  O38  1  0.27062000  0.61061000  0.05327000  1.0 -0.3605015186
O  O39  1  0.95850000  0.54200000  0.81600000  1.0 -0.0590563877
O  O40  1  0.98920000  0.48360000  0.71890000  1.0 -0.0289097473
O  O41  1  0.19680000  0.21560000  0.58650000  1.0 -0.0590563877
O  O42  1  0.09020000  0.54000000  0.86660000  1.0 -0.247946528
O  O43  1  0.07179000  0.49636000  0.47823000  1.0 -0.5271972381
O  O44  1  0.06500000  0.57952000  0.50812000  1.0 -0.5514075184
O  O45  1  0.38667000  0.78211000  0.23592000  1.0 -0.4971931476
O  O46  1  0.33728000  0.69137000  0.18375000  1.0 -0.5244580503
O  O47  1  0.05507000  0.54128000  0.09213000  1.0 -0.5244580503
O  O48  1  0.97183000  0.54715000  0.06102000  1.0 -0.5373752936
O  O49  1  0.95540000  0.67531000  0.28454000  1.0 -0.5244580503
O  O50  1  0.89880000  0.61678000  0.19351000  1.0 -0.5596544766
O  O51  1  0.01287000  0.37521000  0.44686000  1.0 -0.4268106703
O  O52  1  0.44673000  0.88939000  0.22938000  1.0 -0.3605015186
O  O53  1  0.68400000  0.95800000  0.54150000  1.0 -0.0590563877
O  O54  1  0.78110000  0.01640000  0.51080000  1.0 -0.0289097473
O  O55  1  0.91350000  0.28440000  0.30320000  1.0 -0.0590563877
O  O56  1  0.63340000  0.96000000  0.40980000  1.0 -0.247946528
O  O57  1  0.49636000  0.47823000  0.07179000  1.0 -0.5271972381
O  O58  1  0.57952000  0.50812000  0.06500000  1.0 -0.5514075184
O  O59  1  0.78211000  0.23592000  0.38667000  1.0 -0.4971931476
O  O60  1  0.69137000  0.18375000  0.33728000  1.0 -0.5244580503
O  O61  1  0.54128000  0.09213000  0.05507000  1.0 -0.5244580503
O  O62  1  0.54715000  0.06102000  0.97183000  1.0 -0.5373752936
O  O63  1  0.67531000  0.28454000  0.95540000  1.0 -0.5244580503
O  O64  1  0.61678000  0.19351000  0.89880000  1.0 -0.5596544766
O  O65  1  0.37521000  0.44686000  0.01287000  1.0 -0.4268106703
O  O66  1  0.88939000  0.22938000  0.44673000  1.0 -0.3605015186
O  O67  1  0.95800000  0.54150000  0.68400000  1.0 -0.0590563877
O  O68  1  0.01640000  0.51080000  0.78110000  1.0 -0.0289097473
O  O69  1  0.28440000  0.30320000  0.91350000  1.0 -0.0590563877
O  O70  1  0.96000000  0.40980000  0.63340000  1.0 -0.247946528
O  O71  1  0.47823000  0.07179000  0.49636000  1.0 -0.5271972381
O  O72  1  0.50812000  0.06500000  0.57952000  1.0 -0.5514075184
O  O73  1  0.23592000  0.38667000  0.78211000  1.0 -0.4971931476
O  O74  1  0.18375000  0.33728000  0.69137000  1.0 -0.5244580503
O  O75  1  0.09213000  0.05507000  0.54128000  1.0 -0.5244580503
O  O76  1  0.06102000  0.97183000  0.54715000  1.0 -0.5373752936
O  O77  1  0.28454000  0.95540000  0.67531000  1.0 -0.5244580503
O  O78  1  0.19351000  0.89880000  0.61678000  1.0 -0.5596544766
O  O79  1  0.44686000  0.01287000  0.37521000  1.0 -0.4268106703
O  O80  1  0.22938000  0.44673000  0.88939000  1.0 -0.3605015186
O  O81  1  0.54150000  0.68400000  0.95800000  1.0 -0.0590563877
O  O82  1  0.51080000  0.78110000  0.01640000  1.0 -0.0289097473
O  O83  1  0.30320000  0.91350000  0.28440000  1.0 -0.0590563877
O  O84  1  0.40980000  0.63340000  0.96000000  1.0 -0.247946528
O  O85  1  0.57179000  0.97823000  0.99636000  1.0 -0.5271972381
O  O86  1  0.56500000  0.00812000  0.07952000  1.0 -0.5514075184
O  O87  1  0.88667000  0.73592000  0.28211000  1.0 -0.4971931476
O  O88  1  0.83728000  0.68375000  0.19137000  1.0 -0.5244580503
O  O89  1  0.55507000  0.59213000  0.04128000  1.0 -0.5244580503
O  O90  1  0.47183000  0.56102000  0.04715000  1.0 -0.5373752936
O  O91  1  0.45540000  0.78454000  0.17531000  1.0 -0.5244580503
O  O92  1  0.39880000  0.69351000  0.11678000  1.0 -0.5596544766
O  O93  1  0.51287000  0.94686000  0.87521000  1.0 -0.4268106703
O  O94  1  0.94673000  0.72938000  0.38939000  1.0 -0.3605015186
O  O95  1  0.18400000  0.04150000  0.45800000  1.0 -0.0590563877
O  O96  1  0.28110000  0.01080000  0.51640000  1.0 -0.0289097473
O  O97  1  0.41350000  0.80320000  0.78440000  1.0 -0.0590563877
O  O98  1  0.13340000  0.90980000  0.46000000  1.0 -0.247946528
O  O99  1  0.99636000  0.57179000  0.97823000  1.0 -0.5271972381
O  O100  1  0.07952000  0.56500000  0.00812000  1.0 -0.5514075184
O  O101  1  0.28211000  0.88667000  0.73592000  1.0 -0.4971931476
O  O102  1  0.19137000  0.83728000  0.68375000  1.0 -0.5244580503
O  O103  1  0.04128000  0.55507000  0.59213000  1.0 -0.5244580503
O  O104  1  0.04715000  0.47183000  0.56102000  1.0 -0.5373752936
O  O105  1  0.17531000  0.45540000  0.78454000  1.0 -0.5244580503
O  O106  1  0.11678000  0.39880000  0.69351000  1.0 -0.5596544766
O  O107  1  0.87521000  0.51287000  0.94686000  1.0 -0.4268106703
O  O108  1  0.38939000  0.94673000  0.72938000  1.0 -0.3605015186
O  O109  1  0.45800000  0.18400000  0.04150000  1.0 -0.0590563877
O  O110  1  0.51640000  0.28110000  0.01080000  1.0 -0.0289097473
O  O111  1  0.78440000  0.41350000  0.80320000  1.0 -0.0590563877
O  O112  1  0.46000000  0.13340000  0.90980000  1.0 -0.247946528
O  O113  1  0.97823000  0.99636000  0.57179000  1.0 -0.5271972381
O  O114  1  0.00812000  0.07952000  0.56500000  1.0 -0.5514075184
O  O115  1  0.73592000  0.28211000  0.88667000  1.0 -0.4971931476
O  O116  1  0.68375000  0.19137000  0.83728000  1.0 -0.5244580503
O  O117  1  0.59213000  0.04128000  0.55507000  1.0 -0.5244580503
O  O118  1  0.56102000  0.04715000  0.47183000  1.0 -0.5373752936
O  O119  1  0.78454000  0.17531000  0.45540000  1.0 -0.5244580503
O  O120  1  0.69351000  0.11678000  0.39880000  1.0 -0.5596544766
O  O121  1  0.94686000  0.87521000  0.51287000  1.0 -0.4268106703
O  O122  1  0.72938000  0.38939000  0.94673000  1.0 -0.3605015186
O  O123  1  0.04150000  0.45800000  0.18400000  1.0 -0.0590563877
O  O124  1  0.01080000  0.51640000  0.28110000  1.0 -0.0289097473
O  O125  1  0.80320000  0.78440000  0.41350000  1.0 -0.0590563877
O  O126  1  0.90980000  0.46000000  0.13340000  1.0 -0.247946528
O  O127  1  0.92821000  0.50364000  0.52177000  1.0 -0.5271972381
O  O128  1  0.93500000  0.42048000  0.49188000  1.0 -0.5514075184
O  O129  1  0.61333000  0.21789000  0.76408000  1.0 -0.4971931476
O  O130  1  0.66272000  0.30863000  0.81625000  1.0 -0.5244580503
O  O131  1  0.94493000  0.45872000  0.90787000  1.0 -0.5244580503
O  O132  1  0.02817000  0.45285000  0.93898000  1.0 -0.5373752936
O  O133  1  0.04460000  0.32469000  0.71546000  1.0 -0.5244580503
O  O134  1  0.10120000  0.38322000  0.80649000  1.0 -0.5596544766
O  O135  1  0.98713000  0.62479000  0.55314000  1.0 -0.4268106703
O  O136  1  0.55327000  0.11061000  0.77062000  1.0 -0.3605015186
O  O137  1  0.31600000  0.04200000  0.45850000  1.0 -0.0590563877
O  O138  1  0.21890000  0.98360000  0.48920000  1.0 -0.0289097473
O  O139  1  0.08650000  0.71560000  0.69680000  1.0 -0.0590563877
O  O140  1  0.36660000  0.04000000  0.59020000  1.0 -0.247946528
O  O141  1  0.50364000  0.52177000  0.92821000  1.0 -0.5271972381
O  O142  1  0.42048000  0.49188000  0.93500000  1.0 -0.5514075184
O  O143  1  0.21789000  0.76408000  0.61333000  1.0 -0.4971931476
O  O144  1  0.30863000  0.81625000  0.66272000  1.0 -0.5244580503
O  O145  1  0.45872000  0.90787000  0.94493000  1.0 -0.5244580503
O  O146  1  0.45285000  0.93898000  0.02817000  1.0 -0.5373752936
O  O147  1  0.32469000  0.71546000  0.04460000  1.0 -0.5244580503
O  O148  1  0.38322000  0.80649000  0.10120000  1.0 -0.5596544766
O  O149  1  0.62479000  0.55314000  0.98713000  1.0 -0.4268106703
O  O150  1  0.11061000  0.77062000  0.55327000  1.0 -0.3605015186
O  O151  1  0.04200000  0.45850000  0.31600000  1.0 -0.0590563877
O  O152  1  0.98360000  0.48920000  0.21890000  1.0 -0.0289097473
O  O153  1  0.71560000  0.69680000  0.08650000  1.0 -0.0590563877
O  O154  1  0.04000000  0.59020000  0.36660000  1.0 -0.247946528
O  O155  1  0.52177000  0.92821000  0.50364000  1.0 -0.5271972381
O  O156  1  0.49188000  0.93500000  0.42048000  1.0 -0.5514075184
O  O157  1  0.76408000  0.61333000  0.21789000  1.0 -0.4971931476
O  O158  1  0.81625000  0.66272000  0.30863000  1.0 -0.5244580503
O  O159  1  0.90787000  0.94493000  0.45872000  1.0 -0.5244580503
O  O160  1  0.93898000  0.02817000  0.45285000  1.0 -0.5373752936
O  O161  1  0.71546000  0.04460000  0.32469000  1.0 -0.5244580503
O  O162  1  0.80649000  0.10120000  0.38322000  1.0 -0.5596544766
O  O163  1  0.55314000  0.98713000  0.62479000  1.0 -0.4268106703
O  O164  1  0.77062000  0.55327000  0.11061000  1.0 -0.3605015186
O  O165  1  0.45850000  0.31600000  0.04200000  1.0 -0.0590563877
O  O166  1  0.48920000  0.21890000  0.98360000  1.0 -0.0289097473
O  O167  1  0.69680000  0.08650000  0.71560000  1.0 -0.0590563877
O  O168  1  0.59020000  0.36660000  0.04000000  1.0 -0.247946528
O  O169  1  0.60160000  0.65100000  0.49540000  1.0 -0.475308371
O  O170  1  0.49540000  0.60160000  0.65100000  1.0 -0.475308371
O  O171  1  0.65100000  0.49540000  0.60160000  1.0 -0.475308371
O  O172  1  0.89840000  0.00460000  0.84900000  1.0 -0.475308371
O  O173  1  0.00460000  0.84900000  0.89840000  1.0 -0.475308371
O  O174  1  0.84900000  0.89840000  0.00460000  1.0 -0.475308371
O  O175  1  0.39840000  0.34900000  0.50460000  1.0 -0.475308371
O  O176  1  0.50460000  0.39840000  0.34900000  1.0 -0.475308371
O  O177  1  0.34900000  0.50460000  0.39840000  1.0 -0.475308371
O  O178  1  0.10160000  0.99540000  0.15100000  1.0 -0.475308371
O  O179  1  0.99540000  0.15100000  0.10160000  1.0 -0.475308371
O  O180  1  0.15100000  0.10160000  0.99540000  1.0 -0.475308371
