# DDEC6 charges by PACMAN v1.1 (https://github.com/mtap-research/PACMAN-charge/)
data_QAKQAY_FSR_pacman
_symmetry_space_group_name_H-M   'P 1'
_cell_length_a   10.20280000
_cell_length_b   19.84000000
_cell_length_c   32.43320000
_cell_angle_alpha   90.00000000
_cell_angle_beta   100.27200000
_cell_angle_gamma   90.00000000
_symmetry_Int_Tables_number   1
_chemical_formula_structural   Cd2H62C53(N3O8)2
_chemical_formula_sum   'Cd8 H248 C212 N24 O64'
_cell_volume   6460.01779070
_cell_formula_units_Z   4
loop_
 _symmetry_equiv_pos_site_id
 _symmetry_equiv_pos_as_xyz
  1  'x, y, z'
loop_
 _atom_site_type_symbol
 _atom_site_label
 _atom_site_symmetry_multiplicity
 _atom_site_fract_x
 _atom_site_fract_y
 _atom_site_fract_z
 _atom_site_occupancy
 _atom_site_charge
Cd  Cd1  1  0.26871000  0.93269000  0.84452000  1.0 0.87803786
Cd  Cd2  1  0.00780000  0.31954000  0.68598000  1.0 0.9324770172
Cd  Cd3  1  0.73129000  0.43269000  0.65548000  1.0 0.87803786
Cd  Cd4  1  0.99220000  0.81954000  0.81402000  1.0 0.9324770172
Cd  Cd5  1  0.73129000  0.06731000  0.15548000  1.0 0.87803786
Cd  Cd6  1  0.99220000  0.68046000  0.31402000  1.0 0.9324770172
Cd  Cd7  1  0.26871000  0.56731000  0.34452000  1.0 0.87803786
Cd  Cd8  1  0.00780000  0.18046000  0.18598000  1.0 0.9324770172
H  H1  1  0.12592000  0.09207000  0.47242000  1.0 0.1370949944
H  H2  1  0.12667000  0.11984000  0.51771000  1.0 0.1196415082
H  H3  1  0.26146000  0.10768000  0.50203000  1.0 0.1477480282
H  H4  1  0.15925000  0.04294000  0.57672000  1.0 0.1196415082
H  H5  1  0.19880000  0.97450000  0.46445000  1.0 0.1196415082
H  H6  1  0.36416000  0.79424000  0.51313000  1.0 0.1107244799
H  H7  1  0.38208000  0.70781000  0.46713000  1.0 0.1107244799
H  H8  1  0.10639000  0.79653000  0.38088000  1.0 0.1196415082
H  H9  1  0.07912000  0.87894000  0.42849000  1.0 0.1196415082
H  H10  1  0.00595000  0.86706000  0.61004000  1.0 0.1107244799
H  H11  1  0.99526000  0.84753000  0.67920000  1.0 0.1107244799
H  H12  1  0.29319000  0.97791000  0.71345000  1.0 0.1107244799
H  H13  1  0.30525000  0.99515000  0.64372000  1.0 0.1196415082
H  H14  1  0.36742000  0.82721000  0.60561000  1.0 0.1107244799
H  H15  1  0.37888000  0.71992000  0.63184000  1.0 0.1107244799
H  H16  1  0.03215000  0.67594000  0.55788000  1.0 0.1196415082
H  H17  1  0.02371000  0.78309000  0.53087000  1.0 0.1196415082
H  H18  1  0.41508000  0.60604000  0.62000000  1.0 0.1196415082
H  H19  1  0.24360000  0.44166000  0.65887000  1.0 0.1107244799
H  H20  1  0.02053000  0.60129000  0.61565000  1.0 0.1107244799
H  H21  1  0.17393000  0.39027000  0.75714000  1.0 0.0979261045
H  H22  1  0.56281000  0.36785000  0.76694000  1.0 0.0898249172
H  H23  1  0.47931000  0.35837000  0.72183000  1.0 0.0786363192
H  H24  1  0.47804000  0.30231000  0.75582000  1.0 0.0898249172
H  H25  1  0.48434000  0.44166000  0.80739000  1.0 0.0503401061
H  H26  1  0.34974000  0.42124000  0.82092000  1.0 0.0786363192
H  H27  1  0.35129000  0.47697000  0.78674000  1.0 0.0503401061
H  H28  1  0.22482000  0.34594000  0.61557000  1.0 0.0595443099
H  H29  1  0.33999000  0.15506000  0.61886000  1.0 0.1196415082
H  H30  1  0.18956000  0.17046000  0.60152000  1.0 0.1107244799
H  H31  1  0.24553000  0.17714000  0.64960000  1.0 0.131495978
H  H32  1  0.47866000  0.23164000  0.60625000  1.0 0.0979261045
H  H33  1  0.47122000  0.30074000  0.62916000  1.0 0.0979261045
H  H34  1  0.41646000  0.29476000  0.58097000  1.0 0.0595443099
H  H35  1  0.04658000  0.20629000  0.75363000  1.0 0.0786363192
H  H36  1  0.96226000  0.02775000  0.70359000  1.0 0.0686946881
H  H37  1  0.03448000  0.07898000  0.67841000  1.0 0.0898249172
H  H38  1  0.88409000  0.08955000  0.68126000  1.0 0.0786363192
H  H39  1  0.01418000  0.03158000  0.76809000  1.0 0.0595443099
H  H40  1  0.97309000  0.09535000  0.79135000  1.0 0.0378875866
H  H41  1  0.12230000  0.08454000  0.78709000  1.0 0.0786363192
H  H42  1  0.25213000  0.29725000  0.77088000  1.0 0.1196415082
H  H43  1  0.49571000  0.45051000  0.77304000  1.0 0.0686946881
H  H44  1  0.35400000  0.46216000  0.74608000  1.0 0.0786363192
H  H45  1  0.45695000  0.41579000  0.72913000  1.0 0.0898249172
H  H46  1  0.50730000  0.38950000  0.82570000  1.0 0.0898249172
H  H47  1  0.47794000  0.31231000  0.81910000  1.0 0.0898249172
H  H48  1  0.37493000  0.35894000  0.83582000  1.0 0.0686946881
H  H49  1  0.27292000  0.31836000  0.64599000  1.0 0.0595443099
H  H50  1  0.19770000  0.27196000  0.52717000  1.0 0.1196415082
H  H51  1  0.08534000  0.31048000  0.54478000  1.0 0.131495978
H  H52  1  0.11217000  0.23412000  0.55553000  1.0 0.1107244799
H  H53  1  0.38476000  0.29657000  0.55249000  1.0 0.0898249172
H  H54  1  0.44033000  0.27750000  0.59925000  1.0 0.0378875866
H  H55  1  0.40423000  0.35258000  0.58714000  1.0 0.0898249172
H  H56  1  0.15886000  0.20496000  0.74356000  1.0 0.0595443099
H  H57  1  0.00470000  0.02553000  0.74168000  1.0 0.0686946881
H  H58  1  0.97679000  0.06289000  0.69841000  1.0 0.0269332323
H  H59  1  0.89922000  0.08372000  0.73402000  1.0 0.0979261045
H  H60  1  0.18820000  0.04772000  0.78093000  1.0 0.0898249172
H  H61  1  0.20579000  0.12066000  0.79970000  1.0 0.0786363192
H  H62  1  0.28064000  0.09956000  0.76349000  1.0 0.1107244799
H  H63  1  0.87408000  0.59207000  0.02758000  1.0 0.1370949944
H  H64  1  0.87333000  0.61984000  0.98229000  1.0 0.1196415082
H  H65  1  0.73854000  0.60768000  0.99797000  1.0 0.1477480282
H  H66  1  0.84075000  0.54294000  0.92328000  1.0 0.1196415082
H  H67  1  0.80120000  0.47450000  0.03555000  1.0 0.1196415082
H  H68  1  0.63584000  0.29424000  0.98687000  1.0 0.1107244799
H  H69  1  0.61792000  0.20781000  0.03287000  1.0 0.1107244799
H  H70  1  0.89361000  0.29653000  0.11912000  1.0 0.1196415082
H  H71  1  0.92088000  0.37894000  0.07151000  1.0 0.1196415082
H  H72  1  0.99405000  0.36706000  0.88996000  1.0 0.1107244799
H  H73  1  0.00474000  0.34753000  0.82080000  1.0 0.1107244799
H  H74  1  0.70681000  0.47791000  0.78655000  1.0 0.1107244799
H  H75  1  0.69475000  0.49515000  0.85628000  1.0 0.1196415082
H  H76  1  0.63258000  0.32721000  0.89439000  1.0 0.1107244799
H  H77  1  0.62112000  0.21992000  0.86816000  1.0 0.1107244799
H  H78  1  0.96785000  0.17594000  0.94212000  1.0 0.1196415082
H  H79  1  0.97629000  0.28309000  0.96913000  1.0 0.1196415082
H  H80  1  0.58492000  0.10604000  0.88000000  1.0 0.1196415082
H  H81  1  0.75640000  0.94166000  0.84113000  1.0 0.1107244799
H  H82  1  0.97947000  0.10129000  0.88435000  1.0 0.1107244799
H  H83  1  0.82607000  0.89027000  0.74286000  1.0 0.0979261045
H  H84  1  0.43719000  0.86785000  0.73306000  1.0 0.0898249172
H  H85  1  0.52069000  0.85837000  0.77817000  1.0 0.0786363192
H  H86  1  0.52196000  0.80231000  0.74418000  1.0 0.0898249172
H  H87  1  0.51566000  0.94166000  0.69261000  1.0 0.0503401061
H  H88  1  0.65026000  0.92124000  0.67908000  1.0 0.0786363192
H  H89  1  0.64871000  0.97697000  0.71326000  1.0 0.0503401061
H  H90  1  0.77518000  0.84594000  0.88443000  1.0 0.0595443099
H  H91  1  0.66001000  0.65506000  0.88114000  1.0 0.1196415082
H  H92  1  0.81044000  0.67046000  0.89848000  1.0 0.1107244799
H  H93  1  0.75447000  0.67714000  0.85040000  1.0 0.131495978
H  H94  1  0.52134000  0.73164000  0.89375000  1.0 0.0979261045
H  H95  1  0.52878000  0.80074000  0.87084000  1.0 0.0979261045
H  H96  1  0.58354000  0.79476000  0.91903000  1.0 0.0595443099
H  H97  1  0.95342000  0.70629000  0.74637000  1.0 0.0786363192
H  H98  1  0.03774000  0.52775000  0.79641000  1.0 0.0686946881
H  H99  1  0.96552000  0.57898000  0.82159000  1.0 0.0898249172
H  H100  1  0.11591000  0.58955000  0.81874000  1.0 0.0786363192
H  H101  1  0.98582000  0.53158000  0.73191000  1.0 0.0595443099
H  H102  1  0.02691000  0.59535000  0.70865000  1.0 0.0378875866
H  H103  1  0.87770000  0.58454000  0.71291000  1.0 0.0786363192
H  H104  1  0.74787000  0.79725000  0.72912000  1.0 0.1196415082
H  H105  1  0.50429000  0.95051000  0.72696000  1.0 0.0686946881
H  H106  1  0.64600000  0.96216000  0.75392000  1.0 0.0786363192
H  H107  1  0.54305000  0.91579000  0.77087000  1.0 0.0898249172
H  H108  1  0.49270000  0.88950000  0.67430000  1.0 0.0898249172
H  H109  1  0.52206000  0.81231000  0.68090000  1.0 0.0898249172
H  H110  1  0.62507000  0.85894000  0.66418000  1.0 0.0686946881
H  H111  1  0.72708000  0.81836000  0.85401000  1.0 0.0595443099
H  H112  1  0.80230000  0.77196000  0.97283000  1.0 0.1196415082
H  H113  1  0.91466000  0.81048000  0.95522000  1.0 0.131495978
H  H114  1  0.88783000  0.73412000  0.94447000  1.0 0.1107244799
H  H115  1  0.61524000  0.79657000  0.94751000  1.0 0.0898249172
H  H116  1  0.55967000  0.77750000  0.90075000  1.0 0.0378875866
H  H117  1  0.59577000  0.85258000  0.91286000  1.0 0.0898249172
H  H118  1  0.84114000  0.70496000  0.75644000  1.0 0.0595443099
H  H119  1  0.99530000  0.52553000  0.75832000  1.0 0.0686946881
H  H120  1  0.02321000  0.56289000  0.80159000  1.0 0.0269332323
H  H121  1  0.10078000  0.58372000  0.76598000  1.0 0.0979261045
H  H122  1  0.81180000  0.54772000  0.71907000  1.0 0.0898249172
H  H123  1  0.79421000  0.62066000  0.70030000  1.0 0.0786363192
H  H124  1  0.71936000  0.59956000  0.73651000  1.0 0.1107244799
H  H125  1  0.87408000  0.90793000  0.52758000  1.0 0.1370949944
H  H126  1  0.87333000  0.88016000  0.48229000  1.0 0.1196415082
H  H127  1  0.73854000  0.89232000  0.49797000  1.0 0.1477480282
H  H128  1  0.84075000  0.95706000  0.42328000  1.0 0.1196415082
H  H129  1  0.80120000  0.02550000  0.53555000  1.0 0.1196415082
H  H130  1  0.63584000  0.20576000  0.48687000  1.0 0.1107244799
H  H131  1  0.61792000  0.29219000  0.53287000  1.0 0.1107244799
H  H132  1  0.89361000  0.20347000  0.61912000  1.0 0.1196415082
H  H133  1  0.92088000  0.12106000  0.57151000  1.0 0.1196415082
H  H134  1  0.99405000  0.13294000  0.38996000  1.0 0.1107244799
H  H135  1  0.00474000  0.15247000  0.32080000  1.0 0.1107244799
H  H136  1  0.70681000  0.02209000  0.28655000  1.0 0.1107244799
H  H137  1  0.69475000  0.00485000  0.35628000  1.0 0.1196415082
H  H138  1  0.63258000  0.17279000  0.39439000  1.0 0.1107244799
H  H139  1  0.62112000  0.28008000  0.36816000  1.0 0.1107244799
H  H140  1  0.96785000  0.32406000  0.44212000  1.0 0.1196415082
H  H141  1  0.97629000  0.21691000  0.46913000  1.0 0.1196415082
H  H142  1  0.58492000  0.39396000  0.38000000  1.0 0.1196415082
H  H143  1  0.75640000  0.55834000  0.34113000  1.0 0.1107244799
H  H144  1  0.97947000  0.39871000  0.38435000  1.0 0.1107244799
H  H145  1  0.82607000  0.60973000  0.24286000  1.0 0.0979261045
H  H146  1  0.43719000  0.63215000  0.23306000  1.0 0.0898249172
H  H147  1  0.52069000  0.64163000  0.27817000  1.0 0.0786363192
H  H148  1  0.52196000  0.69769000  0.24418000  1.0 0.0898249172
H  H149  1  0.51566000  0.55834000  0.19261000  1.0 0.0503401061
H  H150  1  0.65026000  0.57876000  0.17908000  1.0 0.0786363192
H  H151  1  0.64871000  0.52303000  0.21326000  1.0 0.0503401061
H  H152  1  0.77518000  0.65406000  0.38443000  1.0 0.0595443099
H  H153  1  0.66001000  0.84494000  0.38114000  1.0 0.1196415082
H  H154  1  0.81044000  0.82954000  0.39848000  1.0 0.1107244799
H  H155  1  0.75447000  0.82286000  0.35040000  1.0 0.131495978
H  H156  1  0.52134000  0.76836000  0.39375000  1.0 0.0979261045
H  H157  1  0.52878000  0.69926000  0.37084000  1.0 0.0979261045
H  H158  1  0.58354000  0.70524000  0.41903000  1.0 0.0595443099
H  H159  1  0.95342000  0.79371000  0.24637000  1.0 0.0786363192
H  H160  1  0.03774000  0.97225000  0.29641000  1.0 0.0686946881
H  H161  1  0.96552000  0.92102000  0.32159000  1.0 0.0898249172
H  H162  1  0.11591000  0.91045000  0.31874000  1.0 0.0786363192
H  H163  1  0.98582000  0.96842000  0.23191000  1.0 0.0595443099
H  H164  1  0.02691000  0.90465000  0.20865000  1.0 0.0378875866
H  H165  1  0.87770000  0.91546000  0.21291000  1.0 0.0786363192
H  H166  1  0.74787000  0.70275000  0.22912000  1.0 0.1196415082
H  H167  1  0.50429000  0.54949000  0.22696000  1.0 0.0686946881
H  H168  1  0.64600000  0.53784000  0.25392000  1.0 0.0786363192
H  H169  1  0.54305000  0.58421000  0.27087000  1.0 0.0898249172
H  H170  1  0.49270000  0.61050000  0.17430000  1.0 0.0898249172
H  H171  1  0.52206000  0.68769000  0.18090000  1.0 0.0898249172
H  H172  1  0.62507000  0.64106000  0.16418000  1.0 0.0686946881
H  H173  1  0.72708000  0.68164000  0.35401000  1.0 0.0595443099
H  H174  1  0.80230000  0.72804000  0.47283000  1.0 0.1196415082
H  H175  1  0.91466000  0.68952000  0.45522000  1.0 0.131495978
H  H176  1  0.88783000  0.76588000  0.44447000  1.0 0.1107244799
H  H177  1  0.61524000  0.70343000  0.44751000  1.0 0.0898249172
H  H178  1  0.55967000  0.72250000  0.40075000  1.0 0.0378875866
H  H179  1  0.59577000  0.64742000  0.41286000  1.0 0.0898249172
H  H180  1  0.84114000  0.79504000  0.25644000  1.0 0.0595443099
H  H181  1  0.99530000  0.97447000  0.25832000  1.0 0.0686946881
H  H182  1  0.02321000  0.93711000  0.30159000  1.0 0.0269332323
H  H183  1  0.10078000  0.91628000  0.26598000  1.0 0.0979261045
H  H184  1  0.81180000  0.95228000  0.21907000  1.0 0.0898249172
H  H185  1  0.79421000  0.87934000  0.20030000  1.0 0.0786363192
H  H186  1  0.71936000  0.90044000  0.23651000  1.0 0.1107244799
H  H187  1  0.12592000  0.40793000  0.97242000  1.0 0.1370949944
H  H188  1  0.12667000  0.38016000  0.01771000  1.0 0.1196415082
H  H189  1  0.26146000  0.39232000  0.00203000  1.0 0.1477480282
H  H190  1  0.15925000  0.45706000  0.07672000  1.0 0.1196415082
H  H191  1  0.19880000  0.52550000  0.96445000  1.0 0.1196415082
H  H192  1  0.36416000  0.70576000  0.01313000  1.0 0.1107244799
H  H193  1  0.38208000  0.79219000  0.96713000  1.0 0.1107244799
H  H194  1  0.10639000  0.70347000  0.88088000  1.0 0.1196415082
H  H195  1  0.07912000  0.62106000  0.92849000  1.0 0.1196415082
H  H196  1  0.00595000  0.63294000  0.11004000  1.0 0.1107244799
H  H197  1  0.99526000  0.65247000  0.17920000  1.0 0.1107244799
H  H198  1  0.29319000  0.52209000  0.21345000  1.0 0.1196415082
H  H199  1  0.30525000  0.50485000  0.14372000  1.0 0.1196415082
H  H200  1  0.36742000  0.67279000  0.10561000  1.0 0.1107244799
H  H201  1  0.37888000  0.78008000  0.13184000  1.0 0.1107244799
H  H202  1  0.03215000  0.82406000  0.05788000  1.0 0.1196415082
H  H203  1  0.02371000  0.71691000  0.03087000  1.0 0.1196415082
H  H204  1  0.41508000  0.89396000  0.12000000  1.0 0.1196415082
H  H205  1  0.24360000  0.05834000  0.15887000  1.0 0.1107244799
H  H206  1  0.02053000  0.89871000  0.11565000  1.0 0.1107244799
H  H207  1  0.17393000  0.10973000  0.25714000  1.0 0.0979261045
H  H208  1  0.56281000  0.13215000  0.26694000  1.0 0.0898249172
H  H209  1  0.47931000  0.14163000  0.22183000  1.0 0.0786363192
H  H210  1  0.47804000  0.19769000  0.25582000  1.0 0.0898249172
H  H211  1  0.48434000  0.05834000  0.30739000  1.0 0.0503401061
H  H212  1  0.34974000  0.07876000  0.32092000  1.0 0.0786363192
H  H213  1  0.35129000  0.02303000  0.28674000  1.0 0.0503401061
H  H214  1  0.22482000  0.15406000  0.11557000  1.0 0.0595443099
H  H215  1  0.33999000  0.34494000  0.11886000  1.0 0.1196415082
H  H216  1  0.18956000  0.32954000  0.10152000  1.0 0.1107244799
H  H217  1  0.24553000  0.32286000  0.14960000  1.0 0.131495978
H  H218  1  0.47866000  0.26836000  0.10625000  1.0 0.0979261045
H  H219  1  0.47122000  0.19926000  0.12916000  1.0 0.0979261045
H  H220  1  0.41646000  0.20524000  0.08097000  1.0 0.0595443099
H  H221  1  0.04658000  0.29371000  0.25363000  1.0 0.0786363192
H  H222  1  0.96226000  0.47225000  0.20359000  1.0 0.0686946881
H  H223  1  0.03448000  0.42102000  0.17841000  1.0 0.0898249172
H  H224  1  0.88409000  0.41045000  0.18126000  1.0 0.0786363192
H  H225  1  0.01418000  0.46842000  0.26809000  1.0 0.0595443099
H  H226  1  0.97309000  0.40465000  0.29135000  1.0 0.0378875866
H  H227  1  0.12230000  0.41546000  0.28709000  1.0 0.0786363192
H  H228  1  0.25213000  0.20275000  0.27088000  1.0 0.1196415082
H  H229  1  0.49571000  0.04949000  0.27304000  1.0 0.0686946881
H  H230  1  0.35400000  0.03784000  0.24608000  1.0 0.0786363192
H  H231  1  0.45695000  0.08421000  0.22913000  1.0 0.0898249172
H  H232  1  0.50730000  0.11050000  0.32570000  1.0 0.0898249172
H  H233  1  0.47794000  0.18769000  0.31910000  1.0 0.0898249172
H  H234  1  0.37493000  0.14106000  0.33582000  1.0 0.0686946881
H  H235  1  0.27292000  0.18164000  0.14599000  1.0 0.0595443099
H  H236  1  0.19770000  0.22804000  0.02717000  1.0 0.1196415082
H  H237  1  0.08534000  0.18952000  0.04478000  1.0 0.131495978
H  H238  1  0.11217000  0.26588000  0.05553000  1.0 0.1107244799
H  H239  1  0.38476000  0.20343000  0.05249000  1.0 0.0898249172
H  H240  1  0.44033000  0.22250000  0.09925000  1.0 0.0378875866
H  H241  1  0.40423000  0.14742000  0.08714000  1.0 0.0898249172
H  H242  1  0.15886000  0.29504000  0.24356000  1.0 0.0595443099
H  H243  1  0.00470000  0.47447000  0.24168000  1.0 0.0686946881
H  H244  1  0.97679000  0.43711000  0.19841000  1.0 0.0269332323
H  H245  1  0.89922000  0.41628000  0.23402000  1.0 0.0979261045
H  H246  1  0.18820000  0.45228000  0.28093000  1.0 0.0898249172
H  H247  1  0.20579000  0.37934000  0.29970000  1.0 0.0786363192
H  H248  1  0.28064000  0.40044000  0.26349000  1.0 0.1107244799
C  C1  1  0.17230000  0.09140000  0.50090000  1.0 -0.4735451514
C  C2  1  0.17663000  0.02050000  0.51743000  1.0 0.1759695013
C  C3  1  0.16766000  0.00710000  0.55886000  1.0 -0.2195255071
C  C4  1  0.17089000  0.94180000  0.57439000  1.0 0.0269332323
C  C5  1  0.18791000  0.88720000  0.54851000  1.0 -0.0491088356
C  C6  1  0.19838000  0.90000000  0.50628000  1.0 0.0269332323
C  C7  1  0.19214000  0.96630000  0.49224000  1.0 -0.2195255071
C  C8  1  0.21617000  0.84500000  0.47667000  1.0 0.0595443099
C  C9  1  0.30891000  0.79390000  0.48701000  1.0 -0.151779101
C  C10  1  0.32086000  0.74220000  0.45916000  1.0 -0.1131331722
C  C11  1  0.24218000  0.74120000  0.41938000  1.0 -0.0247033131
C  C12  1  0.15525000  0.79450000  0.40795000  1.0 -0.0753303866
C  C13  1  0.14072000  0.84470000  0.43642000  1.0 -0.1782173738
C  C14  1  0.25229000  0.68360000  0.39049000  1.0 0.5346737703
C  C15  1  0.15851000  0.93160000  0.61941000  1.0 0.0595443099
C  C16  1  0.06581000  0.88870000  0.63081000  1.0 -0.1390879701
C  C17  1  0.05911000  0.87690000  0.67231000  1.0 -0.1782173738
C  C18  1  0.14750000  0.90860000  0.70370000  1.0 -0.0284388826
C  C19  1  0.23685000  0.95420000  0.69275000  1.0 -0.2144961546
C  C20  1  0.24307000  0.96500000  0.65077000  1.0 -0.2195255071
C  C21  1  0.14484000  0.89410000  0.74914000  1.0 0.5078775783
C  C22  1  0.19363000  0.81730000  0.56513000  1.0 0.0503401061
C  C23  1  0.29973000  0.79680000  0.59573000  1.0 -0.1579592749
C  C24  1  0.30641000  0.73240000  0.61161000  1.0 -0.1579592749
C  C25  1  0.20675000  0.68550000  0.59795000  1.0 0.0686946881
C  C26  1  0.10053000  0.70610000  0.56753000  1.0 -0.151779101
C  C27  1  0.09533000  0.77070000  0.55143000  1.0 -0.151779101
C  C28  1  0.21547000  0.61620000  0.61527000  1.0 0.0595443099
C  C29  1  0.33880000  0.58360000  0.62450000  1.0 -0.151779101
C  C30  1  0.34958000  0.51840000  0.64028000  1.0 -0.0001725105
C  C31  1  0.23659000  0.48500000  0.64779000  1.0 -0.229886281
C  C32  1  0.11374000  0.51610000  0.63884000  1.0 -0.070045511
C  C33  1  0.10383000  0.58100000  0.62223000  1.0 -0.1390879701
C  C34  1  0.48417000  0.48420000  0.64827000  1.0 0.5078775783
C  C35  1  0.99217000  0.47950000  0.64737000  1.0 0.4398795118
C  C36  1  0.24430000  0.36830000  0.74820000  1.0 0.2401896504
C  C37  1  0.48180000  0.35000000  0.75110000  1.0 -0.1782173738
C  C38  1  0.39090000  0.43530000  0.79790000  1.0 -0.0868226426
C  C39  1  0.20700000  0.30100000  0.61900000  1.0 0.2740693589
C  C40  1  0.26600000  0.18300000  0.62200000  1.0 -0.4347739692
C  C41  1  0.42600000  0.27200000  0.60700000  1.0 -0.131316343
C  C42  1  0.02190000  0.18010000  0.72970000  1.0 0.2401896504
C  C43  1  0.96910000  0.07430000  0.69610000  1.0 -0.1579592749
C  C44  1  0.03150000  0.07860000  0.77350000  1.0 -0.0868226426
C  C45  1  0.27550000  0.33280000  0.75500000  1.0 0.2401896504
C  C46  1  0.42480000  0.43000000  0.75380000  1.0 -0.0284388826
C  C47  1  0.43850000  0.35650000  0.81750000  1.0 -0.2415436829
C  C48  1  0.20920000  0.30400000  0.62360000  1.0 0.2786390011
C  C49  1  0.15270000  0.27630000  0.55060000  1.0 -0.4347739692
C  C50  1  0.38010000  0.30640000  0.58120000  1.0 -0.131316343
C  C51  1  0.08510000  0.17990000  0.73110000  1.0 0.1925432955
C  C52  1  0.98310000  0.06810000  0.72810000  1.0 -0.0138182952
C  C53  1  0.19960000  0.09440000  0.77460000  1.0 -0.3064597795
C  C54  1  0.82770000  0.59140000  0.99910000  1.0 -0.4735451514
C  C55  1  0.82337000  0.52050000  0.98257000  1.0 0.1759695013
C  C56  1  0.83234000  0.50710000  0.94114000  1.0 -0.2195255071
C  C57  1  0.82911000  0.44180000  0.92561000  1.0 0.0269332323
C  C58  1  0.81209000  0.38720000  0.95149000  1.0 -0.0491088356
C  C59  1  0.80162000  0.40000000  0.99372000  1.0 0.0269332323
C  C60  1  0.80786000  0.46630000  0.00776000  1.0 -0.2195255071
C  C61  1  0.78383000  0.34500000  0.02333000  1.0 0.0595443099
C  C62  1  0.69109000  0.29390000  0.01299000  1.0 -0.151779101
C  C63  1  0.67914000  0.24220000  0.04084000  1.0 -0.1131331722
C  C64  1  0.75782000  0.24120000  0.08062000  1.0 -0.0247033131
C  C65  1  0.84475000  0.29450000  0.09205000  1.0 -0.0753303866
C  C66  1  0.85928000  0.34470000  0.06358000  1.0 -0.1782173738
C  C67  1  0.74771000  0.18360000  0.10951000  1.0 0.5346737703
C  C68  1  0.84149000  0.43160000  0.88059000  1.0 0.0595443099
C  C69  1  0.93419000  0.38870000  0.86919000  1.0 -0.1390879701
C  C70  1  0.94089000  0.37690000  0.82769000  1.0 -0.1782173738
C  C71  1  0.85250000  0.40860000  0.79630000  1.0 -0.0284388826
C  C72  1  0.76315000  0.45420000  0.80725000  1.0 -0.2144961546
C  C73  1  0.75693000  0.46500000  0.84923000  1.0 -0.2195255071
C  C74  1  0.85516000  0.39410000  0.75086000  1.0 0.5078775783
C  C75  1  0.80637000  0.31730000  0.93487000  1.0 0.0503401061
C  C76  1  0.70027000  0.29680000  0.90427000  1.0 -0.1579592749
C  C77  1  0.69359000  0.23240000  0.88839000  1.0 -0.1579592749
C  C78  1  0.79325000  0.18550000  0.90205000  1.0 0.0686946881
C  C79  1  0.89947000  0.20610000  0.93247000  1.0 -0.151779101
C  C80  1  0.90467000  0.27070000  0.94857000  1.0 -0.151779101
C  C81  1  0.78453000  0.11620000  0.88473000  1.0 0.0595443099
C  C82  1  0.66120000  0.08360000  0.87550000  1.0 -0.151779101
C  C83  1  0.65042000  0.01840000  0.85972000  1.0 -0.0001725105
C  C84  1  0.76341000  0.98500000  0.85221000  1.0 -0.229886281
C  C85  1  0.88626000  0.01610000  0.86116000  1.0 -0.070045511
C  C86  1  0.89617000  0.08100000  0.87777000  1.0 -0.1390879701
C  C87  1  0.51583000  0.98420000  0.85173000  1.0 0.5078775783
C  C88  1  0.00783000  0.97950000  0.85263000  1.0 0.4398795118
C  C89  1  0.75570000  0.86830000  0.75180000  1.0 0.2401896504
C  C90  1  0.51820000  0.85000000  0.74890000  1.0 -0.1782173738
C  C91  1  0.60910000  0.93530000  0.70210000  1.0 -0.0868226426
C  C92  1  0.79300000  0.80100000  0.88100000  1.0 0.2740693589
C  C93  1  0.73400000  0.68300000  0.87800000  1.0 -0.4347739692
C  C94  1  0.57400000  0.77200000  0.89300000  1.0 -0.131316343
C  C95  1  0.97810000  0.68010000  0.77030000  1.0 0.2401896504
C  C96  1  0.03090000  0.57430000  0.80390000  1.0 -0.1579592749
C  C97  1  0.96850000  0.57860000  0.72650000  1.0 -0.0868226426
C  C98  1  0.72450000  0.83280000  0.74500000  1.0 0.2401896504
C  C99  1  0.57520000  0.93000000  0.74620000  1.0 -0.0284388826
C  C100  1  0.56150000  0.85650000  0.68250000  1.0 -0.2415436829
C  C101  1  0.79080000  0.80400000  0.87640000  1.0 0.2786390011
C  C102  1  0.84730000  0.77630000  0.94940000  1.0 -0.4347739692
C  C103  1  0.61990000  0.80640000  0.91880000  1.0 -0.131316343
C  C104  1  0.91490000  0.67990000  0.76890000  1.0 0.1925432955
C  C105  1  0.01690000  0.56810000  0.77190000  1.0 -0.0138182952
C  C106  1  0.80040000  0.59440000  0.72540000  1.0 -0.3064597795
C  C107  1  0.82770000  0.90860000  0.49910000  1.0 -0.4735451514
C  C108  1  0.82337000  0.97950000  0.48257000  1.0 0.1759695013
C  C109  1  0.83234000  0.99290000  0.44114000  1.0 -0.2195255071
C  C110  1  0.82911000  0.05820000  0.42561000  1.0 0.0269332323
C  C111  1  0.81209000  0.11280000  0.45149000  1.0 -0.0491088356
C  C112  1  0.80162000  0.10000000  0.49372000  1.0 0.0269332323
C  C113  1  0.80786000  0.03370000  0.50776000  1.0 -0.2195255071
C  C114  1  0.78383000  0.15500000  0.52333000  1.0 0.0595443099
C  C115  1  0.69109000  0.20610000  0.51299000  1.0 -0.151779101
C  C116  1  0.67914000  0.25780000  0.54084000  1.0 -0.1131331722
C  C117  1  0.75782000  0.25880000  0.58062000  1.0 -0.0247033131
C  C118  1  0.84475000  0.20550000  0.59205000  1.0 -0.0753303866
C  C119  1  0.85928000  0.15530000  0.56358000  1.0 -0.1782173738
C  C120  1  0.74771000  0.31640000  0.60951000  1.0 0.5346737703
C  C121  1  0.84149000  0.06840000  0.38059000  1.0 0.0595443099
C  C122  1  0.93419000  0.11130000  0.36919000  1.0 -0.1390879701
C  C123  1  0.94089000  0.12310000  0.32769000  1.0 -0.1782173738
C  C124  1  0.85250000  0.09140000  0.29630000  1.0 -0.0284388826
C  C125  1  0.76315000  0.04580000  0.30725000  1.0 -0.2144961546
C  C126  1  0.75693000  0.03500000  0.34923000  1.0 -0.2195255071
C  C127  1  0.85516000  0.10590000  0.25086000  1.0 0.5078775783
C  C128  1  0.80637000  0.18270000  0.43487000  1.0 0.0503401061
C  C129  1  0.70027000  0.20320000  0.40427000  1.0 -0.1579592749
C  C130  1  0.69359000  0.26760000  0.38839000  1.0 -0.1579592749
C  C131  1  0.79325000  0.31450000  0.40205000  1.0 0.0686946881
C  C132  1  0.89947000  0.29390000  0.43247000  1.0 -0.151779101
C  C133  1  0.90467000  0.22930000  0.44857000  1.0 -0.151779101
C  C134  1  0.78453000  0.38380000  0.38473000  1.0 0.0595443099
C  C135  1  0.66120000  0.41640000  0.37550000  1.0 -0.151779101
C  C136  1  0.65042000  0.48160000  0.35972000  1.0 -0.0001725105
C  C137  1  0.76341000  0.51500000  0.35221000  1.0 -0.229886281
C  C138  1  0.88626000  0.48390000  0.36116000  1.0 -0.070045511
C  C139  1  0.89617000  0.41900000  0.37777000  1.0 -0.1390879701
C  C140  1  0.51583000  0.51580000  0.35173000  1.0 0.5078775783
C  C141  1  0.00783000  0.52050000  0.35263000  1.0 0.4398795118
C  C142  1  0.75570000  0.63170000  0.25180000  1.0 0.2401896504
C  C143  1  0.51820000  0.65000000  0.24890000  1.0 -0.1782173738
C  C144  1  0.60910000  0.56470000  0.20210000  1.0 -0.0868226426
C  C145  1  0.79300000  0.69900000  0.38100000  1.0 0.2740693589
C  C146  1  0.73400000  0.81700000  0.37800000  1.0 -0.4347739692
C  C147  1  0.57400000  0.72800000  0.39300000  1.0 -0.131316343
C  C148  1  0.97810000  0.81990000  0.27030000  1.0 0.2401896504
C  C149  1  0.03090000  0.92570000  0.30390000  1.0 -0.1579592749
C  C150  1  0.96850000  0.92140000  0.22650000  1.0 -0.0868226426
C  C151  1  0.72450000  0.66720000  0.24500000  1.0 0.2401896504
C  C152  1  0.57520000  0.57000000  0.24620000  1.0 -0.0284388826
C  C153  1  0.56150000  0.64350000  0.18250000  1.0 -0.2415436829
C  C154  1  0.79080000  0.69600000  0.37640000  1.0 0.2786390011
C  C155  1  0.84730000  0.72370000  0.44940000  1.0 -0.4347739692
C  C156  1  0.61990000  0.69360000  0.41880000  1.0 -0.131316343
C  C157  1  0.91490000  0.82010000  0.26890000  1.0 0.1925432955
C  C158  1  0.01690000  0.93190000  0.27190000  1.0 -0.0138182952
C  C159  1  0.80040000  0.90560000  0.22540000  1.0 -0.3064597795
C  C160  1  0.17230000  0.40860000  0.00090000  1.0 -0.4735451514
C  C161  1  0.17663000  0.47950000  0.01743000  1.0 0.1759695013
C  C162  1  0.16766000  0.49290000  0.05886000  1.0 -0.2195255071
C  C163  1  0.17089000  0.55820000  0.07439000  1.0 0.0269332323
C  C164  1  0.18791000  0.61280000  0.04851000  1.0 -0.0491088356
C  C165  1  0.19838000  0.60000000  0.00628000  1.0 0.0269332323
C  C166  1  0.19214000  0.53370000  0.99224000  1.0 -0.2195255071
C  C167  1  0.21617000  0.65500000  0.97667000  1.0 0.0595443099
C  C168  1  0.30891000  0.70610000  0.98701000  1.0 -0.151779101
C  C169  1  0.32086000  0.75780000  0.95916000  1.0 -0.1131331722
C  C170  1  0.24218000  0.75880000  0.91938000  1.0 -0.0247033131
C  C171  1  0.15525000  0.70550000  0.90795000  1.0 -0.0753303866
C  C172  1  0.14072000  0.65530000  0.93642000  1.0 -0.1782173738
C  C173  1  0.25229000  0.81640000  0.89049000  1.0 0.5346737703
C  C174  1  0.15851000  0.56840000  0.11941000  1.0 0.0595443099
C  C175  1  0.06581000  0.61130000  0.13081000  1.0 -0.1390879701
C  C176  1  0.05911000  0.62310000  0.17231000  1.0 -0.1782173738
C  C177  1  0.14750000  0.59140000  0.20370000  1.0 -0.0284388826
C  C178  1  0.23685000  0.54580000  0.19275000  1.0 -0.2144961546
C  C179  1  0.24307000  0.53500000  0.15077000  1.0 -0.2195255071
C  C180  1  0.14484000  0.60590000  0.24914000  1.0 0.5078775783
C  C181  1  0.19363000  0.68270000  0.06513000  1.0 0.0503401061
C  C182  1  0.29973000  0.70320000  0.09573000  1.0 -0.1579592749
C  C183  1  0.30641000  0.76760000  0.11161000  1.0 -0.1579592749
C  C184  1  0.20675000  0.81450000  0.09795000  1.0 0.0686946881
C  C185  1  0.10053000  0.79390000  0.06753000  1.0 -0.151779101
C  C186  1  0.09533000  0.72930000  0.05143000  1.0 -0.151779101
C  C187  1  0.21547000  0.88380000  0.11527000  1.0 0.0595443099
C  C188  1  0.33880000  0.91640000  0.12450000  1.0 -0.151779101
C  C189  1  0.34958000  0.98160000  0.14028000  1.0 -0.0001725105
C  C190  1  0.23659000  0.01500000  0.14779000  1.0 -0.229886281
C  C191  1  0.11374000  0.98390000  0.13884000  1.0 -0.070045511
C  C192  1  0.10383000  0.91900000  0.12223000  1.0 -0.1390879701
C  C193  1  0.48417000  0.01580000  0.14827000  1.0 0.5078775783
C  C194  1  0.99217000  0.02050000  0.14737000  1.0 0.4398795118
C  C195  1  0.24430000  0.13170000  0.24820000  1.0 0.2401896504
C  C196  1  0.48180000  0.15000000  0.25110000  1.0 -0.1782173738
C  C197  1  0.39090000  0.06470000  0.29790000  1.0 -0.0868226426
C  C198  1  0.20700000  0.19900000  0.11900000  1.0 0.2740693589
C  C199  1  0.26600000  0.31700000  0.12200000  1.0 -0.4347739692
C  C200  1  0.42600000  0.22800000  0.10700000  1.0 -0.131316343
C  C201  1  0.02190000  0.31990000  0.22970000  1.0 0.2401896504
C  C202  1  0.96910000  0.42570000  0.19610000  1.0 -0.1579592749
C  C203  1  0.03150000  0.42140000  0.27350000  1.0 -0.0868226426
C  C204  1  0.27550000  0.16720000  0.25500000  1.0 0.2401896504
C  C205  1  0.42480000  0.07000000  0.25380000  1.0 -0.0284388826
C  C206  1  0.43850000  0.14350000  0.31750000  1.0 -0.2415436829
C  C207  1  0.20920000  0.19600000  0.12360000  1.0 0.2786390011
C  C208  1  0.15270000  0.22370000  0.05060000  1.0 -0.4347739692
C  C209  1  0.38010000  0.19360000  0.08120000  1.0 -0.131316343
C  C210  1  0.08510000  0.32010000  0.23110000  1.0 0.1925432955
C  C211  1  0.98310000  0.43190000  0.22810000  1.0 -0.0138182952
C  C212  1  0.19960000  0.40560000  0.27460000  1.0 -0.3064597795
N  N1  1  0.36910000  0.38230000  0.76430000  1.0 0.0595443099
N  N2  1  0.29900000  0.25400000  0.61600000  1.0 0.0595443099
N  N3  1  0.00840000  0.11520000  0.73450000  1.0 0.0979261045
N  N4  1  0.37240000  0.36970000  0.77430000  1.0 0.0786363192
N  N5  1  0.24920000  0.29530000  0.58800000  1.0 0.0503401061
N  N6  1  0.08680000  0.11730000  0.74380000  1.0 0.1196415082
N  N7  1  0.63090000  0.88230000  0.73570000  1.0 0.0595443099
N  N8  1  0.70100000  0.75400000  0.88400000  1.0 0.0595443099
N  N9  1  0.99160000  0.61520000  0.76550000  1.0 0.0979261045
N  N10  1  0.62760000  0.86970000  0.72570000  1.0 0.0786363192
N  N11  1  0.75080000  0.79530000  0.91200000  1.0 0.0503401061
N  N12  1  0.91320000  0.61730000  0.75620000  1.0 0.1196415082
N  N13  1  0.63090000  0.61770000  0.23570000  1.0 0.0595443099
N  N14  1  0.70100000  0.74600000  0.38400000  1.0 0.0595443099
N  N15  1  0.99160000  0.88480000  0.26550000  1.0 0.0979261045
N  N16  1  0.62760000  0.63030000  0.22570000  1.0 0.0786363192
N  N17  1  0.75080000  0.70470000  0.41200000  1.0 0.0503401061
N  N18  1  0.91320000  0.88270000  0.25620000  1.0 0.1196415082
N  N19  1  0.36910000  0.11770000  0.26430000  1.0 0.0595443099
N  N20  1  0.29900000  0.24600000  0.11600000  1.0 0.0595443099
N  N21  1  0.00840000  0.38480000  0.23450000  1.0 0.0979261045
N  N22  1  0.37240000  0.13030000  0.27430000  1.0 0.0786363192
N  N23  1  0.24920000  0.20470000  0.08800000  1.0 0.0503401061
N  N24  1  0.08680000  0.38270000  0.24380000  1.0 0.1196415082
O  O1  1  0.31061000  0.63130000  0.40471000  1.0 -0.5054294417
O  O2  1  0.20049000  0.68880000  0.35249000  1.0 -0.5507284502
O  O3  1  0.06591000  0.84970000  0.75671000  1.0 -0.5840728979
O  O4  1  0.22306000  0.92720000  0.77556000  1.0 -0.5576454351
O  O5  1  0.49260000  0.42456000  0.65810000  1.0 -0.523574243
O  O6  1  0.58267000  0.51870000  0.64337000  1.0 -0.496852162
O  O7  1  0.00220000  0.41550000  0.65120000  1.0 -0.2415436829
O  O8  1  0.88060000  0.49850000  0.63360000  1.0 -0.2195255071
O  O9  1  0.22520000  0.32530000  0.72120000  1.0 -0.3954727973
O  O10  1  0.09900000  0.28200000  0.62700000  1.0 -0.3878171842
O  O11  1  0.00500000  0.20720000  0.69700000  1.0 -0.3604725922
O  O12  1  0.21200000  0.33610000  0.72100000  1.0 -0.3790105532
O  O13  1  0.10100000  0.29560000  0.63040000  1.0 -0.3604725922
O  O14  1  0.00780000  0.21070000  0.70680000  1.0 -0.2738974492
O  O15  1  0.00840000  0.43080000  0.67150000  1.0 -0.2463467742
O  O16  1  0.88620000  0.51610000  0.64220000  1.0 -0.2917582045
O  O17  1  0.68939000  0.13130000  0.09529000  1.0 -0.5054294417
O  O18  1  0.79951000  0.18880000  0.14751000  1.0 -0.5507284502
O  O19  1  0.93409000  0.34970000  0.74329000  1.0 -0.5840728979
O  O20  1  0.77694000  0.42720000  0.72444000  1.0 -0.5576454351
O  O21  1  0.50740000  0.92456000  0.84190000  1.0 -0.523574243
O  O22  1  0.41733000  0.01870000  0.85663000  1.0 -0.496852162
O  O23  1  0.99780000  0.91550000  0.84880000  1.0 -0.2415436829
O  O24  1  0.11940000  0.99850000  0.86640000  1.0 -0.2195255071
O  O25  1  0.77480000  0.82530000  0.77880000  1.0 -0.3954727973
O  O26  1  0.90100000  0.78200000  0.87300000  1.0 -0.3878171842
O  O27  1  0.99500000  0.70720000  0.80300000  1.0 -0.3604725922
O  O28  1  0.78800000  0.83610000  0.77900000  1.0 -0.3790105532
O  O29  1  0.89900000  0.79560000  0.86960000  1.0 -0.3604725922
O  O30  1  0.99220000  0.71070000  0.79320000  1.0 -0.2738974492
O  O31  1  0.99160000  0.93080000  0.82850000  1.0 -0.2463467742
O  O32  1  0.11380000  0.01610000  0.85780000  1.0 -0.2917582045
O  O33  1  0.68939000  0.36870000  0.59529000  1.0 -0.5054294417
O  O34  1  0.79951000  0.31120000  0.64751000  1.0 -0.5507284502
O  O35  1  0.93409000  0.15030000  0.24329000  1.0 -0.5840728979
O  O36  1  0.77694000  0.07280000  0.22444000  1.0 -0.5576454351
O  O37  1  0.50740000  0.57544000  0.34190000  1.0 -0.523574243
O  O38  1  0.41733000  0.48130000  0.35663000  1.0 -0.496852162
O  O39  1  0.99780000  0.58450000  0.34880000  1.0 -0.2415436829
O  O40  1  0.11940000  0.50150000  0.36640000  1.0 -0.2195255071
O  O41  1  0.77480000  0.67470000  0.27880000  1.0 -0.3954727973
O  O42  1  0.90100000  0.71800000  0.37300000  1.0 -0.3878171842
O  O43  1  0.99500000  0.79280000  0.30300000  1.0 -0.3604725922
O  O44  1  0.78800000  0.66390000  0.27900000  1.0 -0.3790105532
O  O45  1  0.89900000  0.70440000  0.36960000  1.0 -0.3604725922
O  O46  1  0.99220000  0.78930000  0.29320000  1.0 -0.2738974492
O  O47  1  0.99160000  0.56920000  0.32850000  1.0 -0.2463467742
O  O48  1  0.11380000  0.48390000  0.35780000  1.0 -0.2917582045
O  O49  1  0.31061000  0.86870000  0.90471000  1.0 -0.5054294417
O  O50  1  0.20049000  0.81120000  0.85249000  1.0 -0.5507284502
O  O51  1  0.06591000  0.65030000  0.25671000  1.0 -0.5840728979
O  O52  1  0.22306000  0.57280000  0.27556000  1.0 -0.5576454351
O  O53  1  0.49260000  0.07544000  0.15810000  1.0 -0.523574243
O  O54  1  0.58267000  0.98130000  0.14337000  1.0 -0.496852162
O  O55  1  0.00220000  0.08450000  0.15120000  1.0 -0.2415436829
O  O56  1  0.88060000  0.00150000  0.13360000  1.0 -0.2144961546
O  O57  1  0.22520000  0.17470000  0.22120000  1.0 -0.3954727973
O  O58  1  0.09900000  0.21800000  0.12700000  1.0 -0.3878171842
O  O59  1  0.00500000  0.29280000  0.19700000  1.0 -0.3604725922
O  O60  1  0.21200000  0.16390000  0.22100000  1.0 -0.3790105532
O  O61  1  0.10100000  0.20440000  0.13040000  1.0 -0.3604725922
O  O62  1  0.00780000  0.28930000  0.20680000  1.0 -0.2738974492
O  O63  1  0.00840000  0.06920000  0.17150000  1.0 -0.2463467742
O  O64  1  0.88620000  0.98390000  0.14220000  1.0 -0.2917582045
