# DDEC6 charges by PACMAN v1.1 (https://github.com/mtap-research/PACMAN-charge/)
data_QALHIX_ASR_pacman
_symmetry_space_group_name_H-M   'P 1'
_cell_length_a   32.96760000
_cell_length_b   32.96760000
_cell_length_c   26.69560000
_cell_angle_alpha   90.00000000
_cell_angle_beta   90.00000000
_cell_angle_gamma   90.00000000
_symmetry_Int_Tables_number   1
_chemical_formula_structural   Cd7H46C108(NO2)24
_chemical_formula_sum   'Cd28 H184 C432 N96 O192'
_cell_volume   29014.45055293
_cell_formula_units_Z   4
loop_
 _symmetry_equiv_pos_site_id
 _symmetry_equiv_pos_as_xyz
  1  'x, y, z'
loop_
 _atom_site_type_symbol
 _atom_site_label
 _atom_site_symmetry_multiplicity
 _atom_site_fract_x
 _atom_site_fract_y
 _atom_site_fract_z
 _atom_site_occupancy
 _atom_site_charge
Cd  Cd1  1  0.50000000  0.50000000  0.66127000  1.0 1.0237998221
Cd  Cd2  1  0.50000000  0.50000000  0.33873000  1.0 1.0237998221
Cd  Cd3  1  0.00000000  0.00000000  0.83873000  1.0 1.0305662738
Cd  Cd4  1  0.00000000  0.00000000  0.16127000  1.0 1.0237998221
Cd  Cd5  1  0.37058000  0.35814000  0.06276000  1.0 1.0305662738
Cd  Cd6  1  0.64186000  0.37058000  0.93724000  1.0 1.0305662738
Cd  Cd7  1  0.12942000  0.85814000  0.43724000  1.0 1.0305662738
Cd  Cd8  1  0.62942000  0.64186000  0.06276000  1.0 1.0305662738
Cd  Cd9  1  0.85814000  0.87058000  0.56276000  1.0 1.0305662738
Cd  Cd10  1  0.14186000  0.12942000  0.56276000  1.0 1.0305662738
Cd  Cd11  1  0.35814000  0.62942000  0.93724000  1.0 1.0305662738
Cd  Cd12  1  0.87058000  0.14186000  0.43724000  1.0 1.0305662738
Cd  Cd13  1  0.98006000  0.65089000  0.35313000  1.0 1.0081450595
Cd  Cd14  1  0.34911000  0.98006000  0.64687000  1.0 1.0081450595
Cd  Cd15  1  0.51994000  0.15089000  0.14687000  1.0 1.0081450595
Cd  Cd16  1  0.01994000  0.34911000  0.35313000  1.0 1.0081450595
Cd  Cd17  1  0.15089000  0.48006000  0.85313000  1.0 1.0081450595
Cd  Cd18  1  0.84911000  0.51994000  0.85313000  1.0 1.0081450595
Cd  Cd19  1  0.65089000  0.01994000  0.64687000  1.0 1.0081450595
Cd  Cd20  1  0.48006000  0.84911000  0.14687000  1.0 1.0081450595
Cd  Cd21  1  0.32037000  0.26714000  0.72294000  1.0 1.0402586712
Cd  Cd22  1  0.73286000  0.32037000  0.27706000  1.0 1.0402586712
Cd  Cd23  1  0.17963000  0.76714000  0.77706000  1.0 1.0402586712
Cd  Cd24  1  0.67963000  0.73286000  0.72294000  1.0 1.0402586712
Cd  Cd25  1  0.76714000  0.82037000  0.22294000  1.0 1.0402586712
Cd  Cd26  1  0.23286000  0.17963000  0.22294000  1.0 1.0402586712
Cd  Cd27  1  0.26714000  0.67963000  0.27706000  1.0 1.0402586712
Cd  Cd28  1  0.82037000  0.23286000  0.77706000  1.0 1.0402586712
H  H1  1  0.35140000  0.29920000  0.31420000  1.0 0.2909498077
H  H2  1  0.70080000  0.35140000  0.68580000  1.0 0.2909498077
H  H3  1  0.14860000  0.79920000  0.18580000  1.0 0.2909498077
H  H4  1  0.64860000  0.70080000  0.31420000  1.0 0.2909498077
H  H5  1  0.79920000  0.85140000  0.81420000  1.0 0.2909498077
H  H6  1  0.20080000  0.14860000  0.81420000  1.0 0.2909498077
H  H7  1  0.29920000  0.64860000  0.68580000  1.0 0.2909498077
H  H8  1  0.85140000  0.20080000  0.18580000  1.0 0.2909498077
H  H9  1  0.42280000  0.36920000  0.47280000  1.0 0.2838255916
H  H10  1  0.63080000  0.42280000  0.52720000  1.0 0.2909498077
H  H11  1  0.07720000  0.86920000  0.02720000  1.0 0.2838255916
H  H12  1  0.57720000  0.63080000  0.47280000  1.0 0.2838255916
H  H13  1  0.86920000  0.92280000  0.97280000  1.0 0.2838255916
H  H14  1  0.13080000  0.07720000  0.97280000  1.0 0.2838255916
H  H15  1  0.36920000  0.57720000  0.52720000  1.0 0.2909498077
H  H16  1  0.92280000  0.13080000  0.02720000  1.0 0.2838255916
H  H17  1  0.44230000  0.40900000  0.53610000  1.0 0.1394307106
H  H18  1  0.59100000  0.44230000  0.46390000  1.0 0.1394307106
H  H19  1  0.05770000  0.90900000  0.96390000  1.0 0.1394307106
H  H20  1  0.55770000  0.59100000  0.53610000  1.0 0.1394307106
H  H21  1  0.90900000  0.94230000  0.03610000  1.0 0.1394307106
H  H22  1  0.09100000  0.05770000  0.03610000  1.0 0.1394307106
H  H23  1  0.40900000  0.55770000  0.46390000  1.0 0.1394307106
H  H24  1  0.94230000  0.09100000  0.96390000  1.0 0.1394307106
H  H25  1  0.41820000  0.37620000  0.35230000  1.0 0.1319450644
H  H26  1  0.62380000  0.41820000  0.64770000  1.0 0.1319450644
H  H27  1  0.08180000  0.87620000  0.14770000  1.0 0.1319450644
H  H28  1  0.58180000  0.62380000  0.35230000  1.0 0.1319450644
H  H29  1  0.87620000  0.91820000  0.85230000  1.0 0.1394307106
H  H30  1  0.12380000  0.08180000  0.85230000  1.0 0.1319450644
H  H31  1  0.37620000  0.58180000  0.64770000  1.0 0.1319450644
H  H32  1  0.91820000  0.12380000  0.14770000  1.0 0.1319450644
H  H33  1  0.43870000  0.41400000  0.21100000  1.0 0.1394307106
H  H34  1  0.58600000  0.43870000  0.78900000  1.0 0.1394307106
H  H35  1  0.06130000  0.91400000  0.28900000  1.0 0.1394307106
H  H36  1  0.56130000  0.58600000  0.21100000  1.0 0.1394307106
H  H37  1  0.91400000  0.93870000  0.71100000  1.0 0.1394307106
H  H38  1  0.08600000  0.06130000  0.71100000  1.0 0.1394307106
H  H39  1  0.41400000  0.56130000  0.78900000  1.0 0.1394307106
H  H40  1  0.93870000  0.08600000  0.28900000  1.0 0.1394307106
H  H41  1  0.24680000  0.22660000  0.51400000  1.0 0.1394307106
H  H42  1  0.77340000  0.24680000  0.48600000  1.0 0.1394307106
H  H43  1  0.25320000  0.72660000  0.98600000  1.0 0.1394307106
H  H44  1  0.75320000  0.77340000  0.51400000  1.0 0.1394307106
H  H45  1  0.72660000  0.74680000  0.01400000  1.0 0.1394307106
H  H46  1  0.27340000  0.25320000  0.01400000  1.0 0.1394307106
H  H47  1  0.22660000  0.75320000  0.48600000  1.0 0.1394307106
H  H48  1  0.74680000  0.27340000  0.98600000  1.0 0.1394307106
H  H49  1  0.19250000  0.16730000  0.40260000  1.0 0.1394307106
H  H50  1  0.83270000  0.19250000  0.59740000  1.0 0.1394307106
H  H51  1  0.30750000  0.66730000  0.09740000  1.0 0.1394307106
H  H52  1  0.80750000  0.83270000  0.40260000  1.0 0.1394307106
H  H53  1  0.66730000  0.69250000  0.90260000  1.0 0.1394307106
H  H54  1  0.33270000  0.30750000  0.90260000  1.0 0.1394307106
H  H55  1  0.16730000  0.80750000  0.59740000  1.0 0.1394307106
H  H56  1  0.69250000  0.33270000  0.09740000  1.0 0.1394307106
H  H57  1  0.36660000  0.31840000  0.23720000  1.0 0.1394307106
H  H58  1  0.68160000  0.36660000  0.76280000  1.0 0.1394307106
H  H59  1  0.13340000  0.81840000  0.26280000  1.0 0.1394307106
H  H60  1  0.63340000  0.68160000  0.23720000  1.0 0.1394307106
H  H61  1  0.81840000  0.86660000  0.73720000  1.0 0.1394307106
H  H62  1  0.18160000  0.13340000  0.73720000  1.0 0.1394307106
H  H63  1  0.31840000  0.63340000  0.76280000  1.0 0.1394307106
H  H64  1  0.86660000  0.18160000  0.26280000  1.0 0.1394307106
H  H65  1  0.28610000  0.24300000  0.37280000  1.0 0.1394307106
H  H66  1  0.75700000  0.28610000  0.62720000  1.0 0.1394307106
H  H67  1  0.21390000  0.74300000  0.12720000  1.0 0.1394307106
H  H68  1  0.71390000  0.75700000  0.37280000  1.0 0.1394307106
H  H69  1  0.74300000  0.78610000  0.87280000  1.0 0.1394307106
H  H70  1  0.25700000  0.21390000  0.87280000  1.0 0.1394307106
H  H71  1  0.24300000  0.71390000  0.62720000  1.0 0.1394307106
H  H72  1  0.78610000  0.25700000  0.12720000  1.0 0.1394307106
H  H73  1  0.34150000  0.49600000  0.00160000  1.0 0.1394307106
H  H74  1  0.50400000  0.34150000  0.99840000  1.0 0.1394307106
H  H75  1  0.15850000  0.99600000  0.49840000  1.0 0.1394307106
H  H76  1  0.65850000  0.50400000  0.00160000  1.0 0.1394307106
H  H77  1  0.99600000  0.84150000  0.50160000  1.0 0.1394307106
H  H78  1  0.00400000  0.15850000  0.50160000  1.0 0.1394307106
H  H79  1  0.49600000  0.65850000  0.99840000  1.0 0.1394307106
H  H80  1  0.84150000  0.00400000  0.49840000  1.0 0.1394307106
H  H81  1  0.30080000  0.26450000  0.50010000  1.0 0.3035432327
H  H82  1  0.73550000  0.30080000  0.49990000  1.0 0.3035432327
H  H83  1  0.19920000  0.76450000  0.99990000  1.0 0.3035432327
H  H84  1  0.69920000  0.73550000  0.50010000  1.0 0.3050197019
H  H85  1  0.76450000  0.80080000  0.00010000  1.0 0.3035432327
H  H86  1  0.23550000  0.19920000  0.00010000  1.0 0.3035432327
H  H87  1  0.26450000  0.69920000  0.49990000  1.0 0.3035432327
H  H88  1  0.80080000  0.23550000  0.99990000  1.0 0.3035432327
H  H89  1  0.41780000  0.37760000  0.67770000  1.0 0.1462912328
H  H90  1  0.62240000  0.41780000  0.32230000  1.0 0.1462912328
H  H91  1  0.08220000  0.87760000  0.82230000  1.0 0.1462912328
H  H92  1  0.58220000  0.62240000  0.67770000  1.0 0.1462912328
H  H93  1  0.87760000  0.91780000  0.17770000  1.0 0.1462912328
H  H94  1  0.12240000  0.08220000  0.17770000  1.0 0.1462912328
H  H95  1  0.37760000  0.58220000  0.32230000  1.0 0.1462912328
H  H96  1  0.91780000  0.12240000  0.82230000  1.0 0.1462912328
H  H97  1  0.21180000  0.54520000  0.11580000  1.0 0.3035432327
H  H98  1  0.45480000  0.21180000  0.88420000  1.0 0.3035432327
H  H99  1  0.28820000  0.04520000  0.38420000  1.0 0.3035432327
H  H100  1  0.78820000  0.45480000  0.11580000  1.0 0.3035432327
H  H101  1  0.04520000  0.71180000  0.61580000  1.0 0.3050197019
H  H102  1  0.95480000  0.28820000  0.61580000  1.0 0.3050197019
H  H103  1  0.54520000  0.78820000  0.88420000  1.0 0.3050197019
H  H104  1  0.71180000  0.95480000  0.38420000  1.0 0.3035432327
H  H105  1  0.20220000  0.38580000  0.14970000  1.0 0.2909498077
H  H106  1  0.61420000  0.20220000  0.85030000  1.0 0.2909498077
H  H107  1  0.29780000  0.88580000  0.35030000  1.0 0.2909498077
H  H108  1  0.79780000  0.61420000  0.14970000  1.0 0.2909498077
H  H109  1  0.88580000  0.70220000  0.64970000  1.0 0.2909498077
H  H110  1  0.11420000  0.29780000  0.64970000  1.0 0.2909498077
H  H111  1  0.38580000  0.79780000  0.85030000  1.0 0.2909498077
H  H112  1  0.70220000  0.11420000  0.35030000  1.0 0.2909498077
H  H113  1  0.10990000  0.49040000  0.25770000  1.0 0.2909498077
H  H114  1  0.50960000  0.10990000  0.74230000  1.0 0.2909498077
H  H115  1  0.39010000  0.99040000  0.24230000  1.0 0.2909498077
H  H116  1  0.89010000  0.50960000  0.25770000  1.0 0.2909498077
H  H117  1  0.99040000  0.60990000  0.75770000  1.0 0.2909498077
H  H118  1  0.00960000  0.39010000  0.75770000  1.0 0.2909498077
H  H119  1  0.49040000  0.89010000  0.74230000  1.0 0.2909498077
H  H120  1  0.60990000  0.00960000  0.24230000  1.0 0.2909498077
H  H121  1  0.24920000  0.56450000  0.04670000  1.0 0.1394307106
H  H122  1  0.43550000  0.24920000  0.95330000  1.0 0.1394307106
H  H123  1  0.25080000  0.06450000  0.45330000  1.0 0.1394307106
H  H124  1  0.75080000  0.43550000  0.04670000  1.0 0.1394307106
H  H125  1  0.06450000  0.74920000  0.54670000  1.0 0.1394307106
H  H126  1  0.93550000  0.25080000  0.54670000  1.0 0.1394307106
H  H127  1  0.56450000  0.75080000  0.95330000  1.0 0.1394307106
H  H128  1  0.74920000  0.93550000  0.45330000  1.0 0.1394307106
H  H129  1  0.18320000  0.56150000  0.24420000  1.0 0.1319450644
H  H130  1  0.43850000  0.18320000  0.75580000  1.0 0.1319450644
H  H131  1  0.31680000  0.06150000  0.25580000  1.0 0.1319450644
H  H132  1  0.81680000  0.43850000  0.24420000  1.0 0.1319450644
H  H133  1  0.06150000  0.68320000  0.74420000  1.0 0.1319450644
H  H134  1  0.93850000  0.31680000  0.74420000  1.0 0.1319450644
H  H135  1  0.56150000  0.81680000  0.75580000  1.0 0.1319450644
H  H136  1  0.68320000  0.93850000  0.25580000  1.0 0.1319450644
H  H137  1  0.26520000  0.45280000  0.10400000  1.0 0.1394307106
H  H138  1  0.54720000  0.26520000  0.89600000  1.0 0.1394307106
H  H139  1  0.23480000  0.95280000  0.39600000  1.0 0.1394307106
H  H140  1  0.73480000  0.54720000  0.10400000  1.0 0.1394307106
H  H141  1  0.95280000  0.76520000  0.60400000  1.0 0.1394307106
H  H142  1  0.04720000  0.23480000  0.60400000  1.0 0.1394307106
H  H143  1  0.45280000  0.73480000  0.89600000  1.0 0.1394307106
H  H144  1  0.76520000  0.04720000  0.39600000  1.0 0.1394307106
H  H145  1  0.12080000  0.39150000  0.23270000  1.0 0.1319450644
H  H146  1  0.60850000  0.12080000  0.76730000  1.0 0.1319450644
H  H147  1  0.37920000  0.89150000  0.26730000  1.0 0.1319450644
H  H148  1  0.87920000  0.60850000  0.23270000  1.0 0.1319450644
H  H149  1  0.89150000  0.62080000  0.73270000  1.0 0.1319450644
H  H150  1  0.10850000  0.37920000  0.73270000  1.0 0.1319450644
H  H151  1  0.39150000  0.87920000  0.76730000  1.0 0.1319450644
H  H152  1  0.62080000  0.10850000  0.26730000  1.0 0.1319450644
H  H153  1  0.20570000  0.32140000  0.17030000  1.0 0.1394307106
H  H154  1  0.67860000  0.20570000  0.82970000  1.0 0.1394307106
H  H155  1  0.29430000  0.82140000  0.32970000  1.0 0.1394307106
H  H156  1  0.79430000  0.67860000  0.17030000  1.0 0.1394307106
H  H157  1  0.82140000  0.70570000  0.67030000  1.0 0.1394307106
H  H158  1  0.17860000  0.29430000  0.67030000  1.0 0.1394307106
H  H159  1  0.32140000  0.79430000  0.82970000  1.0 0.1394307106
H  H160  1  0.70570000  0.17860000  0.32970000  1.0 0.1394307106
H  H161  1  0.12630000  0.27360000  0.26530000  1.0 0.1462912328
H  H162  1  0.72640000  0.12630000  0.73470000  1.0 0.1462912328
H  H163  1  0.37370000  0.77360000  0.23470000  1.0 0.1462912328
H  H164  1  0.87370000  0.72640000  0.26530000  1.0 0.1462912328
H  H165  1  0.77360000  0.62630000  0.76530000  1.0 0.1462912328
H  H166  1  0.22640000  0.37370000  0.76530000  1.0 0.1462912328
H  H167  1  0.27360000  0.87370000  0.73470000  1.0 0.1462912328
H  H168  1  0.62630000  0.22640000  0.23470000  1.0 0.1462912328
H  H169  1  0.12220000  0.64900000  0.31770000  1.0 0.1394307106
H  H170  1  0.35100000  0.12220000  0.68230000  1.0 0.1394307106
H  H171  1  0.37780000  0.14900000  0.18230000  1.0 0.1394307106
H  H172  1  0.87780000  0.35100000  0.31770000  1.0 0.1394307106
H  H173  1  0.14900000  0.62220000  0.81770000  1.0 0.1394307106
H  H174  1  0.85100000  0.37780000  0.81770000  1.0 0.1394307106
H  H175  1  0.64900000  0.87780000  0.68230000  1.0 0.1394307106
H  H176  1  0.62220000  0.85100000  0.18230000  1.0 0.1394307106
H  H177  1  0.06630000  0.54430000  0.28130000  1.0 0.1394307106
H  H178  1  0.45570000  0.06630000  0.71870000  1.0 0.1394307106
H  H179  1  0.43370000  0.04430000  0.21870000  1.0 0.1394307106
H  H180  1  0.93370000  0.45570000  0.28130000  1.0 0.1394307106
H  H181  1  0.04430000  0.56630000  0.78130000  1.0 0.1394307106
H  H182  1  0.95570000  0.43370000  0.78130000  1.0 0.1394307106
H  H183  1  0.54430000  0.93370000  0.71870000  1.0 0.1394307106
H  H184  1  0.56630000  0.95570000  0.21870000  1.0 0.1394307106
C  C1  1  0.45774000  0.43433000  0.30442000  1.0 0.52938408
C  C2  1  0.56567000  0.45774000  0.69558000  1.0 0.52938408
C  C3  1  0.04226000  0.93433000  0.19558000  1.0 0.52938408
C  C4  1  0.54226000  0.56567000  0.30442000  1.0 0.52938408
C  C5  1  0.93433000  0.95774000  0.80442000  1.0 0.52938408
C  C6  1  0.06567000  0.04226000  0.80442000  1.0 0.52938408
C  C7  1  0.43433000  0.54226000  0.69558000  1.0 0.52938408
C  C8  1  0.95774000  0.06567000  0.19558000  1.0 0.52938408
C  C9  1  0.36828000  0.31499000  0.66180000  1.0 0.5410581179
C  C10  1  0.68501000  0.36828000  0.33820000  1.0 0.5410581179
C  C11  1  0.13172000  0.81499000  0.83820000  1.0 0.5410581179
C  C12  1  0.63172000  0.68501000  0.66180000  1.0 0.5410581179
C  C13  1  0.81499000  0.86828000  0.16180000  1.0 0.5410581179
C  C14  1  0.18501000  0.13172000  0.16180000  1.0 0.5410581179
C  C15  1  0.31499000  0.63172000  0.33820000  1.0 0.5410581179
C  C16  1  0.86828000  0.18501000  0.83820000  1.0 0.5410581179
C  C17  1  0.39288000  0.36243000  0.15959000  1.0 0.52938408
C  C18  1  0.63757000  0.39288000  0.84041000  1.0 0.52938408
C  C19  1  0.10712000  0.86243000  0.34041000  1.0 0.52938408
C  C20  1  0.60712000  0.63757000  0.15959000  1.0 0.52938408
C  C21  1  0.86243000  0.89288000  0.65959000  1.0 0.52938408
C  C22  1  0.13757000  0.10712000  0.65959000  1.0 0.52938408
C  C23  1  0.36243000  0.60712000  0.84041000  1.0 0.52938408
C  C24  1  0.89288000  0.13757000  0.34041000  1.0 0.52938408
C  C25  1  0.18779000  0.17476000  0.49940000  1.0 0.5410581179
C  C26  1  0.82524000  0.18779000  0.50060000  1.0 0.5410581179
C  C27  1  0.31221000  0.67476000  0.00060000  1.0 0.5410581179
C  C28  1  0.81221000  0.82524000  0.49940000  1.0 0.5410581179
C  C29  1  0.67476000  0.68779000  0.99940000  1.0 0.5410581179
C  C30  1  0.32524000  0.31221000  0.99940000  1.0 0.5410581179
C  C31  1  0.17476000  0.81221000  0.50060000  1.0 0.5410581179
C  C32  1  0.68779000  0.32524000  0.00060000  1.0 0.5410581179
C  C33  1  0.38890000  0.34386000  0.30000000  1.0 0.2065802189
C  C34  1  0.65614000  0.38890000  0.70000000  1.0 0.2065802189
C  C35  1  0.11110000  0.84386000  0.20000000  1.0 0.2065802189
C  C36  1  0.61110000  0.65614000  0.30000000  1.0 0.2065802189
C  C37  1  0.84386000  0.88890000  0.80000000  1.0 0.2065802189
C  C38  1  0.15614000  0.11110000  0.80000000  1.0 0.2065802189
C  C39  1  0.34386000  0.61110000  0.70000000  1.0 0.2065802189
C  C40  1  0.88890000  0.15614000  0.20000000  1.0 0.2065802189
C  C41  1  0.21525000  0.19450000  0.46330000  1.0 -0.0060446892
C  C42  1  0.80550000  0.21525000  0.53670000  1.0 -0.0060446892
C  C43  1  0.28475000  0.69450000  0.03670000  1.0 -0.0060446892
C  C44  1  0.78475000  0.80550000  0.46330000  1.0 -0.0060446892
C  C45  1  0.69450000  0.71525000  0.96330000  1.0 -0.0060446892
C  C46  1  0.30550000  0.28475000  0.96330000  1.0 -0.0060446892
C  C47  1  0.19450000  0.78475000  0.53670000  1.0 -0.0060446892
C  C48  1  0.71525000  0.30550000  0.03670000  1.0 -0.0060446892
C  C49  1  0.45761000  0.43438000  0.62919000  1.0 0.5410581179
C  C50  1  0.56562000  0.45761000  0.37081000  1.0 0.5410581179
C  C51  1  0.04239000  0.93438000  0.87081000  1.0 0.5410581179
C  C52  1  0.54239000  0.56562000  0.62919000  1.0 0.5410581179
C  C53  1  0.93438000  0.95761000  0.12919000  1.0 0.5410581179
C  C54  1  0.06562000  0.04239000  0.12919000  1.0 0.5410581179
C  C55  1  0.43438000  0.54239000  0.37081000  1.0 0.5410581179
C  C56  1  0.95761000  0.06562000  0.87081000  1.0 0.5410581179
C  C57  1  0.42940000  0.39172000  0.55859000  1.0 -0.180057848
C  C58  1  0.60828000  0.42940000  0.44141000  1.0 -0.180057848
C  C59  1  0.07060000  0.89172000  0.94141000  1.0 -0.180057848
C  C60  1  0.57060000  0.60828000  0.55859000  1.0 -0.180057848
C  C61  1  0.89172000  0.92940000  0.05859000  1.0 -0.180057848
C  C62  1  0.10828000  0.07060000  0.05859000  1.0 -0.180057848
C  C63  1  0.39172000  0.57060000  0.44141000  1.0 -0.180057848
C  C64  1  0.92940000  0.10828000  0.94141000  1.0 -0.180057848
C  C65  1  0.23700000  0.19396000  0.32440000  1.0 0.52938408
C  C66  1  0.80604000  0.23700000  0.67560000  1.0 0.5211956295
C  C67  1  0.26300000  0.69396000  0.17560000  1.0 0.52938408
C  C68  1  0.76300000  0.80604000  0.32440000  1.0 0.52938408
C  C69  1  0.69396000  0.73700000  0.82440000  1.0 0.52938408
C  C70  1  0.30604000  0.26300000  0.82440000  1.0 0.52938408
C  C71  1  0.19396000  0.76300000  0.67560000  1.0 0.52938408
C  C72  1  0.73700000  0.30604000  0.17560000  1.0 0.52938408
C  C73  1  0.41380000  0.37360000  0.31800000  1.0 -0.1662169547
C  C74  1  0.62640000  0.41380000  0.68200000  1.0 -0.1662169547
C  C75  1  0.08620000  0.87360000  0.18200000  1.0 -0.1662169547
C  C76  1  0.58620000  0.62640000  0.31800000  1.0 -0.1662169547
C  C77  1  0.87360000  0.91380000  0.81800000  1.0 -0.1639058081
C  C78  1  0.12640000  0.08620000  0.81800000  1.0 -0.1639058081
C  C79  1  0.37360000  0.58620000  0.68200000  1.0 -0.1662169547
C  C80  1  0.91380000  0.12640000  0.18200000  1.0 -0.1639058081
C  C81  1  0.33040000  0.42964000  0.05590000  1.0 0.5410581179
C  C82  1  0.57036000  0.33040000  0.94410000  1.0 0.5410581179
C  C83  1  0.16960000  0.92964000  0.44410000  1.0 0.5410581179
C  C84  1  0.66960000  0.57036000  0.05590000  1.0 0.5410581179
C  C85  1  0.92964000  0.83040000  0.55590000  1.0 0.5410581179
C  C86  1  0.07036000  0.16960000  0.55590000  1.0 0.5410581179
C  C87  1  0.42964000  0.66960000  0.94410000  1.0 0.5410581179
C  C88  1  0.83040000  0.07036000  0.44410000  1.0 0.5410581179
C  C89  1  0.43283000  0.40025000  0.28410000  1.0 0.0184149287
C  C90  1  0.59975000  0.43283000  0.71590000  1.0 0.0184149287
C  C91  1  0.06717000  0.90025000  0.21590000  1.0 0.0184149287
C  C92  1  0.56717000  0.59975000  0.28410000  1.0 0.0184149287
C  C93  1  0.90025000  0.93283000  0.78410000  1.0 0.0184149287
C  C94  1  0.09975000  0.06717000  0.78410000  1.0 0.0184149287
C  C95  1  0.40025000  0.56717000  0.71590000  1.0 0.0184149287
C  C96  1  0.93283000  0.09975000  0.21590000  1.0 0.0184149287
C  C97  1  0.24006000  0.20244000  0.37880000  1.0 0.0096224757
C  C98  1  0.79756000  0.24006000  0.62120000  1.0 0.0096224757
C  C99  1  0.25994000  0.70244000  0.12120000  1.0 0.0096224757
C  C100  1  0.75994000  0.79756000  0.37880000  1.0 0.0096224757
C  C101  1  0.70244000  0.74006000  0.87880000  1.0 0.0096224757
C  C102  1  0.29756000  0.25994000  0.87880000  1.0 0.0096224757
C  C103  1  0.20244000  0.75994000  0.62120000  1.0 0.0096224757
C  C104  1  0.74006000  0.29756000  0.12120000  1.0 0.0096224757
C  C105  1  0.40660000  0.35950000  0.54109000  1.0 0.1811783566
C  C106  1  0.64050000  0.40660000  0.45891000  1.0 0.1811783566
C  C107  1  0.09340000  0.85950000  0.95891000  1.0 0.1811783566
C  C108  1  0.59340000  0.64050000  0.54109000  1.0 0.1811783566
C  C109  1  0.85950000  0.90660000  0.04109000  1.0 0.1811783566
C  C110  1  0.14050000  0.09340000  0.04109000  1.0 0.1811783566
C  C111  1  0.35950000  0.59340000  0.45891000  1.0 0.1811783566
C  C112  1  0.90660000  0.14050000  0.95891000  1.0 0.1811783566
C  C113  1  0.42648000  0.39610000  0.23326000  1.0 -0.0805087455
C  C114  1  0.60390000  0.42648000  0.76674000  1.0 -0.0805087455
C  C115  1  0.07352000  0.89610000  0.26674000  1.0 -0.0805087455
C  C116  1  0.57352000  0.60390000  0.23326000  1.0 -0.0805087455
C  C117  1  0.89610000  0.92648000  0.73326000  1.0 -0.0805087455
C  C118  1  0.10390000  0.07352000  0.73326000  1.0 -0.0805087455
C  C119  1  0.39610000  0.57352000  0.76674000  1.0 -0.0805087455
C  C120  1  0.92648000  0.10390000  0.26674000  1.0 -0.0805087455
C  C121  1  0.43326000  0.39864000  0.61146000  1.0 0.0007508278
C  C122  1  0.60136000  0.43326000  0.38854000  1.0 0.0007508278
C  C123  1  0.06674000  0.89864000  0.88854000  1.0 -0.0012345496
C  C124  1  0.56674000  0.60136000  0.61146000  1.0 0.0007508278
C  C125  1  0.89864000  0.93326000  0.11146000  1.0 -0.0012345496
C  C126  1  0.10136000  0.06674000  0.11146000  1.0 -0.0012345496
C  C127  1  0.39864000  0.56674000  0.38854000  1.0 -0.0012345496
C  C128  1  0.93326000  0.10136000  0.88854000  1.0 -0.0012345496
C  C129  1  0.38630000  0.33380000  0.57460000  1.0 0.0096224757
C  C130  1  0.66620000  0.38630000  0.42540000  1.0 0.0096224757
C  C131  1  0.11370000  0.83380000  0.92540000  1.0 0.0096224757
C  C132  1  0.61370000  0.66620000  0.57460000  1.0 0.0096224757
C  C133  1  0.83380000  0.88630000  0.07460000  1.0 0.0096224757
C  C134  1  0.16620000  0.11370000  0.07460000  1.0 0.0096224757
C  C135  1  0.33380000  0.61370000  0.42540000  1.0 0.0096224757
C  C136  1  0.88630000  0.16620000  0.92540000  1.0 0.0096224757
C  C137  1  0.19610000  0.63460000  0.28300000  1.0 0.5410581179
C  C138  1  0.36540000  0.19610000  0.71700000  1.0 0.5410581179
C  C139  1  0.30390000  0.13460000  0.21700000  1.0 0.5410581179
C  C140  1  0.80390000  0.36540000  0.28300000  1.0 0.52938408
C  C141  1  0.13460000  0.69610000  0.78300000  1.0 0.5410581179
C  C142  1  0.86540000  0.30390000  0.78300000  1.0 0.5410581179
C  C143  1  0.63460000  0.80390000  0.71700000  1.0 0.5410581179
C  C144  1  0.69610000  0.86540000  0.21700000  1.0 0.5410581179
C  C145  1  0.40156000  0.36491000  0.21533000  1.0 0.0287902944
C  C146  1  0.63509000  0.40156000  0.78467000  1.0 0.0287902944
C  C147  1  0.09844000  0.86491000  0.28467000  1.0 0.0184149287
C  C148  1  0.59844000  0.63509000  0.21533000  1.0 0.0287902944
C  C149  1  0.86491000  0.90156000  0.71533000  1.0 0.0287902944
C  C150  1  0.13509000  0.09844000  0.71533000  1.0 0.0184149287
C  C151  1  0.36491000  0.59844000  0.78467000  1.0 0.0184149287
C  C152  1  0.90156000  0.13509000  0.28467000  1.0 0.0287902944
C  C153  1  0.39046000  0.34067000  0.62649000  1.0 -0.0631912904
C  C154  1  0.65933000  0.39046000  0.37351000  1.0 -0.0631912904
C  C155  1  0.10954000  0.84067000  0.87351000  1.0 -0.0663082633
C  C156  1  0.60954000  0.65933000  0.62649000  1.0 -0.0631912904
C  C157  1  0.84067000  0.89046000  0.12649000  1.0 -0.0631912904
C  C158  1  0.15933000  0.10954000  0.12649000  1.0 -0.0631912904
C  C159  1  0.34067000  0.60954000  0.37351000  1.0 -0.0631912904
C  C160  1  0.89046000  0.15933000  0.87351000  1.0 -0.0631912904
C  C161  1  0.24500000  0.22080000  0.48000000  1.0 -0.180057848
C  C162  1  0.77920000  0.24500000  0.52000000  1.0 -0.180057848
C  C163  1  0.25500000  0.72080000  0.02000000  1.0 -0.180057848
C  C164  1  0.75500000  0.77920000  0.48000000  1.0 -0.180057848
C  C165  1  0.72080000  0.74500000  0.98000000  1.0 -0.180057848
C  C166  1  0.27920000  0.25500000  0.98000000  1.0 -0.180057848
C  C167  1  0.22080000  0.75500000  0.52000000  1.0 -0.180057848
C  C168  1  0.74500000  0.27920000  0.02000000  1.0 -0.180057848
C  C169  1  0.36300000  0.31440000  0.38340000  1.0 0.5002569113
C  C170  1  0.68560000  0.36300000  0.61660000  1.0 0.5002569113
C  C171  1  0.13700000  0.81440000  0.11660000  1.0 0.5002569113
C  C172  1  0.63700000  0.68560000  0.38340000  1.0 0.5002569113
C  C173  1  0.81440000  0.86300000  0.88340000  1.0 0.5002569113
C  C174  1  0.18560000  0.13700000  0.88340000  1.0 0.5002569113
C  C175  1  0.31440000  0.63700000  0.61660000  1.0 0.5002569113
C  C176  1  0.86300000  0.18560000  0.11660000  1.0 0.5002569113
C  C177  1  0.21249000  0.18510000  0.41370000  1.0 -0.0867047099
C  C178  1  0.81490000  0.21249000  0.58630000  1.0 -0.0867047099
C  C179  1  0.28751000  0.68510000  0.08630000  1.0 -0.0867047099
C  C180  1  0.78751000  0.81490000  0.41370000  1.0 -0.0867047099
C  C181  1  0.68510000  0.71249000  0.91370000  1.0 -0.0805087455
C  C182  1  0.31490000  0.28751000  0.91370000  1.0 -0.0805087455
C  C183  1  0.18510000  0.78751000  0.58630000  1.0 -0.0867047099
C  C184  1  0.71249000  0.31490000  0.08630000  1.0 -0.0805087455
C  C185  1  0.38314000  0.33917000  0.24890000  1.0 -0.180057848
C  C186  1  0.66083000  0.38314000  0.75110000  1.0 -0.180057848
C  C187  1  0.11686000  0.83917000  0.25110000  1.0 -0.180057848
C  C188  1  0.61686000  0.66083000  0.24890000  1.0 -0.180057848
C  C189  1  0.83917000  0.88314000  0.74890000  1.0 -0.180057848
C  C190  1  0.16083000  0.11686000  0.74890000  1.0 -0.180057848
C  C191  1  0.33917000  0.61686000  0.75110000  1.0 -0.180057848
C  C192  1  0.88314000  0.16083000  0.25110000  1.0 -0.180057848
C  C193  1  0.37760000  0.33370000  0.45990000  1.0 0.5002569113
C  C194  1  0.66630000  0.37760000  0.54010000  1.0 0.5002569113
C  C195  1  0.12240000  0.83370000  0.04010000  1.0 0.5002569113
C  C196  1  0.62240000  0.66630000  0.45990000  1.0 0.5002569113
C  C197  1  0.83370000  0.87760000  0.95990000  1.0 0.5002569113
C  C198  1  0.16630000  0.12240000  0.95990000  1.0 0.5002569113
C  C199  1  0.33370000  0.62240000  0.54010000  1.0 0.5002569113
C  C200  1  0.87760000  0.16630000  0.04010000  1.0 0.5002569113
C  C201  1  0.26900000  0.23020000  0.39564000  1.0 -0.1639058081
C  C202  1  0.76980000  0.26900000  0.60436000  1.0 -0.1662169547
C  C203  1  0.23100000  0.73020000  0.10436000  1.0 -0.1639058081
C  C204  1  0.73100000  0.76980000  0.39564000  1.0 -0.1639058081
C  C205  1  0.73020000  0.76900000  0.89564000  1.0 -0.1639058081
C  C206  1  0.26980000  0.23100000  0.89564000  1.0 -0.1639058081
C  C207  1  0.23020000  0.73100000  0.60436000  1.0 -0.1639058081
C  C208  1  0.76900000  0.26980000  0.10436000  1.0 -0.1639058081
C  C209  1  0.27250000  0.23880000  0.44670000  1.0 0.2173749488
C  C210  1  0.76120000  0.27250000  0.55330000  1.0 0.2173749488
C  C211  1  0.22750000  0.73880000  0.05330000  1.0 0.2173749488
C  C212  1  0.72750000  0.76120000  0.44670000  1.0 0.2173749488
C  C213  1  0.73880000  0.77250000  0.94670000  1.0 0.2173749488
C  C214  1  0.26120000  0.22750000  0.94670000  1.0 0.2173749488
C  C215  1  0.23880000  0.72750000  0.55330000  1.0 0.2173749488
C  C216  1  0.77250000  0.26120000  0.05330000  1.0 0.2173749488
C  C217  1  0.15810000  0.61000000  0.28220000  1.0 0.0184149287
C  C218  1  0.39000000  0.15810000  0.71780000  1.0 0.0096224757
C  C219  1  0.34190000  0.11000000  0.21780000  1.0 0.0096224757
C  C220  1  0.84190000  0.39000000  0.28220000  1.0 0.0184149287
C  C221  1  0.11000000  0.65810000  0.78220000  1.0 0.0184149287
C  C222  1  0.89000000  0.34190000  0.78220000  1.0 0.0184149287
C  C223  1  0.61000000  0.84190000  0.71780000  1.0 0.0096224757
C  C224  1  0.65810000  0.89000000  0.21780000  1.0 0.0184149287
C  C225  1  0.30630000  0.46790000  0.05370000  1.0 -0.0012345496
C  C226  1  0.53210000  0.30630000  0.94630000  1.0 -0.0012345496
C  C227  1  0.19370000  0.96790000  0.44630000  1.0 -0.0012345496
C  C228  1  0.69370000  0.53210000  0.05370000  1.0 -0.0012345496
C  C229  1  0.96790000  0.80630000  0.55370000  1.0 0.0007508278
C  C230  1  0.03210000  0.19370000  0.55370000  1.0 -0.0012345496
C  C231  1  0.46790000  0.69370000  0.94630000  1.0 -0.0012345496
C  C232  1  0.80630000  0.03210000  0.44630000  1.0 0.0007508278
C  C233  1  0.31830000  0.49890000  0.02090000  1.0 -0.0663082633
C  C234  1  0.50110000  0.31830000  0.97910000  1.0 -0.0663082633
C  C235  1  0.18170000  0.99890000  0.47910000  1.0 -0.0663082633
C  C236  1  0.68170000  0.50110000  0.02090000  1.0 -0.0663082633
C  C237  1  0.99890000  0.81830000  0.52090000  1.0 -0.0663082633
C  C238  1  0.00110000  0.18170000  0.52090000  1.0 -0.0663082633
C  C239  1  0.49890000  0.68170000  0.97910000  1.0 -0.0663082633
C  C240  1  0.81830000  0.00110000  0.47910000  1.0 -0.0663082633
C  C241  1  0.32950000  0.28840000  0.44660000  1.0 0.5002569113
C  C242  1  0.71160000  0.32950000  0.55340000  1.0 0.5002569113
C  C243  1  0.17050000  0.78840000  0.05340000  1.0 0.5002569113
C  C244  1  0.67050000  0.71160000  0.44660000  1.0 0.5002569113
C  C245  1  0.78840000  0.82950000  0.94660000  1.0 0.5002569113
C  C246  1  0.21160000  0.17050000  0.94660000  1.0 0.5002569113
C  C247  1  0.28840000  0.67050000  0.55340000  1.0 0.5002569113
C  C248  1  0.82950000  0.21160000  0.05340000  1.0 0.5002569113
C  C249  1  0.41471000  0.37348000  0.64345000  1.0 -0.0536707271
C  C250  1  0.62652000  0.41471000  0.35655000  1.0 -0.0631912904
C  C251  1  0.08529000  0.87348000  0.85655000  1.0 -0.0536707271
C  C252  1  0.58529000  0.62652000  0.64345000  1.0 -0.0536707271
C  C253  1  0.87348000  0.91471000  0.14345000  1.0 -0.0536707271
C  C254  1  0.12652000  0.08529000  0.14345000  1.0 -0.0536707271
C  C255  1  0.37348000  0.58529000  0.35655000  1.0 -0.0536707271
C  C256  1  0.91471000  0.12652000  0.85655000  1.0 -0.0536707271
C  C257  1  0.26300000  0.53990000  0.04830000  1.0 -0.1885177512
C  C258  1  0.46010000  0.26300000  0.95170000  1.0 -0.1885177512
C  C259  1  0.23700000  0.03990000  0.45170000  1.0 -0.1885177512
C  C260  1  0.73700000  0.46010000  0.04830000  1.0 -0.1885177512
C  C261  1  0.03990000  0.76300000  0.54830000  1.0 -0.1885177512
C  C262  1  0.96010000  0.23700000  0.54830000  1.0 -0.1885177512
C  C263  1  0.53990000  0.73700000  0.95170000  1.0 -0.1885177512
C  C264  1  0.76300000  0.96010000  0.45170000  1.0 -0.1885177512
C  C265  1  0.12540000  0.54660000  0.26090000  1.0 0.2173749488
C  C266  1  0.45340000  0.12540000  0.73910000  1.0 0.2173749488
C  C267  1  0.37460000  0.04660000  0.23910000  1.0 0.2173749488
C  C268  1  0.87460000  0.45340000  0.26090000  1.0 0.2173749488
C  C269  1  0.04660000  0.62540000  0.76090000  1.0 0.2173749488
C  C270  1  0.95340000  0.37460000  0.76090000  1.0 0.2173749488
C  C271  1  0.54660000  0.87460000  0.73910000  1.0 0.2173749488
C  C272  1  0.62540000  0.95340000  0.23910000  1.0 0.2173749488
C  C273  1  0.17770000  0.43480000  0.17420000  1.0 0.5134078787
C  C274  1  0.56520000  0.17770000  0.82580000  1.0 0.5134078787
C  C275  1  0.32230000  0.93480000  0.32580000  1.0 0.5134078787
C  C276  1  0.82230000  0.56520000  0.17420000  1.0 0.5134078787
C  C277  1  0.93480000  0.67770000  0.67420000  1.0 0.5134078787
C  C278  1  0.06520000  0.32230000  0.67420000  1.0 0.5134078787
C  C279  1  0.43480000  0.82230000  0.82580000  1.0 0.5134078787
C  C280  1  0.67770000  0.06520000  0.32580000  1.0 0.5134078787
C  C281  1  0.19830000  0.49500000  0.14580000  1.0 0.5211956295
C  C282  1  0.50500000  0.19830000  0.85420000  1.0 0.5211956295
C  C283  1  0.30170000  0.99500000  0.35420000  1.0 0.5211956295
C  C284  1  0.80170000  0.50500000  0.14580000  1.0 0.5211956295
C  C285  1  0.99500000  0.69830000  0.64580000  1.0 0.5211956295
C  C286  1  0.00500000  0.30170000  0.64580000  1.0 0.5211956295
C  C287  1  0.49500000  0.80170000  0.85420000  1.0 0.5211956295
C  C288  1  0.69830000  0.00500000  0.35420000  1.0 0.52938408
C  C289  1  0.15960000  0.57060000  0.25960000  1.0 -0.180057848
C  C290  1  0.42940000  0.15960000  0.74040000  1.0 -0.180057848
C  C291  1  0.34040000  0.07060000  0.24040000  1.0 -0.180057848
C  C292  1  0.84040000  0.42940000  0.25960000  1.0 -0.180057848
C  C293  1  0.07060000  0.65960000  0.75960000  1.0 -0.180057848
C  C294  1  0.92940000  0.34040000  0.75960000  1.0 -0.180057848
C  C295  1  0.57060000  0.84040000  0.74040000  1.0 -0.180057848
C  C296  1  0.65960000  0.92940000  0.24040000  1.0 -0.180057848
C  C297  1  0.27310000  0.47371000  0.08280000  1.0 -0.1639058081
C  C298  1  0.52629000  0.27310000  0.91720000  1.0 -0.1639058081
C  C299  1  0.22690000  0.97371000  0.41720000  1.0 -0.1639058081
C  C300  1  0.72690000  0.52629000  0.08280000  1.0 -0.1639058081
C  C301  1  0.97371000  0.77310000  0.58280000  1.0 -0.1639058081
C  C302  1  0.02629000  0.22690000  0.58280000  1.0 -0.1639058081
C  C303  1  0.47371000  0.72690000  0.91720000  1.0 -0.1639058081
C  C304  1  0.77310000  0.02629000  0.41720000  1.0 -0.1639058081
C  C305  1  0.24970000  0.51030000  0.08260000  1.0 0.2483728221
C  C306  1  0.48970000  0.24970000  0.91740000  1.0 0.2483728221
C  C307  1  0.25030000  0.01030000  0.41740000  1.0 0.2483728221
C  C308  1  0.75030000  0.48970000  0.08260000  1.0 0.2483728221
C  C309  1  0.01030000  0.74970000  0.58260000  1.0 0.2483728221
C  C310  1  0.98970000  0.25030000  0.58260000  1.0 0.2483728221
C  C311  1  0.51030000  0.75030000  0.91740000  1.0 0.2483728221
C  C312  1  0.74970000  0.98970000  0.41740000  1.0 0.2483728221
C  C313  1  0.13370000  0.36650000  0.22920000  1.0 -0.1662169547
C  C314  1  0.63350000  0.13370000  0.77080000  1.0 -0.1639058081
C  C315  1  0.36630000  0.86650000  0.27080000  1.0 -0.1639058081
C  C316  1  0.86630000  0.63350000  0.22920000  1.0 -0.1662169547
C  C317  1  0.86650000  0.63370000  0.72920000  1.0 -0.1662169547
C  C318  1  0.13350000  0.36630000  0.72920000  1.0 -0.1662169547
C  C319  1  0.36650000  0.86630000  0.77080000  1.0 -0.1639058081
C  C320  1  0.63370000  0.13350000  0.27080000  1.0 -0.1639058081
C  C321  1  0.17050000  0.29070000  0.22000000  1.0 0.0287902944
C  C322  1  0.70930000  0.17050000  0.78000000  1.0 0.0287902944
C  C323  1  0.32950000  0.79070000  0.28000000  1.0 0.0287902944
C  C324  1  0.82950000  0.70930000  0.22000000  1.0 0.0287902944
C  C325  1  0.79070000  0.67050000  0.72000000  1.0 0.0361982594
C  C326  1  0.20930000  0.32950000  0.72000000  1.0 0.0361982594
C  C327  1  0.29070000  0.82950000  0.78000000  1.0 0.0287902944
C  C328  1  0.67050000  0.20930000  0.28000000  1.0 0.0287902944
C  C329  1  0.18420000  0.32420000  0.19250000  1.0 -0.180057848
C  C330  1  0.67580000  0.18420000  0.80750000  1.0 -0.180057848
C  C331  1  0.31580000  0.82420000  0.30750000  1.0 -0.180057848
C  C332  1  0.81580000  0.67580000  0.19250000  1.0 -0.1885177512
C  C333  1  0.82420000  0.68420000  0.69250000  1.0 -0.1885177512
C  C334  1  0.17580000  0.31580000  0.69250000  1.0 -0.180057848
C  C335  1  0.32420000  0.81580000  0.80750000  1.0 -0.1885177512
C  C336  1  0.68420000  0.17580000  0.30750000  1.0 -0.180057848
C  C337  1  0.19170000  0.24995000  0.21370000  1.0 0.52938408
C  C338  1  0.75005000  0.19170000  0.78630000  1.0 0.52938408
C  C339  1  0.30830000  0.74995000  0.28630000  1.0 0.52938408
C  C340  1  0.80830000  0.75005000  0.21370000  1.0 0.52938408
C  C341  1  0.74995000  0.69170000  0.71370000  1.0 0.52938408
C  C342  1  0.25005000  0.30830000  0.71370000  1.0 0.52938408
C  C343  1  0.24995000  0.80830000  0.78630000  1.0 0.52938408
C  C344  1  0.69170000  0.25005000  0.28630000  1.0 0.52938408
C  C345  1  0.13750000  0.29600000  0.24920000  1.0 -0.0867047099
C  C346  1  0.70400000  0.13750000  0.75080000  1.0 -0.0867047099
C  C347  1  0.36250000  0.79600000  0.25080000  1.0 -0.0867047099
C  C348  1  0.86250000  0.70400000  0.24920000  1.0 -0.0867047099
C  C349  1  0.79600000  0.63750000  0.74920000  1.0 -0.0867047099
C  C350  1  0.20400000  0.36250000  0.74920000  1.0 -0.0867047099
C  C351  1  0.29600000  0.86250000  0.75080000  1.0 -0.0867047099
C  C352  1  0.63750000  0.20400000  0.25080000  1.0 -0.0867047099
C  C353  1  0.12290000  0.62340000  0.30300000  1.0 -0.0867047099
C  C354  1  0.37660000  0.12290000  0.69700000  1.0 -0.0805087455
C  C355  1  0.37710000  0.12340000  0.19700000  1.0 -0.0867047099
C  C356  1  0.87710000  0.37660000  0.30300000  1.0 -0.0867047099
C  C357  1  0.12340000  0.62290000  0.80300000  1.0 -0.0805087455
C  C358  1  0.87660000  0.37710000  0.80300000  1.0 -0.0805087455
C  C359  1  0.62340000  0.87710000  0.69700000  1.0 -0.0867047099
C  C360  1  0.62290000  0.87660000  0.19700000  1.0 -0.0867047099
C  C361  1  0.16530000  0.36230000  0.19880000  1.0 0.2033964815
C  C362  1  0.63770000  0.16530000  0.80120000  1.0 0.2033964815
C  C363  1  0.33470000  0.86230000  0.30120000  1.0 0.2033964815
C  C364  1  0.83470000  0.63770000  0.19880000  1.0 0.2033964815
C  C365  1  0.86230000  0.66530000  0.69880000  1.0 0.2033964815
C  C366  1  0.13770000  0.33470000  0.69880000  1.0 0.2033964815
C  C367  1  0.36230000  0.83470000  0.80120000  1.0 0.2033964815
C  C368  1  0.66530000  0.13770000  0.30120000  1.0 0.2033964815
C  C369  1  0.29540000  0.53400000  0.01730000  1.0 0.0096224757
C  C370  1  0.46600000  0.29540000  0.98270000  1.0 0.0096224757
C  C371  1  0.20460000  0.03400000  0.48270000  1.0 0.0096224757
C  C372  1  0.70460000  0.46600000  0.01730000  1.0 0.0096224757
C  C373  1  0.03400000  0.79540000  0.51730000  1.0 0.0096224757
C  C374  1  0.96600000  0.20460000  0.51730000  1.0 0.0096224757
C  C375  1  0.53400000  0.70460000  0.98270000  1.0 0.0096224757
C  C376  1  0.79540000  0.96600000  0.48270000  1.0 0.0096224757
C  C377  1  0.08870000  0.60040000  0.30280000  1.0 0.0007508278
C  C378  1  0.39960000  0.08870000  0.69720000  1.0 -0.0012345496
C  C379  1  0.41130000  0.10040000  0.19720000  1.0 -0.0012345496
C  C380  1  0.91130000  0.39960000  0.30280000  1.0 0.0007508278
C  C381  1  0.10040000  0.58870000  0.80280000  1.0 -0.0012345496
C  C382  1  0.89960000  0.41130000  0.80280000  1.0 -0.0012345496
C  C383  1  0.60040000  0.91130000  0.69720000  1.0 -0.0012345496
C  C384  1  0.58870000  0.89960000  0.19720000  1.0 -0.0012345496
C  C385  1  0.04920000  0.61510000  0.32320000  1.0 0.4878419815
C  C386  1  0.38490000  0.04920000  0.67680000  1.0 0.4832809819
C  C387  1  0.45080000  0.11510000  0.17680000  1.0 0.4832809819
C  C388  1  0.95080000  0.38490000  0.32320000  1.0 0.4878419815
C  C389  1  0.11510000  0.54920000  0.82320000  1.0 0.4878419815
C  C390  1  0.88490000  0.45080000  0.82320000  1.0 0.4878419815
C  C391  1  0.61510000  0.95080000  0.67680000  1.0 0.4832809819
C  C392  1  0.54920000  0.88490000  0.17680000  1.0 0.4832809819
C  C393  1  0.08950000  0.56050000  0.28140000  1.0 -0.1980212582
C  C394  1  0.43950000  0.08950000  0.71860000  1.0 -0.1980212582
C  C395  1  0.41050000  0.06050000  0.21860000  1.0 -0.1980212582
C  C396  1  0.91050000  0.43950000  0.28140000  1.0 -0.1980212582
C  C397  1  0.06050000  0.58950000  0.78140000  1.0 -0.1980212582
C  C398  1  0.93950000  0.41050000  0.78140000  1.0 -0.1980212582
C  C399  1  0.56050000  0.91050000  0.71860000  1.0 -0.1980212582
C  C400  1  0.58950000  0.93950000  0.21860000  1.0 -0.1980212582
C  C401  1  0.15190000  0.49040000  0.20700000  1.0 0.5211956295
C  C402  1  0.50960000  0.15190000  0.79300000  1.0 0.5211956295
C  C403  1  0.34810000  0.99040000  0.29300000  1.0 0.5134078787
C  C404  1  0.84810000  0.50960000  0.20700000  1.0 0.5211956295
C  C405  1  0.99040000  0.65190000  0.70700000  1.0 0.5134078787
C  C406  1  0.00960000  0.34810000  0.70700000  1.0 0.5211956295
C  C407  1  0.49040000  0.84810000  0.79300000  1.0 0.5211956295
C  C408  1  0.65190000  0.00960000  0.29300000  1.0 0.5134078787
C  C409  1  0.12020000  0.33300000  0.25570000  1.0 0.0287902944
C  C410  1  0.66700000  0.12020000  0.74430000  1.0 0.0287902944
C  C411  1  0.37980000  0.83300000  0.24430000  1.0 0.0184149287
C  C412  1  0.87980000  0.66700000  0.25570000  1.0 0.0287902944
C  C413  1  0.83300000  0.62020000  0.75570000  1.0 0.0287902944
C  C414  1  0.16700000  0.37980000  0.75570000  1.0 0.0287902944
C  C415  1  0.33300000  0.87980000  0.74430000  1.0 0.0287902944
C  C416  1  0.62020000  0.16700000  0.24430000  1.0 0.0287902944
C  C417  1  0.08560000  0.33940000  0.29500000  1.0 0.52938408
C  C418  1  0.66060000  0.08560000  0.70500000  1.0 0.52938408
C  C419  1  0.41440000  0.83940000  0.20500000  1.0 0.52938408
C  C420  1  0.91440000  0.66060000  0.29500000  1.0 0.52938408
C  C421  1  0.83940000  0.58560000  0.79500000  1.0 0.52938408
C  C422  1  0.16060000  0.41440000  0.79500000  1.0 0.52938408
C  C423  1  0.33940000  0.91440000  0.70500000  1.0 0.52938408
C  C424  1  0.58560000  0.16060000  0.20500000  1.0 0.52938408
C  C425  1  0.30690000  0.56680000  0.98070000  1.0 0.5410581179
C  C426  1  0.43320000  0.30690000  0.01930000  1.0 0.5410581179
C  C427  1  0.19310000  0.06680000  0.51930000  1.0 0.5410581179
C  C428  1  0.69310000  0.43320000  0.98070000  1.0 0.5410581179
C  C429  1  0.06680000  0.80690000  0.48070000  1.0 0.5410581179
C  C430  1  0.93320000  0.19310000  0.48070000  1.0 0.5410581179
C  C431  1  0.56680000  0.69310000  0.01930000  1.0 0.5410581179
C  C432  1  0.80690000  0.93320000  0.51930000  1.0 0.5410581179
N  N1  1  0.36570000  0.31667000  0.33032000  1.0 -0.3273797507
N  N2  1  0.68333000  0.36570000  0.66968000  1.0 -0.3273797507
N  N3  1  0.13430000  0.81667000  0.16968000  1.0 -0.3273797507
N  N4  1  0.63430000  0.68333000  0.33032000  1.0 -0.3273797507
N  N5  1  0.81667000  0.86570000  0.83032000  1.0 -0.3273797507
N  N6  1  0.18333000  0.13430000  0.83032000  1.0 -0.3273797507
N  N7  1  0.31667000  0.63430000  0.66968000  1.0 -0.3194142451
N  N8  1  0.86570000  0.18333000  0.16968000  1.0 -0.3273797507
N  N9  1  0.33430000  0.28990000  0.39670000  1.0 -0.468919112
N  N10  1  0.71010000  0.33430000  0.60330000  1.0 -0.468919112
N  N11  1  0.16570000  0.78990000  0.10330000  1.0 -0.468919112
N  N12  1  0.66570000  0.71010000  0.39670000  1.0 -0.468919112
N  N13  1  0.78990000  0.83430000  0.89670000  1.0 -0.468919112
N  N14  1  0.21010000  0.16570000  0.89670000  1.0 -0.468919112
N  N15  1  0.28990000  0.66570000  0.60330000  1.0 -0.468919112
N  N16  1  0.83430000  0.21010000  0.10330000  1.0 -0.468919112
N  N17  1  0.40470000  0.35590000  0.48914000  1.0 -0.3194142451
N  N18  1  0.64410000  0.40470000  0.51086000  1.0 -0.3194142451
N  N19  1  0.09530000  0.85590000  0.01086000  1.0 -0.3194142451
N  N20  1  0.59530000  0.64410000  0.48914000  1.0 -0.3194142451
N  N21  1  0.85590000  0.90470000  0.98914000  1.0 -0.3194142451
N  N22  1  0.14410000  0.09530000  0.98914000  1.0 -0.3194142451
N  N23  1  0.35590000  0.59530000  0.51086000  1.0 -0.3194142451
N  N24  1  0.90470000  0.14410000  0.01086000  1.0 -0.3194142451
N  N25  1  0.38760000  0.33690000  0.41032000  1.0 -0.468919112
N  N26  1  0.66310000  0.38760000  0.58968000  1.0 -0.468919112
N  N27  1  0.11240000  0.83690000  0.08968000  1.0 -0.468919112
N  N28  1  0.61240000  0.66310000  0.41032000  1.0 -0.468919112
N  N29  1  0.83690000  0.88760000  0.91032000  1.0 -0.468919112
N  N30  1  0.16310000  0.11240000  0.91032000  1.0 -0.468919112
N  N31  1  0.33690000  0.61240000  0.58968000  1.0 -0.468919112
N  N32  1  0.88760000  0.16310000  0.08968000  1.0 -0.468919112
N  N33  1  0.35300000  0.30840000  0.47998000  1.0 -0.468919112
N  N34  1  0.69160000  0.35300000  0.52002000  1.0 -0.468919112
N  N35  1  0.14700000  0.80840000  0.02002000  1.0 -0.468919112
N  N36  1  0.64700000  0.69160000  0.47998000  1.0 -0.468919112
N  N37  1  0.80840000  0.85300000  0.97998000  1.0 -0.468919112
N  N38  1  0.19160000  0.14700000  0.97998000  1.0 -0.468919112
N  N39  1  0.30840000  0.64700000  0.52002000  1.0 -0.468919112
N  N40  1  0.85300000  0.19160000  0.02002000  1.0 -0.468919112
N  N41  1  0.30110000  0.26410000  0.46785000  1.0 -0.2989099928
N  N42  1  0.73590000  0.30110000  0.53215000  1.0 -0.2989099928
N  N43  1  0.19890000  0.76410000  0.03215000  1.0 -0.2989099928
N  N44  1  0.69890000  0.73590000  0.46785000  1.0 -0.2989099928
N  N45  1  0.76410000  0.80110000  0.96785000  1.0 -0.2989099928
N  N46  1  0.23590000  0.19890000  0.96785000  1.0 -0.2989099928
N  N47  1  0.26410000  0.69890000  0.53215000  1.0 -0.2989099928
N  N48  1  0.80110000  0.23590000  0.03215000  1.0 -0.2989099928
N  N49  1  0.21880000  0.52006000  0.11500000  1.0 -0.3107211431
N  N50  1  0.47994000  0.21880000  0.88500000  1.0 -0.3107211431
N  N51  1  0.28120000  0.02006000  0.38500000  1.0 -0.3107211431
N  N52  1  0.78120000  0.47994000  0.11500000  1.0 -0.3107211431
N  N53  1  0.02006000  0.71880000  0.61500000  1.0 -0.3107211431
N  N54  1  0.97994000  0.28120000  0.61500000  1.0 -0.3107211431
N  N55  1  0.52006000  0.78120000  0.88500000  1.0 -0.3107211431
N  N56  1  0.71880000  0.97994000  0.38500000  1.0 -0.3107211431
N  N57  1  0.18430000  0.39346000  0.17110000  1.0 -0.3107211431
N  N58  1  0.60654000  0.18430000  0.82890000  1.0 -0.3194142451
N  N59  1  0.31570000  0.89346000  0.32890000  1.0 -0.3194142451
N  N60  1  0.81570000  0.60654000  0.17110000  1.0 -0.3107211431
N  N61  1  0.89346000  0.68430000  0.67110000  1.0 -0.3194142451
N  N62  1  0.10654000  0.31570000  0.67110000  1.0 -0.3107211431
N  N63  1  0.39346000  0.81570000  0.82890000  1.0 -0.3194142451
N  N64  1  0.68430000  0.10654000  0.32890000  1.0 -0.3194142451
N  N65  1  0.12670000  0.50690000  0.24390000  1.0 -0.3107211431
N  N66  1  0.49310000  0.12670000  0.75610000  1.0 -0.3194142451
N  N67  1  0.37330000  0.00690000  0.25610000  1.0 -0.3107211431
N  N68  1  0.87330000  0.49310000  0.24390000  1.0 -0.3107211431
N  N69  1  0.00690000  0.62670000  0.74390000  1.0 -0.3107211431
N  N70  1  0.99310000  0.37330000  0.74390000  1.0 -0.3107211431
N  N71  1  0.50690000  0.87330000  0.75610000  1.0 -0.3194142451
N  N72  1  0.62670000  0.99310000  0.25610000  1.0 -0.3194142451
N  N73  1  0.20170000  0.45588000  0.14140000  1.0 -0.4888234504
N  N74  1  0.54412000  0.20170000  0.85860000  1.0 -0.4888234504
N  N75  1  0.29830000  0.95588000  0.35860000  1.0 -0.4888234504
N  N76  1  0.79830000  0.54412000  0.14140000  1.0 -0.4888234504
N  N77  1  0.95588000  0.70170000  0.64140000  1.0 -0.4888234504
N  N78  1  0.04412000  0.29830000  0.64140000  1.0 -0.4888234504
N  N79  1  0.45588000  0.79830000  0.85860000  1.0 -0.4888234504
N  N80  1  0.70170000  0.04412000  0.35860000  1.0 -0.4888234504
N  N81  1  0.17140000  0.51452000  0.17700000  1.0 -0.4888234504
N  N82  1  0.48548000  0.17140000  0.82300000  1.0 -0.4975672947
N  N83  1  0.32860000  0.01452000  0.32300000  1.0 -0.4888234504
N  N84  1  0.82860000  0.48548000  0.17700000  1.0 -0.4888234504
N  N85  1  0.01452000  0.67140000  0.67700000  1.0 -0.4888234504
N  N86  1  0.98548000  0.32860000  0.67700000  1.0 -0.4888234504
N  N87  1  0.51452000  0.82860000  0.82300000  1.0 -0.4975672947
N  N88  1  0.67140000  0.98548000  0.32300000  1.0 -0.4888234504
N  N89  1  0.15190000  0.44960000  0.20620000  1.0 -0.468919112
N  N90  1  0.55040000  0.15190000  0.79380000  1.0 -0.468919112
N  N91  1  0.34810000  0.94960000  0.29380000  1.0 -0.468919112
N  N92  1  0.84810000  0.55040000  0.20620000  1.0 -0.468919112
N  N93  1  0.94960000  0.65190000  0.70620000  1.0 -0.468919112
N  N94  1  0.05040000  0.34810000  0.70620000  1.0 -0.468919112
N  N95  1  0.44960000  0.84810000  0.79380000  1.0 -0.468919112
N  N96  1  0.65190000  0.05040000  0.29380000  1.0 -0.468919112
O  O1  1  0.37225000  0.32035000  0.70810000  1.0 -0.4100435087
O  O2  1  0.67965000  0.37225000  0.29190000  1.0 -0.4100435087
O  O3  1  0.12775000  0.82035000  0.79190000  1.0 -0.4100435087
O  O4  1  0.62775000  0.67965000  0.70810000  1.0 -0.4100435087
O  O5  1  0.82035000  0.87225000  0.20810000  1.0 -0.4100435087
O  O6  1  0.17965000  0.12775000  0.20810000  1.0 -0.4100435087
O  O7  1  0.32035000  0.62775000  0.29190000  1.0 -0.4100435087
O  O8  1  0.87225000  0.17965000  0.79190000  1.0 -0.4100435087
O  O9  1  0.47416000  0.45824000  0.27291000  1.0 -0.4287227249
O  O10  1  0.54176000  0.47416000  0.72709000  1.0 -0.4287227249
O  O11  1  0.02584000  0.95824000  0.22709000  1.0 -0.4287227249
O  O12  1  0.52584000  0.54176000  0.27291000  1.0 -0.4287227249
O  O13  1  0.95824000  0.97416000  0.77291000  1.0 -0.4287227249
O  O14  1  0.04176000  0.02584000  0.77291000  1.0 -0.4287227249
O  O15  1  0.45824000  0.52584000  0.72709000  1.0 -0.4287227249
O  O16  1  0.97416000  0.04176000  0.22709000  1.0 -0.4287227249
O  O17  1  0.19422000  0.17762000  0.54541000  1.0 -0.4593523395
O  O18  1  0.82238000  0.19422000  0.45459000  1.0 -0.4593523395
O  O19  1  0.30578000  0.67762000  0.95459000  1.0 -0.4593523395
O  O20  1  0.80578000  0.82238000  0.54541000  1.0 -0.4593523395
O  O21  1  0.67762000  0.69422000  0.04541000  1.0 -0.4593523395
O  O22  1  0.32238000  0.30578000  0.04541000  1.0 -0.4593523395
O  O23  1  0.17762000  0.80578000  0.45459000  1.0 -0.4593523395
O  O24  1  0.69422000  0.32238000  0.95459000  1.0 -0.4593523395
O  O25  1  0.37127000  0.33309000  0.14498000  1.0 -0.4823836109
O  O26  1  0.66691000  0.37127000  0.85502000  1.0 -0.4823836109
O  O27  1  0.12873000  0.83309000  0.35502000  1.0 -0.4823836109
O  O28  1  0.62873000  0.66691000  0.14498000  1.0 -0.4823836109
O  O29  1  0.83309000  0.87127000  0.64498000  1.0 -0.4823836109
O  O30  1  0.16691000  0.12873000  0.64498000  1.0 -0.4823836109
O  O31  1  0.33309000  0.62873000  0.85502000  1.0 -0.4823836109
O  O32  1  0.87127000  0.16691000  0.35502000  1.0 -0.4823836109
O  O33  1  0.46175000  0.43907000  0.67499000  1.0 -0.4287227249
O  O34  1  0.56093000  0.46175000  0.32501000  1.0 -0.4385324342
O  O35  1  0.03825000  0.93907000  0.82501000  1.0 -0.4385324342
O  O36  1  0.53825000  0.56093000  0.67499000  1.0 -0.4287227249
O  O37  1  0.93907000  0.96175000  0.17499000  1.0 -0.4385324342
O  O38  1  0.06093000  0.03825000  0.17499000  1.0 -0.4385324342
O  O39  1  0.43907000  0.53825000  0.32501000  1.0 -0.4385324342
O  O40  1  0.96175000  0.06093000  0.82501000  1.0 -0.4385324342
O  O41  1  0.46219000  0.43874000  0.34995000  1.0 -0.468919112
O  O42  1  0.56126000  0.46219000  0.65005000  1.0 -0.4823836109
O  O43  1  0.03781000  0.93874000  0.15005000  1.0 -0.468919112
O  O44  1  0.53781000  0.56126000  0.34995000  1.0 -0.468919112
O  O45  1  0.93874000  0.96219000  0.84995000  1.0 -0.468919112
O  O46  1  0.06126000  0.03781000  0.84995000  1.0 -0.468919112
O  O47  1  0.43874000  0.53781000  0.65005000  1.0 -0.4823836109
O  O48  1  0.96219000  0.06126000  0.15005000  1.0 -0.468919112
O  O49  1  0.47395000  0.45709000  0.59804000  1.0 -0.468919112
O  O50  1  0.54291000  0.47395000  0.40196000  1.0 -0.4593523395
O  O51  1  0.02605000  0.95709000  0.90196000  1.0 -0.4593523395
O  O52  1  0.52605000  0.54291000  0.59804000  1.0 -0.468919112
O  O53  1  0.95709000  0.97395000  0.09804000  1.0 -0.4593523395
O  O54  1  0.04291000  0.02605000  0.09804000  1.0 -0.468919112
O  O55  1  0.45709000  0.52605000  0.40196000  1.0 -0.4593523395
O  O56  1  0.97395000  0.04291000  0.90196000  1.0 -0.4593523395
O  O57  1  0.34340000  0.28846000  0.64638000  1.0 -0.4823836109
O  O58  1  0.71154000  0.34340000  0.35362000  1.0 -0.4823836109
O  O59  1  0.15660000  0.78846000  0.85362000  1.0 -0.4823836109
O  O60  1  0.65660000  0.71154000  0.64638000  1.0 -0.4823836109
O  O61  1  0.78846000  0.84340000  0.14638000  1.0 -0.4823836109
O  O62  1  0.21154000  0.15660000  0.14638000  1.0 -0.4823836109
O  O63  1  0.28846000  0.65660000  0.35362000  1.0 -0.4823836109
O  O64  1  0.84340000  0.21154000  0.85362000  1.0 -0.4823836109
O  O65  1  0.40744000  0.38810000  0.13107000  1.0 -0.4504467725
O  O66  1  0.61190000  0.40744000  0.86893000  1.0 -0.4385324342
O  O67  1  0.09256000  0.88810000  0.36893000  1.0 -0.4504467725
O  O68  1  0.59256000  0.61190000  0.13107000  1.0 -0.4504467725
O  O69  1  0.88810000  0.90744000  0.63107000  1.0 -0.4385324342
O  O70  1  0.11190000  0.09256000  0.63107000  1.0 -0.4385324342
O  O71  1  0.38810000  0.59256000  0.86893000  1.0 -0.4385324342
O  O72  1  0.90744000  0.11190000  0.36893000  1.0 -0.4504467725
O  O73  1  0.26122000  0.21012000  0.29409000  1.0 -0.4975672947
O  O74  1  0.78988000  0.26122000  0.70591000  1.0 -0.4975672947
O  O75  1  0.23878000  0.71012000  0.20591000  1.0 -0.4975672947
O  O76  1  0.73878000  0.78988000  0.29409000  1.0 -0.4975672947
O  O77  1  0.71012000  0.76122000  0.79409000  1.0 -0.4975672947
O  O78  1  0.28988000  0.23878000  0.79409000  1.0 -0.4975672947
O  O79  1  0.21012000  0.73878000  0.70591000  1.0 -0.4975672947
O  O80  1  0.76122000  0.28988000  0.20591000  1.0 -0.4975672947
O  O81  1  0.21100000  0.16701000  0.31057000  1.0 -0.4504467725
O  O82  1  0.83299000  0.21100000  0.68943000  1.0 -0.4504467725
O  O83  1  0.28900000  0.66701000  0.18943000  1.0 -0.4504467725
O  O84  1  0.78900000  0.83299000  0.31057000  1.0 -0.4504467725
O  O85  1  0.66701000  0.71100000  0.81057000  1.0 -0.4504467725
O  O86  1  0.33299000  0.28900000  0.81057000  1.0 -0.4504467725
O  O87  1  0.16701000  0.78900000  0.68943000  1.0 -0.4593523395
O  O88  1  0.71100000  0.33299000  0.18943000  1.0 -0.4504467725
O  O89  1  0.15884000  0.15307000  0.48347000  1.0 -0.4593523395
O  O90  1  0.84693000  0.15884000  0.51653000  1.0 -0.4593523395
O  O91  1  0.34116000  0.65307000  0.01653000  1.0 -0.4593523395
O  O92  1  0.84116000  0.84693000  0.48347000  1.0 -0.4593523395
O  O93  1  0.65307000  0.65884000  0.98347000  1.0 -0.468919112
O  O94  1  0.34693000  0.34116000  0.98347000  1.0 -0.468919112
O  O95  1  0.15307000  0.84116000  0.51653000  1.0 -0.468919112
O  O96  1  0.65884000  0.34693000  0.01653000  1.0 -0.468919112
O  O97  1  0.36371000  0.42713000  0.03440000  1.0 -0.4385324342
O  O98  1  0.57287000  0.36371000  0.96560000  1.0 -0.4287227249
O  O99  1  0.13629000  0.92713000  0.46560000  1.0 -0.4385324342
O  O100  1  0.63629000  0.57287000  0.03440000  1.0 -0.4385324342
O  O101  1  0.92713000  0.86371000  0.53440000  1.0 -0.4385324342
O  O102  1  0.07287000  0.13629000  0.53440000  1.0 -0.4385324342
O  O103  1  0.42713000  0.63629000  0.96560000  1.0 -0.4385324342
O  O104  1  0.86371000  0.07287000  0.46560000  1.0 -0.4385324342
O  O105  1  0.31608000  0.40061000  0.08173000  1.0 -0.5074632363
O  O106  1  0.59939000  0.31608000  0.91827000  1.0 -0.5074632363
O  O107  1  0.18392000  0.90061000  0.41827000  1.0 -0.5074632363
O  O108  1  0.68392000  0.59939000  0.08173000  1.0 -0.5074632363
O  O109  1  0.90061000  0.81608000  0.58173000  1.0 -0.5074632363
O  O110  1  0.09939000  0.18392000  0.58173000  1.0 -0.5074632363
O  O111  1  0.40061000  0.68392000  0.91827000  1.0 -0.5074632363
O  O112  1  0.81608000  0.09939000  0.41827000  1.0 -0.5074632363
O  O113  1  0.22783000  0.62085000  0.26260000  1.0 -0.4888234504
O  O114  1  0.37915000  0.22783000  0.73740000  1.0 -0.4823836109
O  O115  1  0.27217000  0.12085000  0.23740000  1.0 -0.4823836109
O  O116  1  0.77217000  0.37915000  0.26260000  1.0 -0.4888234504
O  O117  1  0.12085000  0.72783000  0.76260000  1.0 -0.4823836109
O  O118  1  0.87915000  0.27217000  0.76260000  1.0 -0.4823836109
O  O119  1  0.62085000  0.77217000  0.73740000  1.0 -0.4823836109
O  O120  1  0.72783000  0.87915000  0.23740000  1.0 -0.4823836109
O  O121  1  0.19768000  0.66929000  0.30334000  1.0 -0.4593523395
O  O122  1  0.33071000  0.19768000  0.69666000  1.0 -0.4593523395
O  O123  1  0.30232000  0.16929000  0.19666000  1.0 -0.4593523395
O  O124  1  0.80232000  0.33071000  0.30334000  1.0 -0.4593523395
O  O125  1  0.16929000  0.69768000  0.80334000  1.0 -0.4593523395
O  O126  1  0.83071000  0.30232000  0.80334000  1.0 -0.4593523395
O  O127  1  0.66929000  0.80232000  0.69666000  1.0 -0.4593523395
O  O128  1  0.69768000  0.83071000  0.19666000  1.0 -0.4593523395
O  O129  1  0.17357000  0.22060000  0.23500000  1.0 -0.4593523395
O  O130  1  0.77940000  0.17357000  0.76500000  1.0 -0.4504467725
O  O131  1  0.32643000  0.72060000  0.26500000  1.0 -0.4593523395
O  O132  1  0.82643000  0.77940000  0.23500000  1.0 -0.4593523395
O  O133  1  0.72060000  0.67357000  0.73500000  1.0 -0.4593523395
O  O134  1  0.27940000  0.32643000  0.73500000  1.0 -0.4593523395
O  O135  1  0.22060000  0.82643000  0.76500000  1.0 -0.4593523395
O  O136  1  0.67357000  0.27940000  0.26500000  1.0 -0.4593523395
O  O137  1  0.22485000  0.24879000  0.19410000  1.0 -0.468919112
O  O138  1  0.75121000  0.22485000  0.80590000  1.0 -0.468919112
O  O139  1  0.27515000  0.74879000  0.30590000  1.0 -0.468919112
O  O140  1  0.77515000  0.75121000  0.19410000  1.0 -0.468919112
O  O141  1  0.74879000  0.72485000  0.69410000  1.0 -0.468919112
O  O142  1  0.25121000  0.27515000  0.69410000  1.0 -0.468919112
O  O143  1  0.24879000  0.77515000  0.80590000  1.0 -0.468919112
O  O144  1  0.72485000  0.25121000  0.30590000  1.0 -0.468919112
O  O145  1  0.34440000  0.56770000  0.96930000  1.0 -0.4888234504
O  O146  1  0.43230000  0.34440000  0.03070000  1.0 -0.4823836109
O  O147  1  0.15560000  0.06770000  0.53070000  1.0 -0.4888234504
O  O148  1  0.65560000  0.43230000  0.96930000  1.0 -0.4823836109
O  O149  1  0.06770000  0.84440000  0.46930000  1.0 -0.4823836109
O  O150  1  0.93230000  0.15560000  0.46930000  1.0 -0.4823836109
O  O151  1  0.56770000  0.65560000  0.03070000  1.0 -0.4823836109
O  O152  1  0.84440000  0.93230000  0.53070000  1.0 -0.4823836109
O  O153  1  0.04720000  0.64910000  0.33840000  1.0 -0.4888234504
O  O154  1  0.35090000  0.04720000  0.66160000  1.0 -0.4823836109
O  O155  1  0.45280000  0.14910000  0.16160000  1.0 -0.4888234504
O  O156  1  0.95280000  0.35090000  0.33840000  1.0 -0.4888234504
O  O157  1  0.14910000  0.54720000  0.83840000  1.0 -0.4888234504
O  O158  1  0.85090000  0.45280000  0.83840000  1.0 -0.4888234504
O  O159  1  0.64910000  0.95280000  0.66160000  1.0 -0.4823836109
O  O160  1  0.54720000  0.85090000  0.16160000  1.0 -0.4888234504
O  O161  1  0.02010000  0.59610000  0.32520000  1.0 -0.4504467725
O  O162  1  0.40390000  0.02010000  0.67480000  1.0 -0.4504467725
O  O163  1  0.47990000  0.09610000  0.17480000  1.0 -0.4504467725
O  O164  1  0.97990000  0.40390000  0.32520000  1.0 -0.4504467725
O  O165  1  0.09610000  0.52010000  0.82520000  1.0 -0.4593523395
O  O166  1  0.90390000  0.47990000  0.82520000  1.0 -0.4593523395
O  O167  1  0.59610000  0.97990000  0.67480000  1.0 -0.4504467725
O  O168  1  0.52010000  0.90390000  0.17480000  1.0 -0.4504467725
O  O169  1  0.06620000  0.37320000  0.29580000  1.0 -0.5826081807
O  O170  1  0.62680000  0.06620000  0.70420000  1.0 -0.5826081807
O  O171  1  0.43380000  0.87320000  0.20420000  1.0 -0.5857227193
O  O172  1  0.93380000  0.62680000  0.29580000  1.0 -0.5826081807
O  O173  1  0.87320000  0.56620000  0.79580000  1.0 -0.5826081807
O  O174  1  0.12680000  0.43380000  0.79580000  1.0 -0.5826081807
O  O175  1  0.37320000  0.93380000  0.70420000  1.0 -0.5826081807
O  O176  1  0.56620000  0.12680000  0.20420000  1.0 -0.5826081807
O  O177  1  0.07430000  0.30980000  0.32100000  1.0 -0.5487597929
O  O178  1  0.69020000  0.07430000  0.67900000  1.0 -0.5487597929
O  O179  1  0.42570000  0.80980000  0.17900000  1.0 -0.5576999085
O  O180  1  0.92570000  0.69020000  0.32100000  1.0 -0.5487597929
O  O181  1  0.80980000  0.57430000  0.82100000  1.0 -0.5576999085
O  O182  1  0.19020000  0.42570000  0.82100000  1.0 -0.5576999085
O  O183  1  0.30980000  0.92570000  0.67900000  1.0 -0.5487597929
O  O184  1  0.57430000  0.19020000  0.17900000  1.0 -0.5576999085
O  O185  1  0.27890000  0.59040000  0.96420000  1.0 -0.4823836109
O  O186  1  0.40960000  0.27890000  0.03580000  1.0 -0.4888234504
O  O187  1  0.22110000  0.09040000  0.53580000  1.0 -0.4888234504
O  O188  1  0.72110000  0.40960000  0.96420000  1.0 -0.4823836109
O  O189  1  0.09040000  0.77890000  0.46420000  1.0 -0.4823836109
O  O190  1  0.90960000  0.22110000  0.46420000  1.0 -0.4823836109
O  O191  1  0.59040000  0.72110000  0.03580000  1.0 -0.4888234504
O  O192  1  0.77890000  0.90960000  0.53580000  1.0 -0.4888234504
