# DDEC6 charges by PACMAN v1.1 (https://github.com/mtap-research/PACMAN-charge/)
data_QANDUH_ASR_pacman
_symmetry_space_group_name_H-M   'P 1'
_cell_length_a   7.71100000
_cell_length_b   18.58600000
_cell_length_c   20.92800000
_cell_angle_alpha   90.00000000
_cell_angle_beta   90.00000000
_cell_angle_gamma   90.00000000
_symmetry_Int_Tables_number   1
_chemical_formula_structural   Ag4H3C8N4O9
_chemical_formula_sum   'Ag32 H24 C64 N32 O72'
_cell_volume   2999.33076749
_cell_formula_units_Z   8
loop_
 _symmetry_equiv_pos_site_id
 _symmetry_equiv_pos_as_xyz
  1  'x, y, z'
loop_
 _atom_site_type_symbol
 _atom_site_label
 _atom_site_symmetry_multiplicity
 _atom_site_fract_x
 _atom_site_fract_y
 _atom_site_fract_z
 _atom_site_occupancy
 _atom_site_charge
Ag  Ag1  1  0.14626000  0.81963000  0.75739000  1.0 0.4619521658
Ag  Ag2  1  0.85375000  0.18037000  0.25740000  1.0 0.4619521658
Ag  Ag3  1  0.64626000  0.68037000  0.75739000  1.0 0.4619521658
Ag  Ag4  1  0.35375000  0.31963000  0.25740000  1.0 0.4619521658
Ag  Ag5  1  0.90826000  0.89511000  0.83635000  1.0 0.4619521658
Ag  Ag6  1  0.09173000  0.10489000  0.33636000  1.0 0.4619521658
Ag  Ag7  1  0.40827000  0.60489000  0.83635000  1.0 0.4619521658
Ag  Ag8  1  0.59174000  0.39511000  0.33636000  1.0 0.4619521658
Ag  Ag9  1  0.28353000  0.91055000  0.85569000  1.0 0.4723282691
Ag  Ag10  1  0.71647000  0.08945000  0.35570000  1.0 0.4723282691
Ag  Ag11  1  0.78354000  0.58945000  0.85570000  1.0 0.4723282691
Ag  Ag12  1  0.21648000  0.41055000  0.35570000  1.0 0.4723282691
Ag  Ag13  1  0.76092000  0.57411000  0.66316000  1.0 0.4260373946
Ag  Ag14  1  0.23907000  0.42589000  0.16317000  1.0 0.4260373946
Ag  Ag15  1  0.26092000  0.92589000  0.66316000  1.0 0.4260373946
Ag  Ag16  1  0.73907000  0.07411000  0.16317000  1.0 0.4260373946
Ag  Ag17  1  0.07999000  0.58547000  0.47393000  1.0 0.4760042887
Ag  Ag18  1  0.92001000  0.41453000  0.97393000  1.0 0.4760042887
Ag  Ag19  1  0.58000000  0.91453000  0.47393000  1.0 0.4760042887
Ag  Ag20  1  0.42001000  0.08547000  0.97393000  1.0 0.4760042887
Ag  Ag21  1  0.98736000  0.67677000  0.57721000  1.0 0.4760042887
Ag  Ag22  1  0.01263000  0.32324000  0.07721000  1.0 0.4760042887
Ag  Ag23  1  0.48736000  0.82323000  0.57721000  1.0 0.4760042887
Ag  Ag24  1  0.51263000  0.17676000  0.07722000  1.0 0.4760042887
Ag  Ag25  1  0.72611000  0.61062000  0.50069000  1.0 0.4619521658
Ag  Ag26  1  0.27389000  0.38938000  0.00070000  1.0 0.4619521658
Ag  Ag27  1  0.22611000  0.88938000  0.50069000  1.0 0.4619521658
Ag  Ag28  1  0.77389000  0.11062000  0.00069000  1.0 0.4619521658
Ag  Ag29  1  0.13288000  0.30887000  0.79929000  1.0 0.4354169007
Ag  Ag30  1  0.86712000  0.69114000  0.29929000  1.0 0.4354169007
Ag  Ag31  1  0.63288000  0.19113000  0.79929000  1.0 0.4354169007
Ag  Ag32  1  0.36711000  0.80887000  0.29928000  1.0 0.4354169007
H  H1  1  0.14445000  0.12389000  0.81022000  1.0 0.1205061858
H  H2  1  0.85555000  0.87611000  0.31022000  1.0 0.1205061858
H  H3  1  0.64445000  0.37611000  0.81022000  1.0 0.1205061858
H  H4  1  0.35555000  0.62389000  0.31023000  1.0 0.1205061858
H  H5  1  0.96790000  0.03687000  0.62825000  1.0 0.1273792322
H  H6  1  0.03210000  0.96313000  0.12825000  1.0 0.1273792322
H  H7  1  0.46790000  0.46313000  0.62825000  1.0 0.1273792322
H  H8  1  0.53210000  0.53687000  0.12825000  1.0 0.1273792322
H  H9  1  0.05734000  0.45333000  0.70762000  1.0 0.1100479747
H  H10  1  0.94267000  0.54667000  0.20762000  1.0 0.1100479747
H  H11  1  0.55733000  0.04667000  0.70762000  1.0 0.1100479747
H  H12  1  0.44266000  0.95333000  0.20762000  1.0 0.1100479747
H  H13  1  0.87341000  0.37777000  0.52212000  1.0 0.1479247149
H  H14  1  0.12659000  0.62223000  0.02212000  1.0 0.1479247149
H  H15  1  0.37341000  0.12223000  0.52212000  1.0 0.1479247149
H  H16  1  0.62659000  0.87777000  0.02213000  1.0 0.1479247149
H  H17  1  0.84136000  0.24727000  0.50545000  1.0 0.1205061858
H  H18  1  0.15863000  0.75273000  0.00544000  1.0 0.1205061858
H  H19  1  0.34137000  0.25273000  0.50545000  1.0 0.1205061858
H  H20  1  0.65863000  0.74727000  0.00545000  1.0 0.1205061858
H  H21  1  0.88203000  0.12328000  0.54250000  1.0 0.1273792322
H  H22  1  0.11797000  0.87672000  0.04250000  1.0 0.1273792322
H  H23  1  0.38204000  0.37672000  0.54250000  1.0 0.1273792322
H  H24  1  0.61797000  0.62328000  0.04250000  1.0 0.1273792322
C  C1  1  0.09730000  0.13096000  0.76101000  1.0 0.093821426
C  C2  1  0.90270000  0.86904000  0.26101000  1.0 0.093821426
C  C3  1  0.59730000  0.36904000  0.76101000  1.0 0.093821426
C  C4  1  0.40269000  0.63096000  0.26101000  1.0 0.093821426
C  C5  1  0.01561000  0.21170000  0.67997000  1.0 0.1100479747
C  C6  1  0.98439000  0.78830000  0.17997000  1.0 0.1100479747
C  C7  1  0.51561000  0.28830000  0.67997000  1.0 0.1100479747
C  C8  1  0.48439000  0.71170000  0.17997000  1.0 0.1100479747
C  C9  1  0.00137000  0.08211000  0.65970000  1.0 -0.1301866834
C  C10  1  0.99864000  0.91789000  0.15970000  1.0 -0.1301866834
C  C11  1  0.50137000  0.41789000  0.65970000  1.0 -0.1301866834
C  C12  1  0.49863000  0.58211000  0.15971000  1.0 -0.1301866834
C  C13  1  0.95834000  0.42684000  0.61187000  1.0 0.0703273147
C  C14  1  0.04166000  0.57316000  0.11187000  1.0 0.0703273147
C  C15  1  0.45834000  0.07316000  0.61187000  1.0 0.0703273147
C  C16  1  0.54166000  0.92684000  0.11188000  1.0 0.0703273147
C  C17  1  0.02148000  0.40968000  0.67459000  1.0 0.0596747996
C  C18  1  0.97853000  0.59031000  0.17459000  1.0 0.0596747996
C  C19  1  0.52147000  0.09031000  0.67459000  1.0 0.0596747996
C  C20  1  0.47852000  0.90968000  0.17460000  1.0 0.0596747996
C  C21  1  0.99789000  0.28522000  0.65727000  1.0 0.1205061858
C  C22  1  0.00211000  0.71478000  0.15726000  1.0 0.1205061858
C  C23  1  0.49789000  0.21478000  0.65726000  1.0 0.1205061858
C  C24  1  0.50211000  0.78522000  0.15727000  1.0 0.1205061858
C  C25  1  0.91395000  0.55875000  0.56139000  1.0 -0.5160462622
C  C26  1  0.08605000  0.44125000  0.06139000  1.0 -0.5160462622
C  C27  1  0.41395000  0.94126000  0.56139000  1.0 -0.5160462622
C  C28  1  0.58604000  0.05875000  0.06139000  1.0 -0.5160462622
C  C29  1  0.93186000  0.49961000  0.59091000  1.0 0.0491151113
C  C30  1  0.06814000  0.50039000  0.09092000  1.0 0.0491151113
C  C31  1  0.43186000  0.00039000  0.59091000  1.0 0.0491151113
C  C32  1  0.56814000  0.99961000  0.09092000  1.0 0.0491151113
C  C33  1  0.06677000  0.06917000  0.72127000  1.0 0.0776505183
C  C34  1  0.93323000  0.93084000  0.22127000  1.0 0.0776505183
C  C35  1  0.56677000  0.43083000  0.72127000  1.0 0.0776505183
C  C36  1  0.43322000  0.56916000  0.22127000  1.0 0.0776505183
C  C37  1  0.93488000  0.29736000  0.59389000  1.0 0.0491151113
C  C38  1  0.06512000  0.70264000  0.09389000  1.0 0.0491151113
C  C39  1  0.43488000  0.20264000  0.59389000  1.0 0.0491151113
C  C40  1  0.56512000  0.79736000  0.09390000  1.0 0.0491151113
C  C41  1  0.91767000  0.36881000  0.57142000  1.0 -0.088459662
C  C42  1  0.08233000  0.63119000  0.07142000  1.0 -0.088459662
C  C43  1  0.41767000  0.13120000  0.57142000  1.0 -0.088459662
C  C44  1  0.58232000  0.86881000  0.07143000  1.0 -0.088459662
C  C45  1  0.89159000  0.23744000  0.55368000  1.0 -0.0965564389
C  C46  1  0.10841000  0.76256000  0.05368000  1.0 -0.0965564389
C  C47  1  0.39159000  0.26256000  0.55368000  1.0 -0.0965564389
C  C48  1  0.60841000  0.73744000  0.05368000  1.0 -0.0965564389
C  C49  1  0.97544000  0.15328000  0.63784000  1.0 0.0491151113
C  C50  1  0.02456000  0.84673000  0.13784000  1.0 0.0491151113
C  C51  1  0.47544000  0.34673000  0.63783000  1.0 0.0491151113
C  C52  1  0.52456000  0.65328000  0.13784000  1.0 0.0491151113
C  C53  1  0.91246000  0.16810000  0.57471000  1.0 -0.1068824892
C  C54  1  0.08754000  0.83191000  0.07470000  1.0 -0.1068824892
C  C55  1  0.41247000  0.33190000  0.57470000  1.0 -0.1068824892
C  C56  1  0.58754000  0.66810000  0.07471000  1.0 -0.1068824892
C  C57  1  0.10412000  0.99772000  0.74343000  1.0 0.0596747996
C  C58  1  0.89588000  0.00227000  0.24343000  1.0 0.0596747996
C  C59  1  0.60412000  0.50228000  0.74343000  1.0 0.0596747996
C  C60  1  0.39588000  0.49773000  0.24343000  1.0 0.0596747996
C  C61  1  0.12401000  0.93779000  0.77166000  1.0 -0.5268295918
C  C62  1  0.87598000  0.06221000  0.27167000  1.0 -0.5268295918
C  C63  1  0.62402000  0.56221000  0.77166000  1.0 -0.5268295918
C  C64  1  0.37599000  0.43778000  0.27167000  1.0 -0.5268295918
N  N1  1  0.04206000  0.34218000  0.69631000  1.0 -0.2542318617
N  N2  1  0.95795000  0.65782000  0.19631000  1.0 -0.2542318617
N  N3  1  0.54206000  0.15782000  0.69631000  1.0 -0.2542318617
N  N4  1  0.45795000  0.84218000  0.19631000  1.0 -0.2542318617
N  N5  1  0.87792000  0.74346000  0.89593000  1.0 0.7007461305
N  N6  1  0.12207000  0.25654000  0.39593000  1.0 0.7007461305
N  N7  1  0.37793000  0.75654000  0.89593000  1.0 0.7007461305
N  N8  1  0.62208000  0.24345000  0.39593000  1.0 0.7007461305
N  N9  1  0.07121000  0.19877000  0.74137000  1.0 -0.2727895145
N  N10  1  0.92880000  0.80123000  0.24137000  1.0 -0.2727895145
N  N11  1  0.57121000  0.30123000  0.74137000  1.0 -0.2727895145
N  N12  1  0.42879000  0.69877000  0.24137000  1.0 -0.2727895145
N  N13  1  0.90803000  0.84236000  0.61129000  1.0 0.7007461305
N  N14  1  0.09196000  0.15764000  0.11129000  1.0 0.7007461305
N  N15  1  0.40803000  0.65764000  0.61129000  1.0 0.7007461305
N  N16  1  0.59196000  0.34236000  0.11129000  1.0 0.7007461305
N  N17  1  0.42400000  0.50944000  0.46560000  1.0 0.6940247651
N  N18  1  0.57600000  0.49056000  0.96560000  1.0 0.6940247651
N  N19  1  0.92400000  0.99056000  0.46560000  1.0 0.6940247651
N  N20  1  0.07600000  0.00944000  0.96560000  1.0 0.6940247651
N  N21  1  0.61810000  0.00982000  0.85175000  1.0 0.7007461305
N  N22  1  0.38190000  0.99018000  0.35175000  1.0 0.7007461305
N  N23  1  0.11810000  0.49018000  0.85175000  1.0 0.7007461305
N  N24  1  0.88190000  0.50982000  0.35175000  1.0 0.7007461305
N  N25  1  0.08861000  0.65653000  0.72682000  1.0 0.7007461305
N  N26  1  0.91139000  0.34347000  0.22681000  1.0 0.7007461305
N  N27  1  0.58861000  0.84347000  0.72682000  1.0 0.7007461305
N  N28  1  0.41139000  0.15653000  0.22681000  1.0 0.7007461305
N  N29  1  0.65736000  0.74206000  0.42432000  1.0 0.7007461305
N  N30  1  0.34264000  0.25795000  0.92432000  1.0 0.7007461305
N  N31  1  0.15737000  0.75795000  0.42431000  1.0 0.7007461305
N  N32  1  0.84264000  0.24205000  0.92432000  1.0 0.7007461305
O  O1  1  0.20914000  0.69643000  0.75199000  1.0 -0.3849626545
O  O2  1  0.79085000  0.30357000  0.25198000  1.0 -0.3913736419
O  O3  1  0.70914000  0.80357000  0.75199000  1.0 -0.3849626545
O  O4  1  0.29085000  0.19643000  0.25198000  1.0 -0.3913736419
O  O5  1  0.96087000  0.68872000  0.69739000  1.0 -0.4285032873
O  O6  1  0.03913000  0.31127000  0.19739000  1.0 -0.4285032873
O  O7  1  0.46087000  0.81128000  0.69739000  1.0 -0.4285032873
O  O8  1  0.53913000  0.18872000  0.19739000  1.0 -0.4285032873
O  O9  1  0.06963000  0.82601000  0.62234000  1.0 -0.4410783377
O  O10  1  0.93036000  0.17399000  0.12234000  1.0 -0.4410783377
O  O11  1  0.56963000  0.67399000  0.62234000  1.0 -0.4410783377
O  O12  1  0.43036000  0.32601000  0.12234000  1.0 -0.4410783377
O  O13  1  0.81006000  0.79148000  0.58847000  1.0 -0.3913736419
O  O14  1  0.18994000  0.20853000  0.08848000  1.0 -0.3913736419
O  O15  1  0.31006000  0.70852000  0.58846000  1.0 -0.3913736419
O  O16  1  0.68994000  0.29147000  0.08848000  1.0 -0.3913736419
O  O17  1  0.73299000  0.68818000  0.39531000  1.0 -0.4243404717
O  O18  1  0.26699000  0.31182000  0.89532000  1.0 -0.4243404717
O  O19  1  0.23301000  0.81181000  0.39530000  1.0 -0.4243404717
O  O20  1  0.76699000  0.18818000  0.89532000  1.0 -0.4243404717
O  O21  1  0.42733000  0.57788000  0.47904000  1.0 -0.4003181372
O  O22  1  0.57267000  0.42212000  0.97903000  1.0 -0.4003181372
O  O23  1  0.92733000  0.92212000  0.47904000  1.0 -0.4003181372
O  O24  1  0.07267000  0.07788000  0.97903000  1.0 -0.4003181372
O  O25  1  0.09434000  0.58941000  0.73145000  1.0 -0.3913736419
O  O26  1  0.90568000  0.41059000  0.23144000  1.0 -0.3913736419
O  O27  1  0.59433000  0.91059000  0.73145000  1.0 -0.3913736419
O  O28  1  0.40568000  0.08941000  0.23144000  1.0 -0.3913736419
O  O29  1  0.95234000  0.73529000  0.84191000  1.0 -0.4410783377
O  O30  1  0.04765000  0.26471000  0.34191000  1.0 -0.4410783377
O  O31  1  0.45234000  0.76470000  0.84191000  1.0 -0.4410783377
O  O32  1  0.54765000  0.23528000  0.34191000  1.0 -0.4410783377
O  O33  1  0.84902000  0.90417000  0.62159000  1.0 -0.3913736419
O  O34  1  0.15098000  0.09583000  0.12158000  1.0 -0.3913736419
O  O35  1  0.34902000  0.59583000  0.62159000  1.0 -0.3913736419
O  O36  1  0.65097000  0.40417000  0.12158000  1.0 -0.3913736419
O  O37  1  0.27315000  0.48047000  0.45547000  1.0 -0.4084495519
O  O38  1  0.72684000  0.51953000  0.95547000  1.0 -0.4084495519
O  O39  1  0.77316000  0.01953000  0.45547000  1.0 -0.4084495519
O  O40  1  0.22684000  0.98047000  0.95547000  1.0 -0.4084495519
O  O41  1  0.48186000  0.04949000  0.86001000  1.0 -0.4474358921
O  O42  1  0.51813000  0.95051000  0.36001000  1.0 -0.4474358921
O  O43  1  0.98186000  0.45051000  0.86001000  1.0 -0.4474358921
O  O44  1  0.01814000  0.54949000  0.36002000  1.0 -0.4474358921
O  O45  1  0.60895000  0.94139000  0.86490000  1.0 -0.4003181372
O  O46  1  0.39105000  0.05861000  0.36489000  1.0 -0.4003181372
O  O47  1  0.10895000  0.55861000  0.86490000  1.0 -0.4003181372
O  O48  1  0.89105000  0.44138000  0.36489000  1.0 -0.4003181372
O  O49  1  0.82837000  0.68768000  0.92802000  1.0 -0.4084495519
O  O50  1  0.17162000  0.31232000  0.42803000  1.0 -0.4084495519
O  O51  1  0.32838000  0.81232000  0.92802000  1.0 -0.4084495519
O  O52  1  0.67163000  0.18768000  0.42803000  1.0 -0.4084495519
O  O53  1  0.84979000  0.80640000  0.91908000  1.0 -0.3913736419
O  O54  1  0.15021000  0.19360000  0.41907000  1.0 -0.3913736419
O  O55  1  0.34980000  0.69360000  0.91908000  1.0 -0.3913736419
O  O56  1  0.65021000  0.30640000  0.41907000  1.0 -0.3913736419
O  O57  1  0.75794000  0.03671000  0.83116000  1.0 -0.4084495519
O  O58  1  0.24206000  0.96329000  0.33116000  1.0 -0.4084495519
O  O59  1  0.25794000  0.46329000  0.83116000  1.0 -0.4084495519
O  O60  1  0.74206000  0.53671000  0.33116000  1.0 -0.4084495519
O  O61  1  0.56140000  0.47337000  0.46262000  1.0 -0.3913736419
O  O62  1  0.43860000  0.52663000  0.96264000  1.0 -0.3913736419
O  O63  1  0.06140000  0.02663000  0.46262000  1.0 -0.3913736419
O  O64  1  0.93860000  0.97337000  0.96264000  1.0 -0.3913736419
O  O65  1  0.64823000  0.80386000  0.39881000  1.0 -0.4243404717
O  O66  1  0.35178000  0.19614000  0.89880000  1.0 -0.4285032873
O  O67  1  0.14823000  0.69614000  0.39881000  1.0 -0.4243404717
O  O68  1  0.85178000  0.30385000  0.89880000  1.0 -0.4243404717
O  O69  1  0.59258000  0.72883000  0.47942000  1.0 -0.3913736419
O  O70  1  0.40742000  0.27117000  0.97942000  1.0 -0.3913736419
O  O71  1  0.09260000  0.77119000  0.47941000  1.0 -0.3913736419
O  O72  1  0.90742000  0.22883000  0.97942000  1.0 -0.3913736419
