# DDEC6 charges by PACMAN v1.1 (https://github.com/mtap-research/PACMAN-charge/)
data_QANSUV_FSR_pacman
_symmetry_space_group_name_H-M   'P 1'
_cell_length_a   19.44280000
_cell_length_b   19.44280000
_cell_length_c   19.44280000
_cell_angle_alpha   76.09110000
_cell_angle_beta   76.09110000
_cell_angle_gamma   76.09110000
_symmetry_Int_Tables_number   1
_chemical_formula_structural   Cu5H16C28N12ClO10
_chemical_formula_sum   'Cu30 H96 C168 N72 Cl6 O60'
_cell_volume   6793.84260689
_cell_formula_units_Z   6
loop_
 _symmetry_equiv_pos_site_id
 _symmetry_equiv_pos_as_xyz
  1  'x, y, z'
loop_
 _atom_site_type_symbol
 _atom_site_label
 _atom_site_symmetry_multiplicity
 _atom_site_fract_x
 _atom_site_fract_y
 _atom_site_fract_z
 _atom_site_occupancy
 _atom_site_charge
Cu  Cu1  1  0.53697000  0.97959000  0.33148000  1.0 0.6810315762
Cu  Cu2  1  0.97959000  0.33148000  0.53697000  1.0 0.6810315762
Cu  Cu3  1  0.33148000  0.53697000  0.97959000  1.0 0.6810315762
Cu  Cu4  1  0.96303000  0.16852000  0.52041000  1.0 0.6810315762
Cu  Cu5  1  0.52041000  0.96303000  0.16852000  1.0 0.6810315762
Cu  Cu6  1  0.16852000  0.52041000  0.96303000  1.0 0.6810315762
Cu  Cu7  1  0.46303000  0.02041000  0.66852000  1.0 0.6810315762
Cu  Cu8  1  0.02041000  0.66852000  0.46303000  1.0 0.6810315762
Cu  Cu9  1  0.66852000  0.46303000  0.02041000  1.0 0.6810315762
Cu  Cu10  1  0.03697000  0.83148000  0.47959000  1.0 0.6810315762
Cu  Cu11  1  0.47959000  0.03697000  0.83148000  1.0 0.6810315762
Cu  Cu12  1  0.83148000  0.47959000  0.03697000  1.0 0.6810315762
Cu  Cu13  1  0.66781000  0.99867000  0.03057000  1.0 0.7815820688
Cu  Cu14  1  0.99867000  0.03057000  0.66781000  1.0 0.7815820688
Cu  Cu15  1  0.03057000  0.66781000  0.99867000  1.0 0.7815820688
Cu  Cu16  1  0.83219000  0.46943000  0.50133000  1.0 0.7815820688
Cu  Cu17  1  0.50133000  0.83219000  0.46943000  1.0 0.7815820688
Cu  Cu18  1  0.46943000  0.50133000  0.83219000  1.0 0.7815820688
Cu  Cu19  1  0.33219000  0.00133000  0.96943000  1.0 0.7815820688
Cu  Cu20  1  0.00133000  0.96943000  0.33219000  1.0 0.7815820688
Cu  Cu21  1  0.96943000  0.33219000  0.00133000  1.0 0.7815820688
Cu  Cu22  1  0.16781000  0.53057000  0.49867000  1.0 0.7815820688
Cu  Cu23  1  0.49867000  0.16781000  0.53057000  1.0 0.7815820688
Cu  Cu24  1  0.53057000  0.49867000  0.16781000  1.0 0.7815820688
Cu  Cu25  1  0.50000000  0.00000000  0.50000000  1.0 0.7068064326
Cu  Cu26  1  0.00000000  0.50000000  0.50000000  1.0 0.7068064326
Cu  Cu27  1  0.50000000  0.50000000  0.00000000  1.0 0.7068064326
Cu  Cu28  1  0.00000000  0.00000000  0.50000000  1.0 0.7068064326
Cu  Cu29  1  0.50000000  0.00000000  0.00000000  1.0 0.7030444259
Cu  Cu30  1  0.00000000  0.50000000  0.00000000  1.0 0.7068064326
H  H1  1  0.80250000  0.94060000  0.39840000  1.0 0.3444957847
H  H2  1  0.94060000  0.39840000  0.80250000  1.0 0.3444957847
H  H3  1  0.39840000  0.80250000  0.94060000  1.0 0.3444957847
H  H4  1  0.69750000  0.10160000  0.55940000  1.0 0.3444957847
H  H5  1  0.55940000  0.69750000  0.10160000  1.0 0.3444957847
H  H6  1  0.10160000  0.55940000  0.69750000  1.0 0.3444957847
H  H7  1  0.19750000  0.05940000  0.60160000  1.0 0.3444957847
H  H8  1  0.05940000  0.60160000  0.19750000  1.0 0.3451354021
H  H9  1  0.60160000  0.19750000  0.05940000  1.0 0.3444957847
H  H10  1  0.30250000  0.89840000  0.44060000  1.0 0.3451354021
H  H11  1  0.44060000  0.30250000  0.89840000  1.0 0.3444957847
H  H12  1  0.89840000  0.44060000  0.30250000  1.0 0.3444957847
H  H13  1  0.43890000  0.96780000  0.42670000  1.0 0.3651056403
H  H14  1  0.96780000  0.42670000  0.43890000  1.0 0.3645132894
H  H15  1  0.42670000  0.43890000  0.96780000  1.0 0.3645132894
H  H16  1  0.06110000  0.07330000  0.53220000  1.0 0.3645132894
H  H17  1  0.53220000  0.06110000  0.07330000  1.0 0.3645132894
H  H18  1  0.07330000  0.53220000  0.06110000  1.0 0.3651056403
H  H19  1  0.56110000  0.03220000  0.57330000  1.0 0.3645132894
H  H20  1  0.03220000  0.57330000  0.56110000  1.0 0.3651056403
H  H21  1  0.57330000  0.56110000  0.03220000  1.0 0.3651056403
H  H22  1  0.93890000  0.92670000  0.46780000  1.0 0.3645132894
H  H23  1  0.46780000  0.93890000  0.92670000  1.0 0.3645132894
H  H24  1  0.92670000  0.46780000  0.93890000  1.0 0.3645132894
H  H25  1  0.52160000  0.29070000  0.37330000  1.0 0.1498269223
H  H26  1  0.29070000  0.37330000  0.52160000  1.0 0.1498269223
H  H27  1  0.37330000  0.52160000  0.29070000  1.0 0.1498269223
H  H28  1  0.97840000  0.12670000  0.20930000  1.0 0.1498269223
H  H29  1  0.20930000  0.97840000  0.12670000  1.0 0.1498269223
H  H30  1  0.12670000  0.20930000  0.97840000  1.0 0.1498269223
H  H31  1  0.47840000  0.70930000  0.62670000  1.0 0.1498269223
H  H32  1  0.70930000  0.62670000  0.47840000  1.0 0.1498269223
H  H33  1  0.62670000  0.47840000  0.70930000  1.0 0.1498269223
H  H34  1  0.02160000  0.87330000  0.79070000  1.0 0.1498269223
H  H35  1  0.79070000  0.02160000  0.87330000  1.0 0.1498269223
H  H36  1  0.87330000  0.79070000  0.02160000  1.0 0.1498269223
H  H37  1  0.57290000  0.25830000  0.16840000  1.0 0.1079123283
H  H38  1  0.25830000  0.16840000  0.57290000  1.0 0.1079123283
H  H39  1  0.16840000  0.57290000  0.25830000  1.0 0.1079123283
H  H40  1  0.92710000  0.33160000  0.24170000  1.0 0.1079123283
H  H41  1  0.24170000  0.92710000  0.33160000  1.0 0.1079123283
H  H42  1  0.33160000  0.24170000  0.92710000  1.0 0.1079123283
H  H43  1  0.42710000  0.74170000  0.83160000  1.0 0.1079123283
H  H44  1  0.74170000  0.83160000  0.42710000  1.0 0.1079123283
H  H45  1  0.83160000  0.42710000  0.74170000  1.0 0.1079123283
H  H46  1  0.07290000  0.66840000  0.75830000  1.0 0.1079123283
H  H47  1  0.75830000  0.07290000  0.66840000  1.0 0.1079123283
H  H48  1  0.66840000  0.75830000  0.07290000  1.0 0.1079123283
H  H49  1  0.57930000  0.13530000  0.20610000  1.0 0.1222921909
H  H50  1  0.13530000  0.20610000  0.57930000  1.0 0.1222921909
H  H51  1  0.20610000  0.57930000  0.13530000  1.0 0.1222921909
H  H52  1  0.92070000  0.29390000  0.36470000  1.0 0.1222921909
H  H53  1  0.36470000  0.92070000  0.29390000  1.0 0.1222921909
H  H54  1  0.29390000  0.36470000  0.92070000  1.0 0.1222921909
H  H55  1  0.42070000  0.86470000  0.79390000  1.0 0.1222921909
H  H56  1  0.86470000  0.79390000  0.42070000  1.0 0.1222921909
H  H57  1  0.79390000  0.42070000  0.86470000  1.0 0.1222921909
H  H58  1  0.07930000  0.70610000  0.63530000  1.0 0.1222921909
H  H59  1  0.63530000  0.07930000  0.70610000  1.0 0.1222921909
H  H60  1  0.70610000  0.63530000  0.07930000  1.0 0.1222921909
H  H61  1  0.71840000  0.97290000  0.34220000  1.0 0.1419279987
H  H62  1  0.97290000  0.34220000  0.71840000  1.0 0.1419279987
H  H63  1  0.34220000  0.71840000  0.97290000  1.0 0.1419279987
H  H64  1  0.78160000  0.15780000  0.52710000  1.0 0.1419279987
H  H65  1  0.52710000  0.78160000  0.15780000  1.0 0.1419279987
H  H66  1  0.15780000  0.52710000  0.78160000  1.0 0.1419279987
H  H67  1  0.28160000  0.02710000  0.65780000  1.0 0.1419279987
H  H68  1  0.02710000  0.65780000  0.28160000  1.0 0.1419279987
H  H69  1  0.65780000  0.28160000  0.02710000  1.0 0.1419279987
H  H70  1  0.21840000  0.84220000  0.47290000  1.0 0.1419279987
H  H71  1  0.47290000  0.21840000  0.84220000  1.0 0.1419279987
H  H72  1  0.84220000  0.47290000  0.21840000  1.0 0.1419279987
H  H73  1  0.88560000  0.99400000  0.17460000  1.0 0.1299324904
H  H74  1  0.99400000  0.17460000  0.88560000  1.0 0.1299324904
H  H75  1  0.17460000  0.88560000  0.99400000  1.0 0.1299324904
H  H76  1  0.61440000  0.32540000  0.50600000  1.0 0.1299324904
H  H77  1  0.50600000  0.61440000  0.32540000  1.0 0.1299324904
H  H78  1  0.32540000  0.50600000  0.61440000  1.0 0.1299324904
H  H79  1  0.11440000  0.00600000  0.82540000  1.0 0.1299324904
H  H80  1  0.00600000  0.82540000  0.11440000  1.0 0.1299324904
H  H81  1  0.82540000  0.11440000  0.00600000  1.0 0.1299324904
H  H82  1  0.38560000  0.67460000  0.49400000  1.0 0.1299324904
H  H83  1  0.49400000  0.38560000  0.67460000  1.0 0.1299324904
H  H84  1  0.67460000  0.49400000  0.38560000  1.0 0.1299324904
H  H85  1  0.81710000  0.99730000  0.09250000  1.0 0.1498269223
H  H86  1  0.99730000  0.09250000  0.81710000  1.0 0.1498269223
H  H87  1  0.09250000  0.81710000  0.99730000  1.0 0.1498269223
H  H88  1  0.68290000  0.40750000  0.50270000  1.0 0.1498269223
H  H89  1  0.50270000  0.68290000  0.40750000  1.0 0.1498269223
H  H90  1  0.40750000  0.50270000  0.68290000  1.0 0.1498269223
H  H91  1  0.18290000  0.00270000  0.90750000  1.0 0.1498269223
H  H92  1  0.00270000  0.90750000  0.18290000  1.0 0.1498269223
H  H93  1  0.90750000  0.18290000  0.00270000  1.0 0.1498269223
H  H94  1  0.31710000  0.59250000  0.49730000  1.0 0.1498269223
H  H95  1  0.49730000  0.31710000  0.59250000  1.0 0.1498269223
H  H96  1  0.59250000  0.49730000  0.31710000  1.0 0.1498269223
C  C1  1  0.53133000  0.26033000  0.34033000  1.0 -0.152889706
C  C2  1  0.26033000  0.34033000  0.53133000  1.0 -0.152889706
C  C3  1  0.34033000  0.53133000  0.26033000  1.0 -0.152889706
C  C4  1  0.96867000  0.15967000  0.23967000  1.0 -0.152889706
C  C5  1  0.23967000  0.96867000  0.15967000  1.0 -0.152889706
C  C6  1  0.15967000  0.23967000  0.96867000  1.0 -0.152889706
C  C7  1  0.46867000  0.73967000  0.65967000  1.0 -0.152889706
C  C8  1  0.73967000  0.65967000  0.46867000  1.0 -0.152889706
C  C9  1  0.65967000  0.46867000  0.73967000  1.0 -0.152889706
C  C10  1  0.03133000  0.84033000  0.76033000  1.0 -0.152889706
C  C11  1  0.76033000  0.03133000  0.84033000  1.0 -0.152889706
C  C12  1  0.84033000  0.76033000  0.03133000  1.0 -0.152889706
C  C13  1  0.54280000  0.28640000  0.26790000  1.0 -0.0034541075
C  C14  1  0.28640000  0.26790000  0.54280000  1.0 -0.0034541075
C  C15  1  0.26790000  0.54280000  0.28640000  1.0 -0.0034541075
C  C16  1  0.95720000  0.23210000  0.21360000  1.0 -0.0034541075
C  C17  1  0.21360000  0.95720000  0.23210000  1.0 -0.0034541075
C  C18  1  0.23210000  0.21360000  0.95720000  1.0 -0.0034541075
C  C19  1  0.45720000  0.71360000  0.73210000  1.0 -0.0034541075
C  C20  1  0.71360000  0.73210000  0.45720000  1.0 -0.0034541075
C  C21  1  0.73210000  0.45720000  0.71360000  1.0 -0.0034541075
C  C22  1  0.04280000  0.76790000  0.78640000  1.0 -0.0034541075
C  C23  1  0.78640000  0.04280000  0.76790000  1.0 -0.0034541075
C  C24  1  0.76790000  0.78640000  0.04280000  1.0 -0.0034541075
C  C25  1  0.56260000  0.23900000  0.21750000  1.0 -0.1405646284
C  C26  1  0.23900000  0.21750000  0.56260000  1.0 -0.1405646284
C  C27  1  0.21750000  0.56260000  0.23900000  1.0 -0.1405646284
C  C28  1  0.93740000  0.28250000  0.26100000  1.0 -0.1405646284
C  C29  1  0.26100000  0.93740000  0.28250000  1.0 -0.1405646284
C  C30  1  0.28250000  0.26100000  0.93740000  1.0 -0.1405646284
C  C31  1  0.43740000  0.76100000  0.78250000  1.0 -0.1405646284
C  C32  1  0.76100000  0.78250000  0.43740000  1.0 -0.1405646284
C  C33  1  0.78250000  0.43740000  0.76100000  1.0 -0.1405646284
C  C34  1  0.06260000  0.71750000  0.73900000  1.0 -0.1405646284
C  C35  1  0.73900000  0.06260000  0.71750000  1.0 -0.1405646284
C  C36  1  0.71750000  0.73900000  0.06260000  1.0 -0.1405646284
C  C37  1  0.56690000  0.16580000  0.23930000  1.0 -0.1795317616
C  C38  1  0.16580000  0.23930000  0.56690000  1.0 -0.1795317616
C  C39  1  0.23930000  0.56690000  0.16580000  1.0 -0.1795317616
C  C40  1  0.93310000  0.26070000  0.33420000  1.0 -0.1795317616
C  C41  1  0.33420000  0.93310000  0.26070000  1.0 -0.1795317616
C  C42  1  0.26070000  0.33420000  0.93310000  1.0 -0.1795317616
C  C43  1  0.43310000  0.83420000  0.76070000  1.0 -0.1795317616
C  C44  1  0.83420000  0.76070000  0.43310000  1.0 -0.1795317616
C  C45  1  0.76070000  0.43310000  0.83420000  1.0 -0.1795317616
C  C46  1  0.06690000  0.73930000  0.66580000  1.0 -0.1795317616
C  C47  1  0.66580000  0.06690000  0.73930000  1.0 -0.1795317616
C  C48  1  0.73930000  0.66580000  0.06690000  1.0 -0.1795317616
C  C49  1  0.55145000  0.13945000  0.31365000  1.0 0.1299324904
C  C50  1  0.13945000  0.31365000  0.55145000  1.0 0.1299324904
C  C51  1  0.31365000  0.55145000  0.13945000  1.0 0.1299324904
C  C52  1  0.94855000  0.18635000  0.36055000  1.0 0.1299324904
C  C53  1  0.36055000  0.94855000  0.18635000  1.0 0.1299324904
C  C54  1  0.18635000  0.36055000  0.94855000  1.0 0.1299324904
C  C55  1  0.44855000  0.86055000  0.68635000  1.0 0.1299324904
C  C56  1  0.86055000  0.68635000  0.44855000  1.0 0.1299324904
C  C57  1  0.68635000  0.44855000  0.86055000  1.0 0.1299324904
C  C58  1  0.05145000  0.81365000  0.63945000  1.0 0.1299324904
C  C59  1  0.63945000  0.05145000  0.81365000  1.0 0.1299324904
C  C60  1  0.81365000  0.63945000  0.05145000  1.0 0.1299324904
C  C61  1  0.53489000  0.18579000  0.36319000  1.0 0.1299324904
C  C62  1  0.18579000  0.36319000  0.53489000  1.0 0.1299324904
C  C63  1  0.36319000  0.53489000  0.18579000  1.0 0.1299324904
C  C64  1  0.96511000  0.13681000  0.31421000  1.0 0.1299324904
C  C65  1  0.31421000  0.96511000  0.13681000  1.0 0.1299324904
C  C66  1  0.13681000  0.31421000  0.96511000  1.0 0.1299324904
C  C67  1  0.46511000  0.81421000  0.63681000  1.0 0.1299324904
C  C68  1  0.81421000  0.63681000  0.46511000  1.0 0.1299324904
C  C69  1  0.63681000  0.46511000  0.81421000  1.0 0.1299324904
C  C70  1  0.03489000  0.86319000  0.68579000  1.0 0.1299324904
C  C71  1  0.68579000  0.03489000  0.86319000  1.0 0.1299324904
C  C72  1  0.86319000  0.68579000  0.03489000  1.0 0.1299324904
C  C73  1  0.53290000  0.36710000  0.24150000  1.0 0.5474073404
C  C74  1  0.36710000  0.24150000  0.53290000  1.0 0.5474073404
C  C75  1  0.24150000  0.53290000  0.36710000  1.0 0.5474073404
C  C76  1  0.96710000  0.25850000  0.13290000  1.0 0.5474073404
C  C77  1  0.13290000  0.96710000  0.25850000  1.0 0.5474073404
C  C78  1  0.25850000  0.13290000  0.96710000  1.0 0.5474073404
C  C79  1  0.46710000  0.63290000  0.75850000  1.0 0.5474073404
C  C80  1  0.63290000  0.75850000  0.46710000  1.0 0.5474073404
C  C81  1  0.75850000  0.46710000  0.63290000  1.0 0.5474073404
C  C82  1  0.03290000  0.74150000  0.86710000  1.0 0.5474073404
C  C83  1  0.86710000  0.03290000  0.74150000  1.0 0.5474073404
C  C84  1  0.74150000  0.86710000  0.03290000  1.0 0.5474073404
C  C85  1  0.73727000  0.97837000  0.29287000  1.0 -0.2082389579
C  C86  1  0.97837000  0.29287000  0.73727000  1.0 -0.2082389579
C  C87  1  0.29287000  0.73727000  0.97837000  1.0 -0.2082389579
C  C88  1  0.76273000  0.20713000  0.52163000  1.0 -0.2082389579
C  C89  1  0.52163000  0.76273000  0.20713000  1.0 -0.2082389579
C  C90  1  0.20713000  0.52163000  0.76273000  1.0 -0.2082389579
C  C91  1  0.26273000  0.02163000  0.70713000  1.0 -0.2082389579
C  C92  1  0.02163000  0.70713000  0.26273000  1.0 -0.2082389579
C  C93  1  0.70713000  0.26273000  0.02163000  1.0 -0.2082389579
C  C94  1  0.23727000  0.79287000  0.47837000  1.0 -0.2082389579
C  C95  1  0.47837000  0.23727000  0.79287000  1.0 -0.2082389579
C  C96  1  0.79287000  0.47837000  0.23727000  1.0 -0.2082389579
C  C97  1  0.80848000  0.98268000  0.26568000  1.0 -0.0421616973
C  C98  1  0.98268000  0.26568000  0.80848000  1.0 -0.0421616973
C  C99  1  0.26568000  0.80848000  0.98268000  1.0 -0.0421616973
C  C100  1  0.69152000  0.23432000  0.51732000  1.0 -0.0421616973
C  C101  1  0.51732000  0.69152000  0.23432000  1.0 -0.0421616973
C  C102  1  0.23432000  0.51732000  0.69152000  1.0 -0.0421616973
C  C103  1  0.19152000  0.01732000  0.73432000  1.0 -0.0421616973
C  C104  1  0.01732000  0.73432000  0.19152000  1.0 -0.0421616973
C  C105  1  0.73432000  0.19152000  0.01732000  1.0 -0.0421616973
C  C106  1  0.30848000  0.76568000  0.48268000  1.0 -0.0421616973
C  C107  1  0.48268000  0.30848000  0.76568000  1.0 -0.0421616973
C  C108  1  0.76568000  0.48268000  0.30848000  1.0 -0.0421616973
C  C109  1  0.83730000  0.99040000  0.19080000  1.0 -0.1134381857
C  C110  1  0.99040000  0.19080000  0.83730000  1.0 -0.1134381857
C  C111  1  0.19080000  0.83730000  0.99040000  1.0 -0.1134381857
C  C112  1  0.66270000  0.30920000  0.50960000  1.0 -0.1134381857
C  C113  1  0.50960000  0.66270000  0.30920000  1.0 -0.1134381857
C  C114  1  0.30920000  0.50960000  0.66270000  1.0 -0.1134381857
C  C115  1  0.16270000  0.00960000  0.80920000  1.0 -0.1134381857
C  C116  1  0.00960000  0.80920000  0.16270000  1.0 -0.1134381857
C  C117  1  0.80920000  0.16270000  0.00960000  1.0 -0.1134381857
C  C118  1  0.33730000  0.69080000  0.49040000  1.0 -0.1134381857
C  C119  1  0.49040000  0.33730000  0.69080000  1.0 -0.1134381857
C  C120  1  0.69080000  0.49040000  0.33730000  1.0 -0.1134381857
C  C121  1  0.79730000  0.99260000  0.14160000  1.0 -0.1405646284
C  C122  1  0.99260000  0.14160000  0.79730000  1.0 -0.1405646284
C  C123  1  0.14160000  0.79730000  0.99260000  1.0 -0.1405646284
C  C124  1  0.70270000  0.35840000  0.50740000  1.0 -0.1405646284
C  C125  1  0.50740000  0.70270000  0.35840000  1.0 -0.1405646284
C  C126  1  0.35840000  0.50740000  0.70270000  1.0 -0.1405646284
C  C127  1  0.20270000  0.00740000  0.85840000  1.0 -0.1405646284
C  C128  1  0.00740000  0.85840000  0.20270000  1.0 -0.1405646284
C  C129  1  0.85840000  0.20270000  0.00740000  1.0 -0.1405646284
C  C130  1  0.29730000  0.64160000  0.49260000  1.0 -0.1405646284
C  C131  1  0.49260000  0.29730000  0.64160000  1.0 -0.1405646284
C  C132  1  0.64160000  0.49260000  0.29730000  1.0 -0.1405646284
C  C133  1  0.72408000  0.98748000  0.16888000  1.0 0.1299324904
C  C134  1  0.98748000  0.16888000  0.72408000  1.0 0.1299324904
C  C135  1  0.16888000  0.72408000  0.98748000  1.0 0.1299324904
C  C136  1  0.77592000  0.33112000  0.51252000  1.0 0.1299324904
C  C137  1  0.51252000  0.77592000  0.33112000  1.0 0.1299324904
C  C138  1  0.33112000  0.51252000  0.77592000  1.0 0.1299324904
C  C139  1  0.27592000  0.01252000  0.83112000  1.0 0.1299324904
C  C140  1  0.01252000  0.83112000  0.27592000  1.0 0.1299324904
C  C141  1  0.83112000  0.27592000  0.01252000  1.0 0.1299324904
C  C142  1  0.22408000  0.66888000  0.48748000  1.0 0.1299324904
C  C143  1  0.48748000  0.22408000  0.66888000  1.0 0.1299324904
C  C144  1  0.66888000  0.48748000  0.22408000  1.0 0.1299324904
C  C145  1  0.69453000  0.98233000  0.24303000  1.0 0.1419279987
C  C146  1  0.98233000  0.24303000  0.69453000  1.0 0.1419279987
C  C147  1  0.24303000  0.69453000  0.98233000  1.0 0.1419279987
C  C148  1  0.80547000  0.25697000  0.51767000  1.0 0.1419279987
C  C149  1  0.51767000  0.80547000  0.25697000  1.0 0.1419279987
C  C150  1  0.25697000  0.51767000  0.80547000  1.0 0.1419279987
C  C151  1  0.30547000  0.01767000  0.75697000  1.0 0.1419279987
C  C152  1  0.01767000  0.75697000  0.30547000  1.0 0.1419279987
C  C153  1  0.75697000  0.30547000  0.01767000  1.0 0.1419279987
C  C154  1  0.19453000  0.74303000  0.48233000  1.0 0.1419279987
C  C155  1  0.48233000  0.19453000  0.74303000  1.0 0.1419279987
C  C156  1  0.74303000  0.48233000  0.19453000  1.0 0.1419279987
C  C157  1  0.86020000  0.97600000  0.31580000  1.0 0.5571694041
C  C158  1  0.97600000  0.31580000  0.86020000  1.0 0.5571694041
C  C159  1  0.31580000  0.86020000  0.97600000  1.0 0.5571694041
C  C160  1  0.63980000  0.18420000  0.52400000  1.0 0.5571694041
C  C161  1  0.52400000  0.63980000  0.18420000  1.0 0.5571694041
C  C162  1  0.18420000  0.52400000  0.63980000  1.0 0.5571694041
C  C163  1  0.13980000  0.02400000  0.68420000  1.0 0.5571694041
C  C164  1  0.02400000  0.68420000  0.13980000  1.0 0.5571694041
C  C165  1  0.68420000  0.13980000  0.02400000  1.0 0.5571694041
C  C166  1  0.36020000  0.81580000  0.47600000  1.0 0.5571694041
C  C167  1  0.47600000  0.36020000  0.81580000  1.0 0.5571694041
C  C168  1  0.81580000  0.47600000  0.36020000  1.0 0.5571694041
N  N1  1  0.62408000  0.97798000  0.25108000  1.0 -0.2364129398
N  N2  1  0.97798000  0.25108000  0.62408000  1.0 -0.2364129398
N  N3  1  0.25108000  0.62408000  0.97798000  1.0 -0.2364129398
N  N4  1  0.87592000  0.24892000  0.52202000  1.0 -0.2364129398
N  N5  1  0.52202000  0.87592000  0.24892000  1.0 -0.2364129398
N  N6  1  0.24892000  0.52202000  0.87592000  1.0 -0.2364129398
N  N7  1  0.37592000  0.02202000  0.74892000  1.0 -0.2364129398
N  N8  1  0.02202000  0.74892000  0.37592000  1.0 -0.2364129398
N  N9  1  0.74892000  0.37592000  0.02202000  1.0 -0.2364129398
N  N10  1  0.12408000  0.75108000  0.47798000  1.0 -0.2364129398
N  N11  1  0.47798000  0.12408000  0.75108000  1.0 -0.2364129398
N  N12  1  0.75108000  0.47798000  0.12408000  1.0 -0.2364129398
N  N13  1  0.61255000  0.97955000  0.18595000  1.0 -0.0162349696
N  N14  1  0.97955000  0.18595000  0.61255000  1.0 -0.0162349696
N  N15  1  0.18595000  0.61255000  0.97955000  1.0 -0.0162349696
N  N16  1  0.88745000  0.31405000  0.52045000  1.0 -0.0162349696
N  N17  1  0.52045000  0.88745000  0.31405000  1.0 -0.0162349696
N  N18  1  0.31405000  0.52045000  0.88745000  1.0 -0.0162349696
N  N19  1  0.38745000  0.02045000  0.81405000  1.0 -0.0162349696
N  N20  1  0.02045000  0.81405000  0.38745000  1.0 -0.0162349696
N  N21  1  0.81405000  0.38745000  0.02045000  1.0 -0.0162349696
N  N22  1  0.11255000  0.68595000  0.47955000  1.0 -0.0162349696
N  N23  1  0.47955000  0.11255000  0.68595000  1.0 -0.0162349696
N  N24  1  0.68595000  0.47955000  0.11255000  1.0 -0.0162349696
N  N25  1  0.67126000  0.98596000  0.13526000  1.0 -0.2199203501
N  N26  1  0.98596000  0.13526000  0.67126000  1.0 -0.2199203501
N  N27  1  0.13526000  0.67126000  0.98596000  1.0 -0.2199203501
N  N28  1  0.82874000  0.36474000  0.51404000  1.0 -0.2199203501
N  N29  1  0.51404000  0.82874000  0.36474000  1.0 -0.2199203501
N  N30  1  0.36474000  0.51404000  0.82874000  1.0 -0.2199203501
N  N31  1  0.32874000  0.01404000  0.86474000  1.0 -0.2199203501
N  N32  1  0.01404000  0.86474000  0.32874000  1.0 -0.2199203501
N  N33  1  0.86474000  0.32874000  0.01404000  1.0 -0.2199203501
N  N34  1  0.17126000  0.63526000  0.48596000  1.0 -0.2199203501
N  N35  1  0.48596000  0.17126000  0.63526000  1.0 -0.2199203501
N  N36  1  0.63526000  0.48596000  0.17126000  1.0 -0.2199203501
N  N37  1  0.52068000  0.14528000  0.43108000  1.0 -0.2199203501
N  N38  1  0.14528000  0.43108000  0.52068000  1.0 -0.2199203501
N  N39  1  0.43108000  0.52068000  0.14528000  1.0 -0.2199203501
N  N40  1  0.97932000  0.06892000  0.35472000  1.0 -0.2199203501
N  N41  1  0.35472000  0.97932000  0.06892000  1.0 -0.2199203501
N  N42  1  0.06892000  0.35472000  0.97932000  1.0 -0.2199203501
N  N43  1  0.47932000  0.85472000  0.56892000  1.0 -0.2199203501
N  N44  1  0.85472000  0.56892000  0.47932000  1.0 -0.2199203501
N  N45  1  0.56892000  0.47932000  0.85472000  1.0 -0.2199203501
N  N46  1  0.02068000  0.93108000  0.64528000  1.0 -0.2199203501
N  N47  1  0.64528000  0.02068000  0.93108000  1.0 -0.2199203501
N  N48  1  0.93108000  0.64528000  0.02068000  1.0 -0.2199203501
N  N49  1  0.52770000  0.07860000  0.42270000  1.0 -0.0319781297
N  N50  1  0.07860000  0.42270000  0.52770000  1.0 -0.0319781297
N  N51  1  0.42270000  0.52770000  0.07860000  1.0 -0.0319781297
N  N52  1  0.97230000  0.07730000  0.42140000  1.0 -0.0319781297
N  N53  1  0.42140000  0.97230000  0.07730000  1.0 -0.0319781297
N  N54  1  0.07730000  0.42140000  0.97230000  1.0 -0.0319781297
N  N55  1  0.47230000  0.92140000  0.57730000  1.0 -0.0319781297
N  N56  1  0.92140000  0.57730000  0.47230000  1.0 -0.0319781297
N  N57  1  0.57730000  0.47230000  0.92140000  1.0 -0.0319781297
N  N58  1  0.02770000  0.92270000  0.57860000  1.0 -0.0319781297
N  N59  1  0.57860000  0.02770000  0.92270000  1.0 -0.0319781297
N  N60  1  0.92270000  0.57860000  0.02770000  1.0 -0.0319781297
N  N61  1  0.54649000  0.07159000  0.35389000  1.0 -0.2268046784
N  N62  1  0.07159000  0.35389000  0.54649000  1.0 -0.2268046784
N  N63  1  0.35389000  0.54649000  0.07159000  1.0 -0.2268046784
N  N64  1  0.95351000  0.14611000  0.42841000  1.0 -0.2268046784
N  N65  1  0.42841000  0.95351000  0.14611000  1.0 -0.2268046784
N  N66  1  0.14611000  0.42841000  0.95351000  1.0 -0.2268046784
N  N67  1  0.45351000  0.92841000  0.64611000  1.0 -0.2268046784
N  N68  1  0.92841000  0.64611000  0.45351000  1.0 -0.2268046784
N  N69  1  0.64611000  0.45351000  0.92841000  1.0 -0.2268046784
N  N70  1  0.04649000  0.85389000  0.57159000  1.0 -0.2268046784
N  N71  1  0.57159000  0.04649000  0.85389000  1.0 -0.2268046784
N  N72  1  0.85389000  0.57159000  0.04649000  1.0 -0.2268046784
Cl  Cl1  1  0.45010000  0.04990000  0.25000000  1.0 -0.6103975163
Cl  Cl2  1  0.04990000  0.25000000  0.45010000  1.0 -0.6103975163
Cl  Cl3  1  0.25000000  0.45010000  0.04990000  1.0 -0.6103975163
Cl  Cl4  1  0.54990000  0.95010000  0.75000000  1.0 -0.6103975163
Cl  Cl5  1  0.95010000  0.75000000  0.54990000  1.0 -0.6103975163
Cl  Cl6  1  0.75000000  0.54990000  0.95010000  1.0 -0.6103975163
O  O1  1  0.84325000  0.95285000  0.38125000  1.0 -0.3832098231
O  O2  1  0.95285000  0.38125000  0.84325000  1.0 -0.3832098231
O  O3  1  0.38125000  0.84325000  0.95285000  1.0 -0.3832098231
O  O4  1  0.65675000  0.11875000  0.54715000  1.0 -0.3832098231
O  O5  1  0.54715000  0.65675000  0.11875000  1.0 -0.3832098231
O  O6  1  0.11875000  0.54715000  0.65675000  1.0 -0.3832098231
O  O7  1  0.15675000  0.04715000  0.61875000  1.0 -0.3832098231
O  O8  1  0.04715000  0.61875000  0.15675000  1.0 -0.3832098231
O  O9  1  0.61875000  0.15675000  0.04715000  1.0 -0.3832098231
O  O10  1  0.34325000  0.88125000  0.45285000  1.0 -0.3832098231
O  O11  1  0.45285000  0.34325000  0.88125000  1.0 -0.3832098231
O  O12  1  0.88125000  0.45285000  0.34325000  1.0 -0.3832098231
O  O13  1  0.91982000  0.99322000  0.28462000  1.0 -0.4690023448
O  O14  1  0.99322000  0.28462000  0.91982000  1.0 -0.4690023448
O  O15  1  0.28462000  0.91982000  0.99322000  1.0 -0.4690023448
O  O16  1  0.58018000  0.21538000  0.50678000  1.0 -0.4690023448
O  O17  1  0.50678000  0.58018000  0.21538000  1.0 -0.4690023448
O  O18  1  0.21538000  0.50678000  0.58018000  1.0 -0.4690023448
O  O19  1  0.08018000  0.00678000  0.71538000  1.0 -0.4690023448
O  O20  1  0.00678000  0.71538000  0.08018000  1.0 -0.4690023448
O  O21  1  0.71538000  0.08018000  0.00678000  1.0 -0.4690023448
O  O22  1  0.41982000  0.78462000  0.49322000  1.0 -0.4690023448
O  O23  1  0.49322000  0.41982000  0.78462000  1.0 -0.4690023448
O  O24  1  0.78462000  0.49322000  0.41982000  1.0 -0.4690023448
O  O25  1  0.51314000  0.40774000  0.28554000  1.0 -0.5498574287
O  O26  1  0.40774000  0.28554000  0.51314000  1.0 -0.5498574287
O  O27  1  0.28554000  0.51314000  0.40774000  1.0 -0.5498574287
O  O28  1  0.98686000  0.21446000  0.09226000  1.0 -0.5498574287
O  O29  1  0.09226000  0.98686000  0.21446000  1.0 -0.5498574287
O  O30  1  0.21446000  0.09226000  0.98686000  1.0 -0.5498574287
O  O31  1  0.48686000  0.59226000  0.71446000  1.0 -0.5498574287
O  O32  1  0.59226000  0.71446000  0.48686000  1.0 -0.5498574287
O  O33  1  0.71446000  0.48686000  0.59226000  1.0 -0.5498574287
O  O34  1  0.01314000  0.78554000  0.90774000  1.0 -0.5498574287
O  O35  1  0.90774000  0.01314000  0.78554000  1.0 -0.5498574287
O  O36  1  0.78554000  0.90774000  0.01314000  1.0 -0.5498574287
O  O37  1  0.54468000  0.39088000  0.17348000  1.0 -0.5498574287
O  O38  1  0.39088000  0.17348000  0.54468000  1.0 -0.5498574287
O  O39  1  0.17348000  0.54468000  0.39088000  1.0 -0.5498574287
O  O40  1  0.95532000  0.32652000  0.10912000  1.0 -0.5498574287
O  O41  1  0.10912000  0.95532000  0.32652000  1.0 -0.5498574287
O  O42  1  0.32652000  0.10912000  0.95532000  1.0 -0.5498574287
O  O43  1  0.45532000  0.60912000  0.82652000  1.0 -0.5498574287
O  O44  1  0.60912000  0.82652000  0.45532000  1.0 -0.5498574287
O  O45  1  0.82652000  0.45532000  0.60912000  1.0 -0.5498574287
O  O46  1  0.04468000  0.67348000  0.89088000  1.0 -0.5498574287
O  O47  1  0.89088000  0.04468000  0.67348000  1.0 -0.5498574287
O  O48  1  0.67348000  0.89088000  0.04468000  1.0 -0.5498574287
O  O49  1  0.48333000  0.95383000  0.42873000  1.0 -0.7737966811
O  O50  1  0.95383000  0.42873000  0.48333000  1.0 -0.7737966811
O  O51  1  0.42873000  0.48333000  0.95383000  1.0 -0.7737966811
O  O52  1  0.01667000  0.07127000  0.54617000  1.0 -0.7737966811
O  O53  1  0.54617000  0.01667000  0.07127000  1.0 -0.7737966811
O  O54  1  0.07127000  0.54617000  0.01667000  1.0 -0.7737966811
O  O55  1  0.51667000  0.04617000  0.57127000  1.0 -0.7737966811
O  O56  1  0.04617000  0.57127000  0.51667000  1.0 -0.7737966811
O  O57  1  0.57127000  0.51667000  0.04617000  1.0 -0.7737966811
O  O58  1  0.98333000  0.92873000  0.45383000  1.0 -0.7737966811
O  O59  1  0.45383000  0.98333000  0.92873000  1.0 -0.7737966811
O  O60  1  0.92873000  0.45383000  0.98333000  1.0 -0.7737966811
