# DDEC6 charges by PACMAN v1.1 (https://github.com/mtap-research/PACMAN-charge/)
data_QAPPON_ion_pacman
_symmetry_space_group_name_H-M   'P 1'
_cell_length_a   10.46410000
_cell_length_b   15.67010000
_cell_length_c   32.04340000
_cell_angle_alpha   90.00000000
_cell_angle_beta   104.10400000
_cell_angle_gamma   90.00000000
_symmetry_Int_Tables_number   1
_chemical_formula_structural   Ag3P2H34C40(N3F2)6
_chemical_formula_sum   'Ag12 P8 H136 C160 N72 F48'
_cell_volume   5095.87835097
_cell_formula_units_Z   4
loop_
 _symmetry_equiv_pos_site_id
 _symmetry_equiv_pos_as_xyz
  1  'x, y, z'
loop_
 _atom_site_type_symbol
 _atom_site_label
 _atom_site_symmetry_multiplicity
 _atom_site_fract_x
 _atom_site_fract_y
 _atom_site_fract_z
 _atom_site_occupancy
 _atom_site_charge
Ag  Ag1  1  0.15493000  0.94210000  0.48851000  1.0 0.3191557496
Ag  Ag2  1  0.84507000  0.44210000  0.01149000  1.0 0.3191557496
Ag  Ag3  1  0.84507000  0.05790000  0.51149000  1.0 0.3191557496
Ag  Ag4  1  0.15493000  0.55790000  0.98851000  1.0 0.3191557496
Ag  Ag5  1  0.17801000  0.57476000  0.66455000  1.0 0.2654350184
Ag  Ag6  1  0.82199000  0.07476000  0.83545000  1.0 0.2654350184
Ag  Ag7  1  0.82199000  0.42524000  0.33545000  1.0 0.2654350184
Ag  Ag8  1  0.17801000  0.92524000  0.16455000  1.0 0.2654350184
Ag  Ag9  1  0.15118000  0.55646000  0.32833000  1.0 0.2760664493
Ag  Ag10  1  0.84882000  0.05646000  0.17167000  1.0 0.2760664493
Ag  Ag11  1  0.84882000  0.44354000  0.67167000  1.0 0.2760664493
Ag  Ag12  1  0.15118000  0.94354000  0.82833000  1.0 0.2760664493
P  P1  1  0.32093000  0.09844000  0.34006000  1.0 1.5536207825
P  P2  1  0.67907000  0.59844000  0.15994000  1.0 1.5536207825
P  P3  1  0.67907000  0.90156000  0.65994000  1.0 1.5536207825
P  P4  1  0.32093000  0.40156000  0.84006000  1.0 1.5536207825
P  P5  1  0.20992000  0.47673000  0.16932000  1.0 1.5711608797
P  P6  1  0.79008000  0.97673000  0.33068000  1.0 1.5711608797
P  P7  1  0.79008000  0.52327000  0.83068000  1.0 1.5711608797
P  P8  1  0.20992000  0.02327000  0.66932000  1.0 1.5711608797
H  H1  1  0.05740000  0.57150000  0.41460000  1.0 0.0994755864
H  H2  1  0.94260000  0.07150000  0.08540000  1.0 0.0994755864
H  H3  1  0.94260000  0.42850000  0.58540000  1.0 0.0994755864
H  H4  1  0.05740000  0.92850000  0.91460000  1.0 0.0994755864
H  H5  1  0.92400000  0.66240000  0.44190000  1.0 0.1277954747
H  H6  1  0.07600000  0.16240000  0.05810000  1.0 0.1277954747
H  H7  1  0.07600000  0.33760000  0.55810000  1.0 0.1277954747
H  H8  1  0.92400000  0.83760000  0.94190000  1.0 0.1277954747
H  H9  1  0.08300000  0.86150000  0.39140000  1.0 0.1399513692
H  H10  1  0.91700000  0.36150000  0.10860000  1.0 0.1399513692
H  H11  1  0.91700000  0.13850000  0.60860000  1.0 0.1399513692
H  H12  1  0.08300000  0.63850000  0.89140000  1.0 0.1399513692
H  H13  1  0.20980000  0.76390000  0.36470000  1.0 0.1087583289
H  H14  1  0.79020000  0.26390000  0.13530000  1.0 0.1087583289
H  H15  1  0.79020000  0.23610000  0.63530000  1.0 0.1087583289
H  H16  1  0.20980000  0.73610000  0.86470000  1.0 0.1087583289
H  H17  1  0.30480000  0.93120000  0.41180000  1.0 0.1187963791
H  H18  1  0.69520000  0.43120000  0.08820000  1.0 0.1187963791
H  H19  1  0.69520000  0.06880000  0.58820000  1.0 0.1187963791
H  H20  1  0.30480000  0.56880000  0.91180000  1.0 0.1187963791
H  H21  1  0.51060000  0.91690000  0.40050000  1.0 0.1399513692
H  H22  1  0.48940000  0.41690000  0.09950000  1.0 0.1399513692
H  H23  1  0.48940000  0.08310000  0.59950000  1.0 0.1399513692
H  H24  1  0.51060000  0.58310000  0.90050000  1.0 0.1399513692
H  H25  1  0.65090000  0.88120000  0.52950000  1.0 0.0994755864
H  H26  1  0.34910000  0.38120000  0.97050000  1.0 0.0994755864
H  H27  1  0.34910000  0.11880000  0.47050000  1.0 0.0994755864
H  H28  1  0.65090000  0.61880000  0.02950000  1.0 0.0994755864
H  H29  1  0.43240000  0.88920000  0.53600000  1.0 0.1087583289
H  H30  1  0.56760000  0.38920000  0.96400000  1.0 0.1087583289
H  H31  1  0.56760000  0.11080000  0.46400000  1.0 0.1087583289
H  H32  1  0.43240000  0.61080000  0.03600000  1.0 0.1087583289
H  H33  1  0.10210000  0.91930000  0.57790000  1.0 0.1087583289
H  H34  1  0.89790000  0.41930000  0.92210000  1.0 0.1087583289
H  H35  1  0.89790000  0.08070000  0.42210000  1.0 0.1087583289
H  H36  1  0.10210000  0.58070000  0.07790000  1.0 0.1087583289
H  H37  1  0.96720000  0.83560000  0.60880000  1.0 0.150508222
H  H38  1  0.03280000  0.33560000  0.89120000  1.0 0.150508222
H  H39  1  0.03280000  0.16440000  0.39120000  1.0 0.150508222
H  H40  1  0.96720000  0.66440000  0.10880000  1.0 0.150508222
H  H41  1  0.06820000  0.63190000  0.54580000  1.0 0.1277954747
H  H42  1  0.93180000  0.13190000  0.95420000  1.0 0.1277954747
H  H43  1  0.93180000  0.36810000  0.45420000  1.0 0.1277954747
H  H44  1  0.06820000  0.86810000  0.04580000  1.0 0.1277954747
H  H45  1  0.19540000  0.72360000  0.51580000  1.0 0.0891093435
H  H46  1  0.80460000  0.22360000  0.98420000  1.0 0.0891093435
H  H47  1  0.80460000  0.27640000  0.48420000  1.0 0.0891093435
H  H48  1  0.19540000  0.77640000  0.01580000  1.0 0.0891093435
H  H49  1  0.31160000  0.60540000  0.58820000  1.0 0.0891093435
H  H50  1  0.68840000  0.10540000  0.91180000  1.0 0.0891093435
H  H51  1  0.68840000  0.39460000  0.41180000  1.0 0.0891093435
H  H52  1  0.31160000  0.89460000  0.08820000  1.0 0.0891093435
H  H53  1  0.51300000  0.61620000  0.57030000  1.0 0.1277954747
H  H54  1  0.48700000  0.11620000  0.92970000  1.0 0.1277954747
H  H55  1  0.48700000  0.38380000  0.42970000  1.0 0.1277954747
H  H56  1  0.51300000  0.88380000  0.07030000  1.0 0.1277954747
H  H57  1  0.68790000  0.61810000  0.69810000  1.0 0.1399513692
H  H58  1  0.31210000  0.11810000  0.80190000  1.0 0.1399513692
H  H59  1  0.31210000  0.38190000  0.30190000  1.0 0.1399513692
H  H60  1  0.68790000  0.88190000  0.19810000  1.0 0.1399513692
H  H61  1  0.48000000  0.60900000  0.71150000  1.0 0.1087583289
H  H62  1  0.52000000  0.10900000  0.78850000  1.0 0.1087583289
H  H63  1  0.52000000  0.39100000  0.28850000  1.0 0.1087583289
H  H64  1  0.48000000  0.89100000  0.21150000  1.0 0.1087583289
H  H65  1  0.70260000  0.40970000  0.74490000  1.0 0.0994755864
H  H66  1  0.29740000  0.90970000  0.75510000  1.0 0.0994755864
H  H67  1  0.29740000  0.59030000  0.25510000  1.0 0.0994755864
H  H68  1  0.70260000  0.09030000  0.24490000  1.0 0.0994755864
H  H69  1  0.49550000  0.39240000  0.75790000  1.0 0.1557718337
H  H70  1  0.50450000  0.89240000  0.74210000  1.0 0.1557718337
H  H71  1  0.50450000  0.60760000  0.24210000  1.0 0.1557718337
H  H72  1  0.49550000  0.10760000  0.25790000  1.0 0.1557718337
H  H73  1  0.34320000  0.39770000  0.62870000  1.0 0.1187963791
H  H74  1  0.65680000  0.89770000  0.87130000  1.0 0.1187963791
H  H75  1  0.65680000  0.60230000  0.37130000  1.0 0.1187963791
H  H76  1  0.34320000  0.10230000  0.12870000  1.0 0.1187963791
H  H77  1  0.55680000  0.41130000  0.61980000  1.0 0.0994755864
H  H78  1  0.44320000  0.91130000  0.88020000  1.0 0.0994755864
H  H79  1  0.44320000  0.58870000  0.38020000  1.0 0.0994755864
H  H80  1  0.55680000  0.08870000  0.11980000  1.0 0.0994755864
H  H81  1  0.92680000  0.07710000  0.74820000  1.0 0.1187963791
H  H82  1  0.07320000  0.57710000  0.75180000  1.0 0.1187963791
H  H83  1  0.07320000  0.92290000  0.25180000  1.0 0.1187963791
H  H84  1  0.92680000  0.42290000  0.24820000  1.0 0.1187963791
H  H85  1  0.05210000  0.16140000  0.71390000  1.0 0.1399513692
H  H86  1  0.94790000  0.66140000  0.78610000  1.0 0.1399513692
H  H87  1  0.94790000  0.83860000  0.28610000  1.0 0.1399513692
H  H88  1  0.05210000  0.33860000  0.21390000  1.0 0.1399513692
H  H89  1  0.95010000  0.36650000  0.77640000  1.0 0.1399513692
H  H90  1  0.04990000  0.86650000  0.72360000  1.0 0.1399513692
H  H91  1  0.04990000  0.63350000  0.22360000  1.0 0.1399513692
H  H92  1  0.95010000  0.13350000  0.27640000  1.0 0.1399513692
H  H93  1  0.82710000  0.27530000  0.80820000  1.0 0.1087583289
H  H94  1  0.17290000  0.77530000  0.69180000  1.0 0.1087583289
H  H95  1  0.17290000  0.72470000  0.19180000  1.0 0.1087583289
H  H96  1  0.82710000  0.22470000  0.30820000  1.0 0.1087583289
H  H97  1  0.64300000  0.78000000  0.38900000  1.0 0.1989977702
H  H98  1  0.35700000  0.28000000  0.11100000  1.0 0.1989977702
H  H99  1  0.35700000  0.22000000  0.61100000  1.0 0.1989977702
H  H100  1  0.64300000  0.72000000  0.88900000  1.0 0.1989977702
H  H101  1  0.66260000  0.73200000  0.42460000  1.0 0.1902752638
H  H102  1  0.33740000  0.23200000  0.07540000  1.0 0.1902752638
H  H103  1  0.33740000  0.26800000  0.57540000  1.0 0.1902752638
H  H104  1  0.66260000  0.76800000  0.92460000  1.0 0.1902752638
H  H105  1  0.68150000  0.77200000  0.58850000  1.0 0.2654350184
H  H106  1  0.31850000  0.27200000  0.91150000  1.0 0.2654350184
H  H107  1  0.31850000  0.22800000  0.41150000  1.0 0.2654350184
H  H108  1  0.68150000  0.72800000  0.08850000  1.0 0.2654350184
H  H109  1  0.66640000  0.72200000  0.55040000  1.0 0.2273311448
H  H110  1  0.33360000  0.22200000  0.94960000  1.0 0.2273311448
H  H111  1  0.33360000  0.27800000  0.44960000  1.0 0.2273311448
H  H112  1  0.66640000  0.77800000  0.05040000  1.0 0.2273311448
H  H113  1  0.33200000  0.22000000  0.72300000  1.0 0.2273311448
H  H114  1  0.66800000  0.72000000  0.77700000  1.0 0.2273311448
H  H115  1  0.66800000  0.78000000  0.27700000  1.0 0.2273311448
H  H116  1  0.33200000  0.28000000  0.22300000  1.0 0.2273311448
H  H117  1  0.34950000  0.25900000  0.76150000  1.0 0.2273311448
H  H118  1  0.65050000  0.75900000  0.73850000  1.0 0.2273311448
H  H119  1  0.65050000  0.74100000  0.23850000  1.0 0.2273311448
H  H120  1  0.34950000  0.24100000  0.26150000  1.0 0.2273311448
H  H121  1  0.35580000  0.03160000  0.43890000  1.0 0.0891093435
H  H122  1  0.64420000  0.53160000  0.06110000  1.0 0.0891093435
H  H123  1  0.64420000  0.96840000  0.56110000  1.0 0.0891093435
H  H124  1  0.35580000  0.46840000  0.93890000  1.0 0.0891093435
H  H125  1  0.57070000  0.01610000  0.42880000  1.0 0.1187963791
H  H126  1  0.42930000  0.51610000  0.07120000  1.0 0.1187963791
H  H127  1  0.42930000  0.98390000  0.57120000  1.0 0.1187963791
H  H128  1  0.57070000  0.48390000  0.92880000  1.0 0.1187963791
H  H129  1  0.57260000  0.77710000  0.47430000  1.0 0.0891093435
H  H130  1  0.42740000  0.27710000  0.02570000  1.0 0.0891093435
H  H131  1  0.42740000  0.22290000  0.52570000  1.0 0.0891093435
H  H132  1  0.57260000  0.72290000  0.97430000  1.0 0.0891093435
H  H133  1  0.36450000  0.79860000  0.48360000  1.0 0.0994755864
H  H134  1  0.63550000  0.29860000  0.01640000  1.0 0.0994755864
H  H135  1  0.63550000  0.20140000  0.51640000  1.0 0.0994755864
H  H136  1  0.36450000  0.70140000  0.98360000  1.0 0.0994755864
C  C1  1  0.06156000  0.63110000  0.40946000  1.0 0.0599609671
C  C2  1  0.93844000  0.13110000  0.09054000  1.0 0.0599609671
C  C3  1  0.93844000  0.36890000  0.59054000  1.0 0.0599609671
C  C4  1  0.06156000  0.86890000  0.90946000  1.0 0.0599609671
C  C5  1  0.98195000  0.68460000  0.42595000  1.0 -0.1897733987
C  C6  1  0.01805000  0.18460000  0.07405000  1.0 -0.1897733987
C  C7  1  0.01805000  0.31540000  0.57405000  1.0 -0.1897733987
C  C8  1  0.98195000  0.81540000  0.92595000  1.0 -0.1897733987
C  C9  1  0.98795000  0.77210000  0.41885000  1.0 0.0787483498
C  C10  1  0.01205000  0.27210000  0.08115000  1.0 0.0787483498
C  C11  1  0.01205000  0.22790000  0.58115000  1.0 0.0787483498
C  C12  1  0.98795000  0.72790000  0.91885000  1.0 0.0787483498
C  C13  1  0.07508000  0.80210000  0.39618000  1.0 -0.1826513142
C  C14  1  0.92492000  0.30210000  0.10382000  1.0 -0.1826513142
C  C15  1  0.92492000  0.19790000  0.60382000  1.0 -0.1826513142
C  C16  1  0.07508000  0.69790000  0.89618000  1.0 -0.1826513142
C  C17  1  0.15044000  0.74330000  0.38054000  1.0 0.0499489939
C  C18  1  0.84956000  0.24330000  0.11946000  1.0 0.0499489939
C  C19  1  0.84956000  0.25670000  0.61946000  1.0 0.0499489939
C  C20  1  0.15044000  0.75670000  0.88054000  1.0 0.0499489939
C  C21  1  0.90591000  0.83090000  0.43661000  1.0 0.1989977702
C  C22  1  0.09409000  0.33090000  0.06339000  1.0 0.1989977702
C  C23  1  0.09409000  0.16910000  0.56339000  1.0 0.1989977702
C  C24  1  0.90591000  0.66910000  0.93661000  1.0 0.1989977702
C  C25  1  0.73695000  0.88490000  0.45565000  1.0 0.0891093435
C  C26  1  0.26305000  0.38490000  0.04435000  1.0 0.0891093435
C  C27  1  0.26305000  0.11510000  0.54435000  1.0 0.0891093435
C  C28  1  0.73695000  0.61510000  0.95565000  1.0 0.0891093435
C  C29  1  0.37535000  0.92050000  0.43615000  1.0 0.0499489939
C  C30  1  0.62465000  0.42050000  0.06385000  1.0 0.0499489939
C  C31  1  0.62465000  0.07950000  0.56385000  1.0 0.0499489939
C  C32  1  0.37535000  0.57950000  0.93615000  1.0 0.0499489939
C  C33  1  0.49923000  0.91170000  0.42893000  1.0 -0.0302763797
C  C34  1  0.50077000  0.41170000  0.07107000  1.0 -0.0302763797
C  C35  1  0.50077000  0.08830000  0.57107000  1.0 -0.0302763797
C  C36  1  0.49923000  0.58830000  0.92893000  1.0 -0.0302763797
C  C37  1  0.60121000  0.89630000  0.46071000  1.0 0.0407821314
C  C38  1  0.39879000  0.39630000  0.03929000  1.0 0.0407821314
C  C39  1  0.39879000  0.10370000  0.53929000  1.0 0.0407821314
C  C40  1  0.60121000  0.60370000  0.96071000  1.0 0.0407821314
C  C41  1  0.57964000  0.88980000  0.50504000  1.0 -0.1428140953
C  C42  1  0.42036000  0.38980000  0.99496000  1.0 -0.1428140953
C  C43  1  0.42036000  0.11020000  0.49496000  1.0 -0.1428140953
C  C44  1  0.57964000  0.61020000  0.00504000  1.0 -0.1428140953
C  C45  1  0.45165000  0.89680000  0.50875000  1.0 -0.0879879996
C  C46  1  0.54835000  0.39680000  0.99125000  1.0 -0.0879879996
C  C47  1  0.54835000  0.10320000  0.49125000  1.0 -0.0879879996
C  C48  1  0.45165000  0.60320000  0.00875000  1.0 -0.0879879996
C  C49  1  0.09398000  0.86020000  0.57098000  1.0 0.0891093435
C  C50  1  0.90602000  0.36020000  0.92902000  1.0 0.0891093435
C  C51  1  0.90602000  0.13980000  0.42902000  1.0 0.0891093435
C  C52  1  0.09398000  0.63980000  0.07098000  1.0 0.0891093435
C  C53  1  0.01395000  0.81080000  0.58985000  1.0 -0.1688938946
C  C54  1  0.98605000  0.31080000  0.91015000  1.0 -0.1688938946
C  C55  1  0.98605000  0.18920000  0.41015000  1.0 -0.1688938946
C  C56  1  0.01395000  0.68920000  0.08985000  1.0 -0.1688938946
C  C57  1  0.00341000  0.72480000  0.58051000  1.0 0.0710445639
C  C58  1  0.99659000  0.22480000  0.91949000  1.0 0.0710445639
C  C59  1  0.99659000  0.27520000  0.41949000  1.0 0.0710445639
C  C60  1  0.00341000  0.77520000  0.08051000  1.0 0.0710445639
C  C61  1  0.07264000  0.69100000  0.55264000  1.0 -0.2104661505
C  C62  1  0.92736000  0.19100000  0.94736000  1.0 -0.2104661505
C  C63  1  0.92736000  0.30900000  0.44736000  1.0 -0.2104661505
C  C64  1  0.07264000  0.80900000  0.05264000  1.0 -0.2104661505
C  C65  1  0.14846000  0.74640000  0.53516000  1.0 0.0407821314
C  C66  1  0.85154000  0.24640000  0.96484000  1.0 0.0407821314
C  C67  1  0.85154000  0.25360000  0.46484000  1.0 0.0407821314
C  C68  1  0.14846000  0.75360000  0.03516000  1.0 0.0407821314
C  C69  1  0.92172000  0.66970000  0.60092000  1.0 0.2092313811
C  C70  1  0.07828000  0.16970000  0.89908000  1.0 0.2092313811
C  C71  1  0.07828000  0.33030000  0.39908000  1.0 0.2092313811
C  C72  1  0.92172000  0.83030000  0.10092000  1.0 0.2092313811
C  C73  1  0.75459000  0.62460000  0.62389000  1.0 0.1989977702
C  C74  1  0.24541000  0.12460000  0.87611000  1.0 0.1989977702
C  C75  1  0.24541000  0.37540000  0.37611000  1.0 0.1989977702
C  C76  1  0.75459000  0.87540000  0.12389000  1.0 0.1989977702
C  C77  1  0.38952000  0.60830000  0.61082000  1.0 0.0599609671
C  C78  1  0.61048000  0.10830000  0.88918000  1.0 0.0599609671
C  C79  1  0.61048000  0.39170000  0.38918000  1.0 0.0599609671
C  C80  1  0.38952000  0.89170000  0.11082000  1.0 0.0599609671
C  C81  1  0.50908000  0.61460000  0.59958000  1.0 -0.2004362875
C  C82  1  0.49092000  0.11460000  0.90042000  1.0 -0.2004362875
C  C83  1  0.49092000  0.38540000  0.40042000  1.0 -0.2004362875
C  C84  1  0.50908000  0.88540000  0.09958000  1.0 -0.2004362875
C  C85  1  0.62301000  0.61860000  0.63271000  1.0 0.0710445639
C  C86  1  0.37699000  0.11860000  0.86729000  1.0 0.0710445639
C  C87  1  0.37699000  0.38140000  0.36729000  1.0 0.0710445639
C  C88  1  0.62301000  0.88140000  0.13271000  1.0 0.0710445639
C  C89  1  0.61172000  0.61598000  0.67482000  1.0 -0.1688938946
C  C90  1  0.38828000  0.11598000  0.82518000  1.0 -0.1688938946
C  C91  1  0.38828000  0.38402000  0.32518000  1.0 -0.1688938946
C  C92  1  0.61172000  0.88402000  0.17482000  1.0 -0.1688938946
C  C93  1  0.48696000  0.61020000  0.68246000  1.0 0.0787483498
C  C94  1  0.51304000  0.11020000  0.81754000  1.0 0.0787483498
C  C95  1  0.51304000  0.38980000  0.31754000  1.0 0.0787483498
C  C96  1  0.48696000  0.88980000  0.18246000  1.0 0.0787483498
C  C97  1  0.62842000  0.40620000  0.72102000  1.0 0.0891093435
C  C98  1  0.37158000  0.90620000  0.77898000  1.0 0.0891093435
C  C99  1  0.37158000  0.59380000  0.27898000  1.0 0.0891093435
C  C100  1  0.62842000  0.09380000  0.22102000  1.0 0.0891093435
C  C101  1  0.50548000  0.39650000  0.72928000  1.0 -0.1688938946
C  C102  1  0.49452000  0.89650000  0.77072000  1.0 -0.1688938946
C  C103  1  0.49452000  0.60350000  0.27072000  1.0 -0.1688938946
C  C104  1  0.50548000  0.10350000  0.22928000  1.0 -0.1688938946
C  C105  1  0.39705000  0.39278000  0.69415000  1.0 0.0710445639
C  C106  1  0.60295000  0.89278000  0.80585000  1.0 0.0710445639
C  C107  1  0.60295000  0.60722000  0.30585000  1.0 0.0710445639
C  C108  1  0.39705000  0.10722000  0.19415000  1.0 0.0710445639
C  C109  1  0.41606000  0.39916000  0.65306000  1.0 -0.2004362875
C  C110  1  0.58394000  0.89916000  0.84694000  1.0 -0.2004362875
C  C111  1  0.58394000  0.60084000  0.34694000  1.0 -0.2004362875
C  C112  1  0.41606000  0.10084000  0.15306000  1.0 -0.2004362875
C  C113  1  0.54367000  0.40770000  0.64807000  1.0 0.0599609671
C  C114  1  0.45633000  0.90770000  0.85193000  1.0 0.0599609671
C  C115  1  0.45633000  0.59230000  0.35193000  1.0 0.0599609671
C  C116  1  0.54367000  0.09230000  0.14807000  1.0 0.0599609671
C  C117  1  0.26278000  0.38195000  0.70078000  1.0 0.1989977702
C  C118  1  0.73722000  0.88195000  0.79922000  1.0 0.1989977702
C  C119  1  0.73722000  0.61805000  0.29922000  1.0 0.1989977702
C  C120  1  0.26278000  0.11805000  0.20078000  1.0 0.1989977702
C  C121  1  0.09641000  0.32943000  0.72181000  1.0 0.2184645653
C  C122  1  0.90359000  0.82943000  0.77819000  1.0 0.2184645653
C  C123  1  0.90359000  0.67057000  0.27819000  1.0 0.2184645653
C  C124  1  0.09641000  0.17057000  0.22181000  1.0 0.2184645653
C  C125  1  0.93241000  0.13660000  0.75401000  1.0 0.0891093435
C  C126  1  0.06759000  0.63660000  0.74599000  1.0 0.0891093435
C  C127  1  0.06759000  0.86340000  0.24599000  1.0 0.0891093435
C  C128  1  0.93241000  0.36340000  0.25401000  1.0 0.0891093435
C  C129  1  0.00728000  0.18622000  0.73338000  1.0 -0.1688938946
C  C130  1  0.99272000  0.68622000  0.76662000  1.0 -0.1688938946
C  C131  1  0.99272000  0.81378000  0.26662000  1.0 -0.1688938946
C  C132  1  0.00728000  0.31378000  0.23338000  1.0 -0.1688938946
C  C133  1  0.01567000  0.27351000  0.74187000  1.0 0.0710445639
C  C134  1  0.98433000  0.77351000  0.75813000  1.0 0.0710445639
C  C135  1  0.98433000  0.72649000  0.25813000  1.0 0.0710445639
C  C136  1  0.01567000  0.22649000  0.24187000  1.0 0.0710445639
C  C137  1  0.94714000  0.30718000  0.77014000  1.0 -0.1688938946
C  C138  1  0.05286000  0.80718000  0.72986000  1.0 -0.1688938946
C  C139  1  0.05286000  0.69282000  0.22986000  1.0 -0.1688938946
C  C140  1  0.94714000  0.19282000  0.27014000  1.0 -0.1688938946
C  C141  1  0.87439000  0.25210000  0.78899000  1.0 0.0710445639
C  C142  1  0.12561000  0.75210000  0.71101000  1.0 0.0710445639
C  C143  1  0.12561000  0.74790000  0.21101000  1.0 0.0710445639
C  C144  1  0.87439000  0.24790000  0.28899000  1.0 0.0710445639
C  C145  1  0.40580000  0.98210000  0.44930000  1.0 -0.0071937127
C  C146  1  0.59420000  0.48210000  0.05070000  1.0 -0.0071937127
C  C147  1  0.59420000  0.01790000  0.55070000  1.0 -0.0071937127
C  C148  1  0.40580000  0.51790000  0.94930000  1.0 -0.0071937127
C  C149  1  0.53210000  0.97400000  0.44330000  1.0 -0.0794164419
C  C150  1  0.46790000  0.47400000  0.05670000  1.0 -0.0794164419
C  C151  1  0.46790000  0.02600000  0.55670000  1.0 -0.0794164419
C  C152  1  0.53210000  0.52600000  0.94330000  1.0 -0.0794164419
C  C153  1  0.53520000  0.83270000  0.47070000  1.0 -0.0989050001
C  C154  1  0.46480000  0.33270000  0.02930000  1.0 -0.0989050001
C  C155  1  0.46480000  0.16730000  0.52930000  1.0 -0.0989050001
C  C156  1  0.53520000  0.66730000  0.97070000  1.0 -0.0989050001
C  C157  1  0.40890000  0.84670000  0.47590000  1.0 0.0407821314
C  C158  1  0.59110000  0.34670000  0.02410000  1.0 0.0407821314
C  C159  1  0.59110000  0.15330000  0.52410000  1.0 0.0407821314
C  C160  1  0.40890000  0.65330000  0.97590000  1.0 0.0407821314
N  N1  1  0.34739000  0.91568000  0.47159000  1.0 0.0023626307
N  N2  1  0.65261000  0.41568000  0.02841000  1.0 0.0023626307
N  N3  1  0.65261000  0.08432000  0.52841000  1.0 0.0023626307
N  N4  1  0.34739000  0.58432000  0.97159000  1.0 0.0023626307
N  N5  1  0.14446000  0.65870000  0.38656000  1.0 -0.2104661505
N  N6  1  0.85554000  0.15870000  0.11344000  1.0 -0.2104661505
N  N7  1  0.85554000  0.34130000  0.61344000  1.0 -0.2104661505
N  N8  1  0.14446000  0.84130000  0.88656000  1.0 -0.2104661505
N  N9  1  0.94558000  0.89965000  0.45918000  1.0 -0.2004362875
N  N10  1  0.05442000  0.39965000  0.04082000  1.0 -0.2004362875
N  N11  1  0.05442000  0.10035000  0.54082000  1.0 -0.2004362875
N  N12  1  0.94558000  0.60035000  0.95918000  1.0 -0.2004362875
N  N13  1  0.83826000  0.93404000  0.47186000  1.0 -0.2216367056
N  N14  1  0.16174000  0.43404000  0.02814000  1.0 -0.2104661505
N  N15  1  0.16174000  0.06596000  0.52814000  1.0 -0.2104661505
N  N16  1  0.83826000  0.56596000  0.97186000  1.0 -0.2216367056
N  N17  1  0.77439000  0.81982000  0.43359000  1.0 0.0499489939
N  N18  1  0.22561000  0.31982000  0.06641000  1.0 0.0499489939
N  N19  1  0.22561000  0.18018000  0.56641000  1.0 0.0499489939
N  N20  1  0.77439000  0.68018000  0.93359000  1.0 0.0499489939
N  N21  1  0.69774000  0.75500000  0.40904000  1.0 -0.4619681157
N  N22  1  0.30226000  0.25500000  0.09096000  1.0 -0.4619681157
N  N23  1  0.30226000  0.24500000  0.59096000  1.0 -0.4619681157
N  N24  1  0.69774000  0.74500000  0.90904000  1.0 -0.4619681157
N  N25  1  0.16000000  0.82958000  0.54370000  1.0 -0.2216367056
N  N26  1  0.84000000  0.32958000  0.95630000  1.0 -0.2216367056
N  N27  1  0.84000000  0.17042000  0.45630000  1.0 -0.2216367056
N  N28  1  0.16000000  0.67042000  0.04370000  1.0 -0.2216367056
N  N29  1  0.96253000  0.60525000  0.62643000  1.0 -0.2104661505
N  N30  1  0.03747000  0.10525000  0.87357000  1.0 -0.2104661505
N  N31  1  0.03747000  0.39475000  0.37357000  1.0 -0.2104661505
N  N32  1  0.96253000  0.89475000  0.12643000  1.0 -0.2104661505
N  N33  1  0.85624000  0.57651000  0.64154000  1.0 -0.2004362875
N  N34  1  0.14376000  0.07651000  0.85846000  1.0 -0.2004362875
N  N35  1  0.14376000  0.42349000  0.35846000  1.0 -0.2004362875
N  N36  1  0.85624000  0.92349000  0.14154000  1.0 -0.2004362875
N  N37  1  0.79111000  0.68309000  0.59791000  1.0 0.0499489939
N  N38  1  0.20889000  0.18309000  0.90209000  1.0 0.0499489939
N  N39  1  0.20889000  0.31691000  0.40209000  1.0 0.0499489939
N  N40  1  0.79111000  0.81691000  0.09791000  1.0 0.0499489939
N  N41  1  0.71608000  0.74550000  0.57128000  1.0 -0.4619681157
N  N42  1  0.28392000  0.24550000  0.92872000  1.0 -0.4619681157
N  N43  1  0.28392000  0.25450000  0.42872000  1.0 -0.4619681157
N  N44  1  0.71608000  0.75450000  0.07128000  1.0 -0.4619681157
N  N45  1  0.37638000  0.60605000  0.65118000  1.0 -0.1897733987
N  N46  1  0.62362000  0.10605000  0.84882000  1.0 -0.1897733987
N  N47  1  0.62362000  0.39395000  0.34882000  1.0 -0.1897733987
N  N48  1  0.37638000  0.89395000  0.15118000  1.0 -0.1897733987
N  N49  1  0.64949000  0.41106000  0.68179000  1.0 -0.2004362875
N  N50  1  0.35051000  0.91106000  0.81821000  1.0 -0.2004362875
N  N51  1  0.35051000  0.58894000  0.31821000  1.0 -0.2004362875
N  N52  1  0.64949000  0.08894000  0.18179000  1.0 -0.2004362875
N  N53  1  0.16488000  0.43585000  0.68878000  1.0 -0.2004362875
N  N54  1  0.83512000  0.93585000  0.81122000  1.0 -0.2004362875
N  N55  1  0.83512000  0.56415000  0.31122000  1.0 -0.2004362875
N  N56  1  0.16488000  0.06415000  0.18878000  1.0 -0.2004362875
N  N57  1  0.05873000  0.40253000  0.70253000  1.0 -0.1897733987
N  N58  1  0.94127000  0.90253000  0.79747000  1.0 -0.1897733987
N  N59  1  0.94127000  0.59747000  0.29747000  1.0 -0.1897733987
N  N60  1  0.05873000  0.09747000  0.20253000  1.0 -0.1897733987
N  N61  1  0.22425000  0.31433000  0.72105000  1.0 0.0499489939
N  N62  1  0.77575000  0.81433000  0.77895000  1.0 0.0499489939
N  N63  1  0.77575000  0.68567000  0.27895000  1.0 0.0499489939
N  N64  1  0.22425000  0.18567000  0.22105000  1.0 0.0499489939
N  N65  1  0.29939000  0.24406000  0.74019000  1.0 -0.4530001909
N  N66  1  0.70061000  0.74406000  0.75981000  1.0 -0.4530001909
N  N67  1  0.70061000  0.75594000  0.25981000  1.0 -0.4530001909
N  N68  1  0.29939000  0.25594000  0.24019000  1.0 -0.4530001909
N  N69  1  0.86711000  0.16801000  0.78171000  1.0 -0.2004362875
N  N70  1  0.13289000  0.66801000  0.71829000  1.0 -0.2004362875
N  N71  1  0.13289000  0.83199000  0.21829000  1.0 -0.2004362875
N  N72  1  0.86711000  0.33199000  0.28171000  1.0 -0.2004362875
F  F1  1  0.40814000  0.01630000  0.34234000  1.0 -0.4294969607
F  F2  1  0.22613000  0.05530000  0.36483000  1.0 -0.439844358
F  F3  1  0.41394000  0.12791000  0.38504000  1.0 -0.4294969607
F  F4  1  0.23888000  0.18470000  0.33768000  1.0 -0.4294969607
F  F5  1  0.23187000  0.07070000  0.29477000  1.0 -0.4180867106
F  F6  1  0.41703000  0.14960000  0.31643000  1.0 -0.4180867106
F  F7  1  0.59186000  0.51630000  0.15766000  1.0 -0.4294969607
F  F8  1  0.77387000  0.55530000  0.13517000  1.0 -0.439844358
F  F9  1  0.58606000  0.62791000  0.11496000  1.0 -0.4294969607
F  F10  1  0.76112000  0.68470000  0.16232000  1.0 -0.4294969607
F  F11  1  0.76813000  0.57070000  0.20523000  1.0 -0.4180867106
F  F12  1  0.58297000  0.64960000  0.18357000  1.0 -0.4180867106
F  F13  1  0.59186000  0.98370000  0.65766000  1.0 -0.4294969607
F  F14  1  0.77387000  0.94470000  0.63517000  1.0 -0.439844358
F  F15  1  0.58606000  0.87209000  0.61496000  1.0 -0.4294969607
F  F16  1  0.76112000  0.81530000  0.66232000  1.0 -0.4294969607
F  F17  1  0.76813000  0.92930000  0.70523000  1.0 -0.4180867106
F  F18  1  0.58297000  0.85040000  0.68357000  1.0 -0.4180867106
F  F19  1  0.40814000  0.48370000  0.84234000  1.0 -0.4294969607
F  F20  1  0.22613000  0.44470000  0.86483000  1.0 -0.439844358
F  F21  1  0.41394000  0.37209000  0.88504000  1.0 -0.4294969607
F  F22  1  0.23888000  0.31530000  0.83768000  1.0 -0.4294969607
F  F23  1  0.23187000  0.42930000  0.79477000  1.0 -0.4180867106
F  F24  1  0.41703000  0.35040000  0.81643000  1.0 -0.4180867106
F  F25  1  0.18702000  0.37493000  0.16562000  1.0 -0.4294969607
F  F26  1  0.23398000  0.57712000  0.17328000  1.0 -0.4180867106
F  F27  1  0.27759000  0.47240000  0.12969000  1.0 -0.439844358
F  F28  1  0.35139000  0.46027000  0.20199000  1.0 -0.4294969607
F  F29  1  0.14398000  0.47950000  0.20948000  1.0 -0.4294969607
F  F30  1  0.06939000  0.49108000  0.13719000  1.0 -0.4294969607
F  F31  1  0.81298000  0.87493000  0.33438000  1.0 -0.4294969607
F  F32  1  0.76602000  0.07712000  0.32672000  1.0 -0.4180867106
F  F33  1  0.72241000  0.97240000  0.37031000  1.0 -0.439844358
F  F34  1  0.64861000  0.96027000  0.29801000  1.0 -0.4294969607
F  F35  1  0.85602000  0.97950000  0.29052000  1.0 -0.4294969607
F  F36  1  0.93061000  0.99108000  0.36281000  1.0 -0.4294969607
F  F37  1  0.81298000  0.62507000  0.83438000  1.0 -0.4294969607
F  F38  1  0.76602000  0.42288000  0.82672000  1.0 -0.4180867106
F  F39  1  0.72241000  0.52760000  0.87031000  1.0 -0.439844358
F  F40  1  0.64861000  0.53973000  0.79801000  1.0 -0.4294969607
F  F41  1  0.85602000  0.52050000  0.79052000  1.0 -0.4294969607
F  F42  1  0.93061000  0.50892000  0.86281000  1.0 -0.4294969607
F  F43  1  0.18702000  0.12507000  0.66562000  1.0 -0.4294969607
F  F44  1  0.23398000  0.92288000  0.67328000  1.0 -0.4180867106
F  F45  1  0.27759000  0.02760000  0.62969000  1.0 -0.439844358
F  F46  1  0.35139000  0.03973000  0.70199000  1.0 -0.4294969607
F  F47  1  0.14398000  0.02050000  0.70948000  1.0 -0.4294969607
F  F48  1  0.06939000  0.00892000  0.63719000  1.0 -0.4294969607
