# DDEC6 charges by PACMAN v1.1 (https://github.com/mtap-research/PACMAN-charge/)
data_QAQHOG_ASR_pacman
_symmetry_space_group_name_H-M   'P 1'
_cell_length_a   5.09960000
_cell_length_b   21.25950000
_cell_length_c   8.92090000
_cell_angle_alpha   90.00000000
_cell_angle_beta   90.23940000
_cell_angle_gamma   90.00000000
_symmetry_Int_Tables_number   1
_chemical_formula_structural   Ti3Ga(PO4)5
_chemical_formula_sum   'Ti6 Ga2 P10 O40'
_cell_volume   967.15045107
_cell_formula_units_Z   2
loop_
 _symmetry_equiv_pos_site_id
 _symmetry_equiv_pos_as_xyz
  1  'x, y, z'
loop_
 _atom_site_type_symbol
 _atom_site_label
 _atom_site_symmetry_multiplicity
 _atom_site_fract_x
 _atom_site_fract_y
 _atom_site_fract_z
 _atom_site_occupancy
 _atom_site_charge
Ti  Ti1  1  0.27219000  0.89960000  0.97804000  1.0 2.1416373017
Ti  Ti2  1  0.72781000  0.39960000  0.02196000  1.0 2.1416373017
Ti  Ti3  1  0.72781000  0.10040000  0.02196000  1.0 2.1416373017
Ti  Ti4  1  0.27219000  0.60040000  0.97804000  1.0 2.1416373017
Ti  Ti5  1  0.00000000  0.50000000  0.50000000  1.0 2.1037071707
Ti  Ti6  1  0.00000000  0.00000000  0.50000000  1.0 2.1037071707
Ga  Ga1  1  0.68470000  0.75000000  0.75608000  1.0 1.4812178376
Ga  Ga2  1  0.31530000  0.25000000  0.24392000  1.0 1.4812178376
P  P1  1  0.19730000  0.75000000  0.94419000  1.0 1.6015164616
P  P2  1  0.80270000  0.25000000  0.05581000  1.0 1.6015164616
P  P3  1  0.78677000  0.61422000  0.73457000  1.0 1.6387319329
P  P4  1  0.21323000  0.11422000  0.26543000  1.0 1.6387319329
P  P5  1  0.21323000  0.38578000  0.26543000  1.0 1.6387319329
P  P6  1  0.78677000  0.88578000  0.73457000  1.0 1.6387319329
P  P7  1  0.76027000  0.95386000  0.16009000  1.0 1.6281130078
P  P8  1  0.23973000  0.45386000  0.83991000  1.0 1.6281130078
P  P9  1  0.23973000  0.04614000  0.83991000  1.0 1.6281130078
P  P10  1  0.76027000  0.54614000  0.16009000  1.0 1.6281130078
O  O1  1  0.33240000  0.75000000  0.78910000  1.0 -0.7413864074
O  O2  1  0.66760000  0.25000000  0.21090000  1.0 -0.7413864074
O  O3  1  0.89740000  0.75000000  0.92140000  1.0 -0.7250927923
O  O4  1  0.10260000  0.25000000  0.07860000  1.0 -0.7250927923
O  O5  1  0.73620000  0.67730000  0.65100000  1.0 -0.7065977392
O  O6  1  0.26380000  0.17730000  0.34900000  1.0 -0.7065977392
O  O7  1  0.26380000  0.32270000  0.34900000  1.0 -0.7065977392
O  O8  1  0.73620000  0.82270000  0.65100000  1.0 -0.7065977392
O  O9  1  0.27960000  0.80930000  0.03070000  1.0 -0.7788186309
O  O10  1  0.72040000  0.30930000  0.96930000  1.0 -0.7788186309
O  O11  1  0.72040000  0.19070000  0.96930000  1.0 -0.7788186309
O  O12  1  0.27960000  0.69070000  0.03070000  1.0 -0.7788186309
O  O13  1  0.58260000  0.60757000  0.85840000  1.0 -0.8320850867
O  O14  1  0.41740000  0.10757000  0.14160000  1.0 -0.8320850867
O  O15  1  0.41740000  0.39243000  0.14160000  1.0 -0.8320850867
O  O16  1  0.58260000  0.89243000  0.85840000  1.0 -0.8320850867
O  O17  1  0.97510000  0.90860000  0.10630000  1.0 -0.8093376396
O  O18  1  0.02490000  0.40860000  0.89370000  1.0 -0.8093376396
O  O19  1  0.02490000  0.09140000  0.89370000  1.0 -0.8093376396
O  O20  1  0.97510000  0.59140000  0.10630000  1.0 -0.8093376396
O  O21  1  0.06160000  0.61708000  0.80410000  1.0 -0.8376659093
O  O22  1  0.93840000  0.11708000  0.19590000  1.0 -0.8376659093
O  O23  1  0.93840000  0.38292000  0.19590000  1.0 -0.8376659093
O  O24  1  0.06160000  0.88292000  0.80410000  1.0 -0.8376659093
O  O25  1  0.24910000  0.98760000  0.93820000  1.0 -0.8320850867
O  O26  1  0.75090000  0.48760000  0.06180000  1.0 -0.8320850867
O  O27  1  0.75090000  0.01240000  0.06180000  1.0 -0.8320850867
O  O28  1  0.24910000  0.51240000  0.93820000  1.0 -0.8320850867
O  O29  1  0.49410000  0.91914000  0.15570000  1.0 -0.7881498573
O  O30  1  0.50590000  0.41914000  0.84430000  1.0 -0.7881498573
O  O31  1  0.50590000  0.08086000  0.84430000  1.0 -0.7881498573
O  O32  1  0.49410000  0.58086000  0.15570000  1.0 -0.7881498573
O  O33  1  0.76530000  0.56115000  0.62010000  1.0 -0.8320850867
O  O34  1  0.23470000  0.06115000  0.37990000  1.0 -0.8320850867
O  O35  1  0.23470000  0.43885000  0.37990000  1.0 -0.8320850867
O  O36  1  0.76530000  0.93885000  0.62010000  1.0 -0.8320850867
O  O37  1  0.81510000  0.97050000  0.32400000  1.0 -0.8516383407
O  O38  1  0.18490000  0.47050000  0.67600000  1.0 -0.8516383407
O  O39  1  0.18490000  0.02950000  0.67600000  1.0 -0.8516383407
O  O40  1  0.81510000  0.52950000  0.32400000  1.0 -0.8516383407
