# DDEC6 charges by PACMAN v1.1 (https://github.com/mtap-research/PACMAN-charge/)
data_QAQMON_ASR_pacman
_symmetry_space_group_name_H-M   'P 1'
_cell_length_a   31.40650000
_cell_length_b   31.40650000
_cell_length_c   21.57320000
_cell_angle_alpha   90.00000000
_cell_angle_beta   90.00000000
_cell_angle_gamma   90.00000000
_symmetry_Int_Tables_number   1
_chemical_formula_structural   Cu3H22(C21O8)2
_chemical_formula_sum   'Cu24 H176 C336 O128'
_cell_volume   21279.11936371
_cell_formula_units_Z   8
loop_
 _symmetry_equiv_pos_site_id
 _symmetry_equiv_pos_as_xyz
  1  'x, y, z'
loop_
 _atom_site_type_symbol
 _atom_site_label
 _atom_site_symmetry_multiplicity
 _atom_site_fract_x
 _atom_site_fract_y
 _atom_site_fract_z
 _atom_site_occupancy
 _atom_site_charge
Cu  Cu1  1  0.24830000  0.71814000  0.04970000  1.0 0.8365419639
Cu  Cu2  1  0.75170000  0.28186000  0.04970000  1.0 0.8365419639
Cu  Cu3  1  0.71814000  0.75170000  0.04970000  1.0 0.8365419639
Cu  Cu4  1  0.28186000  0.24830000  0.04970000  1.0 0.8365419639
Cu  Cu5  1  0.24830000  0.28186000  0.95030000  1.0 0.8365419639
Cu  Cu6  1  0.75170000  0.71814000  0.95030000  1.0 0.8365419639
Cu  Cu7  1  0.71814000  0.24830000  0.95030000  1.0 0.8365419639
Cu  Cu8  1  0.28186000  0.75170000  0.95030000  1.0 0.8365419639
Cu  Cu9  1  0.25170000  0.78186000  0.45030000  1.0 0.8365419639
Cu  Cu10  1  0.74830000  0.21814000  0.45030000  1.0 0.8365419639
Cu  Cu11  1  0.78186000  0.74830000  0.45030000  1.0 0.8365419639
Cu  Cu12  1  0.21814000  0.25170000  0.45030000  1.0 0.8365419639
Cu  Cu13  1  0.25170000  0.21814000  0.54970000  1.0 0.8365419639
Cu  Cu14  1  0.74830000  0.78186000  0.54970000  1.0 0.8365419639
Cu  Cu15  1  0.78186000  0.25170000  0.54970000  1.0 0.8365419639
Cu  Cu16  1  0.21814000  0.74830000  0.54970000  1.0 0.8365419639
Cu  Cu17  1  0.00000000  0.00000000  0.17100000  1.0 0.8497578633
Cu  Cu18  1  0.00000000  0.00000000  0.82900000  1.0 0.8497578633
Cu  Cu19  1  0.50000000  0.50000000  0.32900000  1.0 0.8497578633
Cu  Cu20  1  0.50000000  0.50000000  0.67100000  1.0 0.8497578633
Cu  Cu21  1  0.00000000  0.00000000  0.29309000  1.0 0.8497578633
Cu  Cu22  1  0.00000000  0.00000000  0.70691000  1.0 0.8497578633
Cu  Cu23  1  0.50000000  0.50000000  0.20691000  1.0 0.8497578633
Cu  Cu24  1  0.50000000  0.50000000  0.79309000  1.0 0.8497578633
H  H1  1  0.13442000  0.00536000  0.32451000  1.0 0.1583958071
H  H2  1  0.86558000  0.99464000  0.32451000  1.0 0.1583958071
H  H3  1  0.00536000  0.86558000  0.32451000  1.0 0.1583958071
H  H4  1  0.99464000  0.13442000  0.32451000  1.0 0.1583958071
H  H5  1  0.13442000  0.99464000  0.67549000  1.0 0.1583958071
H  H6  1  0.86558000  0.00536000  0.67549000  1.0 0.1583958071
H  H7  1  0.00536000  0.13442000  0.67549000  1.0 0.1583958071
H  H8  1  0.99464000  0.86558000  0.67549000  1.0 0.1583958071
H  H9  1  0.36558000  0.49464000  0.17549000  1.0 0.1583958071
H  H10  1  0.63442000  0.50536000  0.17549000  1.0 0.1583958071
H  H11  1  0.49464000  0.63442000  0.17549000  1.0 0.1583958071
H  H12  1  0.50536000  0.36558000  0.17549000  1.0 0.1583958071
H  H13  1  0.36558000  0.50536000  0.82451000  1.0 0.1583958071
H  H14  1  0.63442000  0.49464000  0.82451000  1.0 0.1583958071
H  H15  1  0.49464000  0.36558000  0.82451000  1.0 0.1583958071
H  H16  1  0.50536000  0.63442000  0.82451000  1.0 0.1583958071
H  H17  1  0.21024000  0.83220000  0.13794000  1.0 0.1312415523
H  H18  1  0.78976000  0.16780000  0.13794000  1.0 0.1312415523
H  H19  1  0.83220000  0.78976000  0.13794000  1.0 0.1312415523
H  H20  1  0.16780000  0.21024000  0.13794000  1.0 0.1312415523
H  H21  1  0.21024000  0.16780000  0.86206000  1.0 0.1312415523
H  H22  1  0.78976000  0.83220000  0.86206000  1.0 0.1312415523
H  H23  1  0.83220000  0.21024000  0.86206000  1.0 0.1312415523
H  H24  1  0.16780000  0.78976000  0.86206000  1.0 0.1312415523
H  H25  1  0.28976000  0.66780000  0.36206000  1.0 0.1312415523
H  H26  1  0.71024000  0.33220000  0.36206000  1.0 0.1312415523
H  H27  1  0.66780000  0.71024000  0.36206000  1.0 0.1312415523
H  H28  1  0.33220000  0.28976000  0.36206000  1.0 0.1312415523
H  H29  1  0.28976000  0.33220000  0.63794000  1.0 0.1312415523
H  H30  1  0.71024000  0.66780000  0.63794000  1.0 0.1312415523
H  H31  1  0.66780000  0.28976000  0.63794000  1.0 0.1312415523
H  H32  1  0.33220000  0.71024000  0.63794000  1.0 0.1312415523
H  H33  1  0.20399000  0.14044000  0.34347000  1.0 0.1312415523
H  H34  1  0.79601000  0.85956000  0.34347000  1.0 0.1312415523
H  H35  1  0.14044000  0.79601000  0.34347000  1.0 0.1312415523
H  H36  1  0.85956000  0.20399000  0.34347000  1.0 0.1312415523
H  H37  1  0.20399000  0.85956000  0.65653000  1.0 0.1312415523
H  H38  1  0.79601000  0.14044000  0.65653000  1.0 0.1312415523
H  H39  1  0.14044000  0.20399000  0.65653000  1.0 0.1312415523
H  H40  1  0.85956000  0.79601000  0.65653000  1.0 0.1312415523
H  H41  1  0.29601000  0.35956000  0.15653000  1.0 0.1312415523
H  H42  1  0.70399000  0.64044000  0.15653000  1.0 0.1312415523
H  H43  1  0.35956000  0.70399000  0.15653000  1.0 0.1312415523
H  H44  1  0.64044000  0.29601000  0.15653000  1.0 0.1312415523
H  H45  1  0.29601000  0.64044000  0.84347000  1.0 0.1312415523
H  H46  1  0.70399000  0.35956000  0.84347000  1.0 0.1312415523
H  H47  1  0.35956000  0.29601000  0.84347000  1.0 0.1312415523
H  H48  1  0.64044000  0.70399000  0.84347000  1.0 0.1312415523
H  H49  1  0.13499000  0.98069000  0.13942000  1.0 0.1463746811
H  H50  1  0.86501000  0.01931000  0.13942000  1.0 0.1463746811
H  H51  1  0.98069000  0.86501000  0.13942000  1.0 0.1463746811
H  H52  1  0.01931000  0.13499000  0.13942000  1.0 0.1463746811
H  H53  1  0.13499000  0.01931000  0.86058000  1.0 0.1463746811
H  H54  1  0.86501000  0.98069000  0.86058000  1.0 0.1463746811
H  H55  1  0.98069000  0.13499000  0.86058000  1.0 0.1463746811
H  H56  1  0.01931000  0.86501000  0.86058000  1.0 0.1463746811
H  H57  1  0.36501000  0.51931000  0.36058000  1.0 0.1463746811
H  H58  1  0.63499000  0.48069000  0.36058000  1.0 0.1463746811
H  H59  1  0.51931000  0.63499000  0.36058000  1.0 0.1463746811
H  H60  1  0.48069000  0.36501000  0.36058000  1.0 0.1463746811
H  H61  1  0.36501000  0.48069000  0.63942000  1.0 0.1463746811
H  H62  1  0.63499000  0.51931000  0.63942000  1.0 0.1463746811
H  H63  1  0.51931000  0.36501000  0.63942000  1.0 0.1463746811
H  H64  1  0.48069000  0.63499000  0.63942000  1.0 0.1463746811
H  H65  1  0.27580000  0.88427000  0.00019000  1.0 0.1312415523
H  H66  1  0.72420000  0.11573000  0.00019000  1.0 0.1312415523
H  H67  1  0.88427000  0.72420000  0.00019000  1.0 0.1312415523
H  H68  1  0.11573000  0.27580000  0.00019000  1.0 0.1312415523
H  H69  1  0.27580000  0.11573000  0.99981000  1.0 0.1312415523
H  H70  1  0.72420000  0.88427000  0.99981000  1.0 0.1312415523
H  H71  1  0.88427000  0.27580000  0.99981000  1.0 0.1312415523
H  H72  1  0.11573000  0.72420000  0.99981000  1.0 0.1312415523
H  H73  1  0.22420000  0.61573000  0.49981000  1.0 0.1312415523
H  H74  1  0.77580000  0.38427000  0.49981000  1.0 0.1312415523
H  H75  1  0.61573000  0.77580000  0.49981000  1.0 0.1312415523
H  H76  1  0.38427000  0.22420000  0.49981000  1.0 0.1312415523
H  H77  1  0.22420000  0.38427000  0.50019000  1.0 0.1312415523
H  H78  1  0.77580000  0.61573000  0.50019000  1.0 0.1312415523
H  H79  1  0.61573000  0.22420000  0.50019000  1.0 0.1312415523
H  H80  1  0.38427000  0.77580000  0.50019000  1.0 0.1312415523
H  H81  1  0.19733000  0.07588000  0.29424000  1.0 0.1312415523
H  H82  1  0.80267000  0.92412000  0.29424000  1.0 0.138746321
H  H83  1  0.07588000  0.80267000  0.29424000  1.0 0.138746321
H  H84  1  0.92412000  0.19733000  0.29424000  1.0 0.1312415523
H  H85  1  0.19733000  0.92412000  0.70576000  1.0 0.1312415523
H  H86  1  0.80267000  0.07588000  0.70576000  1.0 0.1312415523
H  H87  1  0.07588000  0.19733000  0.70576000  1.0 0.1312415523
H  H88  1  0.92412000  0.80267000  0.70576000  1.0 0.1312415523
H  H89  1  0.30267000  0.42412000  0.20576000  1.0 0.1312415523
H  H90  1  0.69733000  0.57588000  0.20576000  1.0 0.1312415523
H  H91  1  0.42412000  0.69733000  0.20576000  1.0 0.1312415523
H  H92  1  0.57588000  0.30267000  0.20576000  1.0 0.1312415523
H  H93  1  0.30267000  0.57588000  0.79424000  1.0 0.1312415523
H  H94  1  0.69733000  0.42412000  0.79424000  1.0 0.138746321
H  H95  1  0.42412000  0.30267000  0.79424000  1.0 0.1312415523
H  H96  1  0.57588000  0.69733000  0.79424000  1.0 0.138746321
H  H97  1  0.24425000  0.98488000  0.23089000  1.0 0.1583958071
H  H98  1  0.75575000  0.01512000  0.23089000  1.0 0.1583958071
H  H99  1  0.98488000  0.75575000  0.23089000  1.0 0.1583958071
H  H100  1  0.01512000  0.24425000  0.23089000  1.0 0.1583958071
H  H101  1  0.24425000  0.01512000  0.76911000  1.0 0.1583958071
H  H102  1  0.75575000  0.98488000  0.76911000  1.0 0.1583958071
H  H103  1  0.98488000  0.24425000  0.76911000  1.0 0.1583958071
H  H104  1  0.01512000  0.75575000  0.76911000  1.0 0.1583958071
H  H105  1  0.25575000  0.51512000  0.26911000  1.0 0.1657607017
H  H106  1  0.74425000  0.48488000  0.26911000  1.0 0.1657607017
H  H107  1  0.51512000  0.74425000  0.26911000  1.0 0.1657607017
H  H108  1  0.48488000  0.25575000  0.26911000  1.0 0.1657607017
H  H109  1  0.25575000  0.48488000  0.73089000  1.0 0.1657607017
H  H110  1  0.74425000  0.51512000  0.73089000  1.0 0.1657607017
H  H111  1  0.51512000  0.25575000  0.73089000  1.0 0.1657607017
H  H112  1  0.48488000  0.74425000  0.73089000  1.0 0.1657607017
H  H113  1  0.26235000  0.95396000  0.03782000  1.0 0.138746321
H  H114  1  0.73765000  0.04604000  0.03782000  1.0 0.138746321
H  H115  1  0.95396000  0.73765000  0.03782000  1.0 0.138746321
H  H116  1  0.04604000  0.26235000  0.03782000  1.0 0.138746321
H  H117  1  0.26235000  0.04604000  0.96218000  1.0 0.138746321
H  H118  1  0.73765000  0.95396000  0.96218000  1.0 0.138746321
H  H119  1  0.95396000  0.26235000  0.96218000  1.0 0.138746321
H  H120  1  0.04604000  0.73765000  0.96218000  1.0 0.138746321
H  H121  1  0.23765000  0.54604000  0.46218000  1.0 0.138746321
H  H122  1  0.76235000  0.45396000  0.46218000  1.0 0.138746321
H  H123  1  0.54604000  0.76235000  0.46218000  1.0 0.138746321
H  H124  1  0.45396000  0.23765000  0.46218000  1.0 0.138746321
H  H125  1  0.23765000  0.45396000  0.53782000  1.0 0.138746321
H  H126  1  0.76235000  0.54604000  0.53782000  1.0 0.138746321
H  H127  1  0.54604000  0.23765000  0.53782000  1.0 0.138746321
H  H128  1  0.45396000  0.76235000  0.53782000  1.0 0.138746321
H  H129  1  0.24358000  0.08569000  0.49706000  1.0 0.1312415523
H  H130  1  0.75642000  0.91431000  0.49706000  1.0 0.1312415523
H  H131  1  0.08569000  0.75642000  0.49706000  1.0 0.1312415523
H  H132  1  0.91431000  0.24358000  0.49706000  1.0 0.1312415523
H  H133  1  0.24358000  0.91431000  0.50294000  1.0 0.1312415523
H  H134  1  0.75642000  0.08569000  0.50294000  1.0 0.1312415523
H  H135  1  0.08569000  0.24358000  0.50294000  1.0 0.1312415523
H  H136  1  0.91431000  0.75642000  0.50294000  1.0 0.1312415523
H  H137  1  0.25642000  0.41431000  0.00294000  1.0 0.1312415523
H  H138  1  0.74358000  0.58569000  0.00294000  1.0 0.1312415523
H  H139  1  0.41431000  0.74358000  0.00294000  1.0 0.1312415523
H  H140  1  0.58569000  0.25642000  0.00294000  1.0 0.1312415523
H  H141  1  0.25642000  0.58569000  0.99706000  1.0 0.1312415523
H  H142  1  0.74358000  0.41431000  0.99706000  1.0 0.1312415523
H  H143  1  0.41431000  0.25642000  0.99706000  1.0 0.1312415523
H  H144  1  0.58569000  0.74358000  0.99706000  1.0 0.1312415523
H  H145  1  0.19654000  0.89828000  0.17972000  1.0 0.138746321
H  H146  1  0.80346000  0.10172000  0.17972000  1.0 0.138746321
H  H147  1  0.89828000  0.80346000  0.17972000  1.0 0.138746321
H  H148  1  0.10172000  0.19654000  0.17972000  1.0 0.138746321
H  H149  1  0.19654000  0.10172000  0.82028000  1.0 0.138746321
H  H150  1  0.80346000  0.89828000  0.82028000  1.0 0.138746321
H  H151  1  0.89828000  0.19654000  0.82028000  1.0 0.138746321
H  H152  1  0.10172000  0.80346000  0.82028000  1.0 0.138746321
H  H153  1  0.30346000  0.60172000  0.32028000  1.0 0.1312415523
H  H154  1  0.69654000  0.39828000  0.32028000  1.0 0.1312415523
H  H155  1  0.60172000  0.69654000  0.32028000  1.0 0.1312415523
H  H156  1  0.39828000  0.30346000  0.32028000  1.0 0.1312415523
H  H157  1  0.30346000  0.39828000  0.67972000  1.0 0.138746321
H  H158  1  0.69654000  0.60172000  0.67972000  1.0 0.138746321
H  H159  1  0.60172000  0.30346000  0.67972000  1.0 0.138746321
H  H160  1  0.39828000  0.69654000  0.67972000  1.0 0.138746321
H  H161  1  0.24073000  0.01658000  0.44679000  1.0 0.1312415523
H  H162  1  0.75927000  0.98342000  0.44679000  1.0 0.1312415523
H  H163  1  0.01658000  0.75927000  0.44679000  1.0 0.1312415523
H  H164  1  0.98342000  0.24073000  0.44679000  1.0 0.1312415523
H  H165  1  0.24073000  0.98342000  0.55321000  1.0 0.1312415523
H  H166  1  0.75927000  0.01658000  0.55321000  1.0 0.1312415523
H  H167  1  0.01658000  0.24073000  0.55321000  1.0 0.1312415523
H  H168  1  0.98342000  0.75927000  0.55321000  1.0 0.1312415523
H  H169  1  0.25927000  0.48342000  0.05321000  1.0 0.138746321
H  H170  1  0.74073000  0.51658000  0.05321000  1.0 0.138746321
H  H171  1  0.48342000  0.74073000  0.05321000  1.0 0.138746321
H  H172  1  0.51658000  0.25927000  0.05321000  1.0 0.138746321
H  H173  1  0.25927000  0.51658000  0.94679000  1.0 0.138746321
H  H174  1  0.74073000  0.48342000  0.94679000  1.0 0.138746321
H  H175  1  0.48342000  0.25927000  0.94679000  1.0 0.138746321
H  H176  1  0.51658000  0.74073000  0.94679000  1.0 0.138746321
C  C1  1  0.22460000  0.11940000  0.42410000  1.0 -0.0601016982
C  C2  1  0.77540000  0.88060000  0.42410000  1.0 -0.0601016982
C  C3  1  0.11940000  0.77540000  0.42410000  1.0 -0.0601016982
C  C4  1  0.88060000  0.22460000  0.42410000  1.0 -0.0601016982
C  C5  1  0.22460000  0.88060000  0.57590000  1.0 -0.0601016982
C  C6  1  0.77540000  0.11940000  0.57590000  1.0 -0.0601016982
C  C7  1  0.11940000  0.22460000  0.57590000  1.0 -0.0601016982
C  C8  1  0.88060000  0.77540000  0.57590000  1.0 -0.0601016982
C  C9  1  0.27540000  0.38060000  0.07590000  1.0 -0.0601016982
C  C10  1  0.72460000  0.61940000  0.07590000  1.0 -0.0601016982
C  C11  1  0.38060000  0.72460000  0.07590000  1.0 -0.0601016982
C  C12  1  0.61940000  0.27540000  0.07590000  1.0 -0.0601016982
C  C13  1  0.27540000  0.61940000  0.92410000  1.0 -0.0601016982
C  C14  1  0.72460000  0.38060000  0.92410000  1.0 -0.0601016982
C  C15  1  0.38060000  0.27540000  0.92410000  1.0 -0.0601016982
C  C16  1  0.61940000  0.72460000  0.92410000  1.0 -0.0601016982
C  C17  1  0.24560000  0.85290000  0.06660000  1.0 -0.0394824141
C  C18  1  0.75440000  0.14710000  0.06660000  1.0 -0.0394824141
C  C19  1  0.85290000  0.75440000  0.06660000  1.0 -0.0394824141
C  C20  1  0.14710000  0.24560000  0.06660000  1.0 -0.0394824141
C  C21  1  0.24560000  0.14710000  0.93340000  1.0 -0.0394824141
C  C22  1  0.75440000  0.85290000  0.93340000  1.0 -0.0394824141
C  C23  1  0.85290000  0.24560000  0.93340000  1.0 -0.0394824141
C  C24  1  0.14710000  0.75440000  0.93340000  1.0 -0.0394824141
C  C25  1  0.25440000  0.64710000  0.43340000  1.0 -0.0394824141
C  C26  1  0.74560000  0.35290000  0.43340000  1.0 -0.0394824141
C  C27  1  0.64710000  0.74560000  0.43340000  1.0 -0.0394824141
C  C28  1  0.35290000  0.25440000  0.43340000  1.0 -0.0394824141
C  C29  1  0.25440000  0.35290000  0.56660000  1.0 -0.0394824141
C  C30  1  0.74560000  0.64710000  0.56660000  1.0 -0.0394824141
C  C31  1  0.64710000  0.25440000  0.56660000  1.0 -0.0394824141
C  C32  1  0.35290000  0.74560000  0.56660000  1.0 -0.0394824141
C  C33  1  0.12760000  0.99230000  0.23270000  1.0 0.0165949151
C  C34  1  0.87240000  0.00770000  0.23270000  1.0 0.0165949151
C  C35  1  0.99230000  0.87240000  0.23270000  1.0 0.0165949151
C  C36  1  0.00770000  0.12760000  0.23270000  1.0 0.0165949151
C  C37  1  0.12760000  0.00770000  0.76730000  1.0 0.0165949151
C  C38  1  0.87240000  0.99230000  0.76730000  1.0 0.0165949151
C  C39  1  0.99230000  0.12760000  0.76730000  1.0 0.0165949151
C  C40  1  0.00770000  0.87240000  0.76730000  1.0 0.0165949151
C  C41  1  0.37240000  0.50770000  0.26730000  1.0 0.0165949151
C  C42  1  0.62760000  0.49230000  0.26730000  1.0 0.0165949151
C  C43  1  0.50770000  0.62760000  0.26730000  1.0 0.0165949151
C  C44  1  0.49230000  0.37240000  0.26730000  1.0 0.0165949151
C  C45  1  0.37240000  0.49230000  0.73270000  1.0 0.0165949151
C  C46  1  0.62760000  0.50770000  0.73270000  1.0 0.0165949151
C  C47  1  0.50770000  0.37240000  0.73270000  1.0 0.0165949151
C  C48  1  0.49230000  0.62760000  0.73270000  1.0 0.0165949151
C  C49  1  0.22920000  0.16140000  0.45420000  1.0 0.5710799739
C  C50  1  0.77080000  0.83860000  0.45420000  1.0 0.5710799739
C  C51  1  0.16140000  0.77080000  0.45420000  1.0 0.5710799739
C  C52  1  0.83860000  0.22920000  0.45420000  1.0 0.5710799739
C  C53  1  0.22920000  0.83860000  0.54580000  1.0 0.5710799739
C  C54  1  0.77080000  0.16140000  0.54580000  1.0 0.5710799739
C  C55  1  0.16140000  0.22920000  0.54580000  1.0 0.5710799739
C  C56  1  0.83860000  0.77080000  0.54580000  1.0 0.5710799739
C  C57  1  0.27080000  0.33860000  0.04580000  1.0 0.5710799739
C  C58  1  0.72920000  0.66140000  0.04580000  1.0 0.5710799739
C  C59  1  0.33860000  0.72920000  0.04580000  1.0 0.5710799739
C  C60  1  0.66140000  0.27080000  0.04580000  1.0 0.5710799739
C  C61  1  0.27080000  0.66140000  0.95420000  1.0 0.5710799739
C  C62  1  0.72920000  0.33860000  0.95420000  1.0 0.5710799739
C  C63  1  0.33860000  0.27080000  0.95420000  1.0 0.5710799739
C  C64  1  0.66140000  0.72920000  0.95420000  1.0 0.5710799739
C  C65  1  0.25590000  0.80730000  0.04330000  1.0 0.5710799739
C  C66  1  0.74410000  0.19270000  0.04330000  1.0 0.5710799739
C  C67  1  0.80730000  0.74410000  0.04330000  1.0 0.5710799739
C  C68  1  0.19270000  0.25590000  0.04330000  1.0 0.5710799739
C  C69  1  0.25590000  0.19270000  0.95670000  1.0 0.5710799739
C  C70  1  0.74410000  0.80730000  0.95670000  1.0 0.5710799739
C  C71  1  0.80730000  0.25590000  0.95670000  1.0 0.5710799739
C  C72  1  0.19270000  0.74410000  0.95670000  1.0 0.5710799739
C  C73  1  0.24410000  0.69270000  0.45670000  1.0 0.5710799739
C  C74  1  0.75590000  0.30730000  0.45670000  1.0 0.5710799739
C  C75  1  0.69270000  0.75590000  0.45670000  1.0 0.5710799739
C  C76  1  0.30730000  0.24410000  0.45670000  1.0 0.5710799739
C  C77  1  0.24410000  0.30730000  0.54330000  1.0 0.5710799739
C  C78  1  0.75590000  0.69270000  0.54330000  1.0 0.5710799739
C  C79  1  0.69270000  0.24410000  0.54330000  1.0 0.5710799739
C  C80  1  0.30730000  0.75590000  0.54330000  1.0 0.5710799739
C  C81  1  0.14900000  0.99900000  0.28810000  1.0 -0.2397219773
C  C82  1  0.85100000  0.00100000  0.28810000  1.0 -0.2397219773
C  C83  1  0.99900000  0.85100000  0.28810000  1.0 -0.2397219773
C  C84  1  0.00100000  0.14900000  0.28810000  1.0 -0.2397219773
C  C85  1  0.14900000  0.00100000  0.71190000  1.0 -0.2397219773
C  C86  1  0.85100000  0.99900000  0.71190000  1.0 -0.2397219773
C  C87  1  0.99900000  0.14900000  0.71190000  1.0 -0.2397219773
C  C88  1  0.00100000  0.85100000  0.71190000  1.0 -0.2397219773
C  C89  1  0.35100000  0.50100000  0.21190000  1.0 -0.2397219773
C  C90  1  0.64900000  0.49900000  0.21190000  1.0 -0.2397219773
C  C91  1  0.50100000  0.64900000  0.21190000  1.0 -0.2397219773
C  C92  1  0.49900000  0.35100000  0.21190000  1.0 -0.2397219773
C  C93  1  0.35100000  0.49900000  0.78810000  1.0 -0.2397219773
C  C94  1  0.64900000  0.50100000  0.78810000  1.0 -0.2397219773
C  C95  1  0.50100000  0.35100000  0.78810000  1.0 -0.2397219773
C  C96  1  0.49900000  0.64900000  0.78810000  1.0 -0.2397219773
C  C97  1  0.07980000  0.99650000  0.23240000  1.0 0.5710799739
C  C98  1  0.92020000  0.00350000  0.23240000  1.0 0.5710799739
C  C99  1  0.99650000  0.92020000  0.23240000  1.0 0.5710799739
C  C100  1  0.00350000  0.07980000  0.23240000  1.0 0.5710799739
C  C101  1  0.07980000  0.00350000  0.76760000  1.0 0.5710799739
C  C102  1  0.92020000  0.99650000  0.76760000  1.0 0.5710799739
C  C103  1  0.99650000  0.07980000  0.76760000  1.0 0.5710799739
C  C104  1  0.00350000  0.92020000  0.76760000  1.0 0.5710799739
C  C105  1  0.42020000  0.50350000  0.26760000  1.0 0.5710799739
C  C106  1  0.57980000  0.49650000  0.26760000  1.0 0.5710799739
C  C107  1  0.50350000  0.57980000  0.26760000  1.0 0.5710799739
C  C108  1  0.49650000  0.42020000  0.26760000  1.0 0.5710799739
C  C109  1  0.42020000  0.49650000  0.73240000  1.0 0.5710799739
C  C110  1  0.57980000  0.50350000  0.73240000  1.0 0.5710799739
C  C111  1  0.50350000  0.42020000  0.73240000  1.0 0.5710799739
C  C112  1  0.49650000  0.57980000  0.73240000  1.0 0.5710799739
C  C113  1  0.22070000  0.85660000  0.11880000  1.0 -0.0767020874
C  C114  1  0.77930000  0.14340000  0.11880000  1.0 -0.0767020874
C  C115  1  0.85660000  0.77930000  0.11880000  1.0 -0.0767020874
C  C116  1  0.14340000  0.22070000  0.11880000  1.0 -0.0767020874
C  C117  1  0.22070000  0.14340000  0.88120000  1.0 -0.0767020874
C  C118  1  0.77930000  0.85660000  0.88120000  1.0 -0.0767020874
C  C119  1  0.85660000  0.22070000  0.88120000  1.0 -0.0767020874
C  C120  1  0.14340000  0.77930000  0.88120000  1.0 -0.0767020874
C  C121  1  0.27930000  0.64340000  0.38120000  1.0 -0.0767020874
C  C122  1  0.72070000  0.35660000  0.38120000  1.0 -0.0767020874
C  C123  1  0.64340000  0.72070000  0.38120000  1.0 -0.0767020874
C  C124  1  0.35660000  0.27930000  0.38120000  1.0 -0.0767020874
C  C125  1  0.27930000  0.35660000  0.61880000  1.0 -0.0767020874
C  C126  1  0.72070000  0.64340000  0.61880000  1.0 -0.0767020874
C  C127  1  0.64340000  0.27930000  0.61880000  1.0 -0.0767020874
C  C128  1  0.35660000  0.72070000  0.61880000  1.0 -0.0767020874
C  C129  1  0.21840000  0.03990000  0.36720000  1.0 0.2586565634
C  C130  1  0.78160000  0.96010000  0.36720000  1.0 0.2586565634
C  C131  1  0.03990000  0.78160000  0.36720000  1.0 0.2586565634
C  C132  1  0.96010000  0.21840000  0.36720000  1.0 0.2586565634
C  C133  1  0.21840000  0.96010000  0.63280000  1.0 0.2586565634
C  C134  1  0.78160000  0.03990000  0.63280000  1.0 0.2586565634
C  C135  1  0.03990000  0.21840000  0.63280000  1.0 0.2586565634
C  C136  1  0.96010000  0.78160000  0.63280000  1.0 0.2586565634
C  C137  1  0.28160000  0.46010000  0.13280000  1.0 0.2586565634
C  C138  1  0.71840000  0.53990000  0.13280000  1.0 0.2586565634
C  C139  1  0.46010000  0.71840000  0.13280000  1.0 0.2586565634
C  C140  1  0.53990000  0.28160000  0.13280000  1.0 0.2586565634
C  C141  1  0.28160000  0.53990000  0.86720000  1.0 0.2586565634
C  C142  1  0.71840000  0.46010000  0.86720000  1.0 0.2586565634
C  C143  1  0.46010000  0.28160000  0.86720000  1.0 0.2586565634
C  C144  1  0.53990000  0.71840000  0.86720000  1.0 0.2586565634
C  C145  1  0.19030000  0.98070000  0.18050000  1.0 0.2054675875
C  C146  1  0.80970000  0.01930000  0.18050000  1.0 0.2054675875
C  C147  1  0.98070000  0.80970000  0.18050000  1.0 0.2054675875
C  C148  1  0.01930000  0.19030000  0.18050000  1.0 0.2046281156
C  C149  1  0.19030000  0.01930000  0.81950000  1.0 0.2054675875
C  C150  1  0.80970000  0.98070000  0.81950000  1.0 0.2054675875
C  C151  1  0.98070000  0.19030000  0.81950000  1.0 0.2054675875
C  C152  1  0.01930000  0.80970000  0.81950000  1.0 0.2054675875
C  C153  1  0.30970000  0.51930000  0.31950000  1.0 0.2046281156
C  C154  1  0.69030000  0.48070000  0.31950000  1.0 0.2046281156
C  C155  1  0.51930000  0.69030000  0.31950000  1.0 0.2046281156
C  C156  1  0.48070000  0.30970000  0.31950000  1.0 0.2046281156
C  C157  1  0.30970000  0.48070000  0.68050000  1.0 0.2046281156
C  C158  1  0.69030000  0.51930000  0.68050000  1.0 0.2046281156
C  C159  1  0.51930000  0.30970000  0.68050000  1.0 0.2046281156
C  C160  1  0.48070000  0.69030000  0.68050000  1.0 0.2046281156
C  C161  1  0.19310000  0.99590000  0.28690000  1.0 0.2586565634
C  C162  1  0.80690000  0.00410000  0.28690000  1.0 0.2586565634
C  C163  1  0.99590000  0.80690000  0.28690000  1.0 0.2586565634
C  C164  1  0.00410000  0.19310000  0.28690000  1.0 0.2586565634
C  C165  1  0.19310000  0.00410000  0.71310000  1.0 0.2586565634
C  C166  1  0.80690000  0.99590000  0.71310000  1.0 0.2586565634
C  C167  1  0.99590000  0.19310000  0.71310000  1.0 0.2586565634
C  C168  1  0.00410000  0.80690000  0.71310000  1.0 0.2586565634
C  C169  1  0.30690000  0.50410000  0.21310000  1.0 0.2586565634
C  C170  1  0.69310000  0.49590000  0.21310000  1.0 0.2586565634
C  C171  1  0.50410000  0.69310000  0.21310000  1.0 0.2586565634
C  C172  1  0.49590000  0.30690000  0.21310000  1.0 0.2586565634
C  C173  1  0.30690000  0.49590000  0.78690000  1.0 0.2586565634
C  C174  1  0.69310000  0.50410000  0.78690000  1.0 0.2586565634
C  C175  1  0.50410000  0.30690000  0.78690000  1.0 0.2586565634
C  C176  1  0.49590000  0.69310000  0.78690000  1.0 0.2586565634
C  C177  1  0.21100000  0.11580000  0.36500000  1.0 -0.0700841385
C  C178  1  0.78900000  0.88420000  0.36500000  1.0 -0.0700841385
C  C179  1  0.11580000  0.78900000  0.36500000  1.0 -0.0700841385
C  C180  1  0.88420000  0.21100000  0.36500000  1.0 -0.0700841385
C  C181  1  0.21100000  0.88420000  0.63500000  1.0 -0.0700841385
C  C182  1  0.78900000  0.11580000  0.63500000  1.0 -0.0700841385
C  C183  1  0.11580000  0.21100000  0.63500000  1.0 -0.0700841385
C  C184  1  0.88420000  0.78900000  0.63500000  1.0 -0.0700841385
C  C185  1  0.28900000  0.38420000  0.13500000  1.0 -0.0700841385
C  C186  1  0.71100000  0.61580000  0.13500000  1.0 -0.0700841385
C  C187  1  0.38420000  0.71100000  0.13500000  1.0 -0.0700841385
C  C188  1  0.61580000  0.28900000  0.13500000  1.0 -0.0700841385
C  C189  1  0.28900000  0.61580000  0.86500000  1.0 -0.0601016982
C  C190  1  0.71100000  0.38420000  0.86500000  1.0 -0.0601016982
C  C191  1  0.38420000  0.28900000  0.86500000  1.0 -0.0601016982
C  C192  1  0.61580000  0.71100000  0.86500000  1.0 -0.0601016982
C  C193  1  0.14930000  0.98380000  0.17680000  1.0 -0.2016157385
C  C194  1  0.85070000  0.01620000  0.17680000  1.0 -0.2016157385
C  C195  1  0.98380000  0.85070000  0.17680000  1.0 -0.2016157385
C  C196  1  0.01620000  0.14930000  0.17680000  1.0 -0.2016157385
C  C197  1  0.14930000  0.01620000  0.82320000  1.0 -0.2016157385
C  C198  1  0.85070000  0.98380000  0.82320000  1.0 -0.2016157385
C  C199  1  0.98380000  0.14930000  0.82320000  1.0 -0.2016157385
C  C200  1  0.01620000  0.85070000  0.82320000  1.0 -0.2016157385
C  C201  1  0.35070000  0.51620000  0.32320000  1.0 -0.2016157385
C  C202  1  0.64930000  0.48380000  0.32320000  1.0 -0.2016157385
C  C203  1  0.51620000  0.64930000  0.32320000  1.0 -0.2016157385
C  C204  1  0.48380000  0.35070000  0.32320000  1.0 -0.2016157385
C  C205  1  0.35070000  0.48380000  0.67680000  1.0 -0.2016157385
C  C206  1  0.64930000  0.51620000  0.67680000  1.0 -0.2016157385
C  C207  1  0.51620000  0.35070000  0.67680000  1.0 -0.2016157385
C  C208  1  0.48380000  0.64930000  0.67680000  1.0 -0.2016157385
C  C209  1  0.22450000  0.93040000  0.11050000  1.0 0.2586565634
C  C210  1  0.77550000  0.06960000  0.11050000  1.0 0.2586565634
C  C211  1  0.93040000  0.77550000  0.11050000  1.0 0.2586565634
C  C212  1  0.06960000  0.22450000  0.11050000  1.0 0.2586565634
C  C213  1  0.22450000  0.06960000  0.88950000  1.0 0.2586565634
C  C214  1  0.77550000  0.93040000  0.88950000  1.0 0.2586565634
C  C215  1  0.93040000  0.22450000  0.88950000  1.0 0.2586565634
C  C216  1  0.06960000  0.77550000  0.88950000  1.0 0.2586565634
C  C217  1  0.27550000  0.56960000  0.38950000  1.0 0.2586565634
C  C218  1  0.72450000  0.43040000  0.38950000  1.0 0.2586565634
C  C219  1  0.56960000  0.72450000  0.38950000  1.0 0.2586565634
C  C220  1  0.43040000  0.27550000  0.38950000  1.0 0.2586565634
C  C221  1  0.27550000  0.43040000  0.61050000  1.0 0.2586565634
C  C222  1  0.72450000  0.56960000  0.61050000  1.0 0.2586565634
C  C223  1  0.56960000  0.27550000  0.61050000  1.0 0.2586565634
C  C224  1  0.43040000  0.72450000  0.61050000  1.0 0.2586565634
C  C225  1  0.25990000  0.88800000  0.03610000  1.0 -0.0767020874
C  C226  1  0.74010000  0.11200000  0.03610000  1.0 -0.0767020874
C  C227  1  0.88800000  0.74010000  0.03610000  1.0 -0.0767020874
C  C228  1  0.11200000  0.25990000  0.03610000  1.0 -0.0767020874
C  C229  1  0.25990000  0.11200000  0.96390000  1.0 -0.0700841385
C  C230  1  0.74010000  0.88800000  0.96390000  1.0 -0.0767020874
C  C231  1  0.88800000  0.25990000  0.96390000  1.0 -0.0767020874
C  C232  1  0.11200000  0.74010000  0.96390000  1.0 -0.0700841385
C  C233  1  0.24010000  0.61200000  0.46390000  1.0 -0.0767020874
C  C234  1  0.75990000  0.38800000  0.46390000  1.0 -0.0767020874
C  C235  1  0.61200000  0.75990000  0.46390000  1.0 -0.0767020874
C  C236  1  0.38800000  0.24010000  0.46390000  1.0 -0.0767020874
C  C237  1  0.24010000  0.38800000  0.53610000  1.0 -0.0767020874
C  C238  1  0.75990000  0.61200000  0.53610000  1.0 -0.0767020874
C  C239  1  0.61200000  0.24010000  0.53610000  1.0 -0.0767020874
C  C240  1  0.38800000  0.75990000  0.53610000  1.0 -0.0767020874
C  C241  1  0.20710000  0.07720000  0.33490000  1.0 -0.2206490845
C  C242  1  0.79290000  0.92280000  0.33490000  1.0 -0.2206490845
C  C243  1  0.07720000  0.79290000  0.33490000  1.0 -0.2206490845
C  C244  1  0.92280000  0.20710000  0.33490000  1.0 -0.2206490845
C  C245  1  0.20710000  0.92280000  0.66510000  1.0 -0.2206490845
C  C246  1  0.79290000  0.07720000  0.66510000  1.0 -0.2206490845
C  C247  1  0.07720000  0.20710000  0.66510000  1.0 -0.2206490845
C  C248  1  0.92280000  0.79290000  0.66510000  1.0 -0.2206490845
C  C249  1  0.29290000  0.42280000  0.16510000  1.0 -0.2308177032
C  C250  1  0.70710000  0.57720000  0.16510000  1.0 -0.2308177032
C  C251  1  0.42280000  0.70710000  0.16510000  1.0 -0.2308177032
C  C252  1  0.57720000  0.29290000  0.16510000  1.0 -0.2308177032
C  C253  1  0.29290000  0.57720000  0.83490000  1.0 -0.2206490845
C  C254  1  0.70710000  0.42280000  0.83490000  1.0 -0.2206490845
C  C255  1  0.42280000  0.29290000  0.83490000  1.0 -0.2206490845
C  C256  1  0.57720000  0.70710000  0.83490000  1.0 -0.2308177032
C  C257  1  0.21470000  0.98680000  0.23220000  1.0 -0.2833552992
C  C258  1  0.78530000  0.01320000  0.23220000  1.0 -0.2833552992
C  C259  1  0.98680000  0.78530000  0.23220000  1.0 -0.2833552992
C  C260  1  0.01320000  0.21470000  0.23220000  1.0 -0.2833552992
C  C261  1  0.21470000  0.01320000  0.76780000  1.0 -0.2833552992
C  C262  1  0.78530000  0.98680000  0.76780000  1.0 -0.2833552992
C  C263  1  0.98680000  0.21470000  0.76780000  1.0 -0.2833552992
C  C264  1  0.01320000  0.78530000  0.76780000  1.0 -0.2833552992
C  C265  1  0.28530000  0.51320000  0.26780000  1.0 -0.2833552992
C  C266  1  0.71470000  0.48680000  0.26780000  1.0 -0.2833552992
C  C267  1  0.51320000  0.71470000  0.26780000  1.0 -0.2833552992
C  C268  1  0.48680000  0.28530000  0.26780000  1.0 -0.2833552992
C  C269  1  0.28530000  0.48680000  0.73220000  1.0 -0.2833552992
C  C270  1  0.71470000  0.51320000  0.73220000  1.0 -0.2833552992
C  C271  1  0.51320000  0.28530000  0.73220000  1.0 -0.2833552992
C  C272  1  0.48680000  0.71470000  0.73220000  1.0 -0.2833552992
C  C273  1  0.25160000  0.92970000  0.05680000  1.0 -0.2206490845
C  C274  1  0.74840000  0.07030000  0.05680000  1.0 -0.2206490845
C  C275  1  0.92970000  0.74840000  0.05680000  1.0 -0.2206490845
C  C276  1  0.07030000  0.25160000  0.05680000  1.0 -0.2206490845
C  C277  1  0.25160000  0.07030000  0.94320000  1.0 -0.2206490845
C  C278  1  0.74840000  0.92970000  0.94320000  1.0 -0.2206490845
C  C279  1  0.92970000  0.25160000  0.94320000  1.0 -0.2111300804
C  C280  1  0.07030000  0.74840000  0.94320000  1.0 -0.2206490845
C  C281  1  0.24840000  0.57030000  0.44320000  1.0 -0.2206490845
C  C282  1  0.75160000  0.42970000  0.44320000  1.0 -0.2206490845
C  C283  1  0.57030000  0.75160000  0.44320000  1.0 -0.2206490845
C  C284  1  0.42970000  0.24840000  0.44320000  1.0 -0.2206490845
C  C285  1  0.24840000  0.42970000  0.55680000  1.0 -0.2206490845
C  C286  1  0.75160000  0.57030000  0.55680000  1.0 -0.2206490845
C  C287  1  0.57030000  0.24840000  0.55680000  1.0 -0.2206490845
C  C288  1  0.42970000  0.75160000  0.55680000  1.0 -0.2206490845
C  C289  1  0.23500000  0.08360000  0.45590000  1.0 -0.0700841385
C  C290  1  0.76500000  0.91640000  0.45590000  1.0 -0.0700841385
C  C291  1  0.08360000  0.76500000  0.45590000  1.0 -0.0700841385
C  C292  1  0.91640000  0.23500000  0.45590000  1.0 -0.0700841385
C  C293  1  0.23500000  0.91640000  0.54410000  1.0 -0.0700841385
C  C294  1  0.76500000  0.08360000  0.54410000  1.0 -0.0700841385
C  C295  1  0.08360000  0.23500000  0.54410000  1.0 -0.0700841385
C  C296  1  0.91640000  0.76500000  0.54410000  1.0 -0.0700841385
C  C297  1  0.26500000  0.41640000  0.04410000  1.0 -0.0700841385
C  C298  1  0.73500000  0.58360000  0.04410000  1.0 -0.0700841385
C  C299  1  0.41640000  0.73500000  0.04410000  1.0 -0.0700841385
C  C300  1  0.58360000  0.26500000  0.04410000  1.0 -0.0700841385
C  C301  1  0.26500000  0.58360000  0.95590000  1.0 -0.0700841385
C  C302  1  0.73500000  0.41640000  0.95590000  1.0 -0.0700841385
C  C303  1  0.41640000  0.26500000  0.95590000  1.0 -0.0700841385
C  C304  1  0.58360000  0.73500000  0.95590000  1.0 -0.0700841385
C  C305  1  0.21140000  0.89560000  0.14260000  1.0 -0.2111300804
C  C306  1  0.78860000  0.10440000  0.14260000  1.0 -0.2111300804
C  C307  1  0.89560000  0.78860000  0.14260000  1.0 -0.2111300804
C  C308  1  0.10440000  0.21140000  0.14260000  1.0 -0.2111300804
C  C309  1  0.21140000  0.10440000  0.85740000  1.0 -0.2111300804
C  C310  1  0.78860000  0.89560000  0.85740000  1.0 -0.2111300804
C  C311  1  0.89560000  0.21140000  0.85740000  1.0 -0.2111300804
C  C312  1  0.10440000  0.78860000  0.85740000  1.0 -0.2111300804
C  C313  1  0.28860000  0.60440000  0.35740000  1.0 -0.2111300804
C  C314  1  0.71140000  0.39560000  0.35740000  1.0 -0.2111300804
C  C315  1  0.60440000  0.71140000  0.35740000  1.0 -0.2111300804
C  C316  1  0.39560000  0.28860000  0.35740000  1.0 -0.2111300804
C  C317  1  0.28860000  0.39560000  0.64260000  1.0 -0.2111300804
C  C318  1  0.71140000  0.60440000  0.64260000  1.0 -0.2111300804
C  C319  1  0.60440000  0.28860000  0.64260000  1.0 -0.2111300804
C  C320  1  0.39560000  0.71140000  0.64260000  1.0 -0.2111300804
C  C321  1  0.23270000  0.04120000  0.42590000  1.0 -0.2308177032
C  C322  1  0.76730000  0.95880000  0.42590000  1.0 -0.2308177032
C  C323  1  0.04120000  0.76730000  0.42590000  1.0 -0.2308177032
C  C324  1  0.95880000  0.23270000  0.42590000  1.0 -0.2308177032
C  C325  1  0.23270000  0.95880000  0.57410000  1.0 -0.2308177032
C  C326  1  0.76730000  0.04120000  0.57410000  1.0 -0.2308177032
C  C327  1  0.04120000  0.23270000  0.57410000  1.0 -0.2308177032
C  C328  1  0.95880000  0.76730000  0.57410000  1.0 -0.2308177032
C  C329  1  0.26730000  0.45880000  0.07410000  1.0 -0.2308177032
C  C330  1  0.73270000  0.54120000  0.07410000  1.0 -0.2308177032
C  C331  1  0.45880000  0.73270000  0.07410000  1.0 -0.2308177032
C  C332  1  0.54120000  0.26730000  0.07410000  1.0 -0.2308177032
C  C333  1  0.26730000  0.54120000  0.92590000  1.0 -0.2308177032
C  C334  1  0.73270000  0.45880000  0.92590000  1.0 -0.2308177032
C  C335  1  0.45880000  0.26730000  0.92590000  1.0 -0.2308177032
C  C336  1  0.54120000  0.73270000  0.92590000  1.0 -0.2308177032
O  O1  1  0.24313000  0.16235000  0.50880000  1.0 -0.5005264511
O  O2  1  0.75687000  0.83765000  0.50880000  1.0 -0.5005264511
O  O3  1  0.16235000  0.75687000  0.50880000  1.0 -0.5005264511
O  O4  1  0.83765000  0.24313000  0.50880000  1.0 -0.5005264511
O  O5  1  0.24313000  0.83765000  0.49120000  1.0 -0.5005264511
O  O6  1  0.75687000  0.16235000  0.49120000  1.0 -0.5005264511
O  O7  1  0.16235000  0.24313000  0.49120000  1.0 -0.5005264511
O  O8  1  0.83765000  0.75687000  0.49120000  1.0 -0.5005264511
O  O9  1  0.25687000  0.33765000  0.99120000  1.0 -0.5005264511
O  O10  1  0.74313000  0.66235000  0.99120000  1.0 -0.5005264511
O  O11  1  0.33765000  0.74313000  0.99120000  1.0 -0.5005264511
O  O12  1  0.66235000  0.25687000  0.99120000  1.0 -0.5005264511
O  O13  1  0.25687000  0.66235000  0.00880000  1.0 -0.5005264511
O  O14  1  0.74313000  0.33765000  0.00880000  1.0 -0.5005264511
O  O15  1  0.33765000  0.25687000  0.00880000  1.0 -0.5005264511
O  O16  1  0.66235000  0.74313000  0.00880000  1.0 -0.5005264511
O  O17  1  0.21772000  0.19234000  0.42160000  1.0 -0.5095622613
O  O18  1  0.78228000  0.80766000  0.42160000  1.0 -0.5095622613
O  O19  1  0.19234000  0.78228000  0.42160000  1.0 -0.5095622613
O  O20  1  0.80766000  0.21772000  0.42160000  1.0 -0.5095622613
O  O21  1  0.21772000  0.80766000  0.57840000  1.0 -0.5095622613
O  O22  1  0.78228000  0.19234000  0.57840000  1.0 -0.5095622613
O  O23  1  0.19234000  0.21772000  0.57840000  1.0 -0.5095622613
O  O24  1  0.80766000  0.78228000  0.57840000  1.0 -0.5095622613
O  O25  1  0.28228000  0.30766000  0.07840000  1.0 -0.5095622613
O  O26  1  0.71772000  0.69234000  0.07840000  1.0 -0.5095622613
O  O27  1  0.30766000  0.71772000  0.07840000  1.0 -0.5095622613
O  O28  1  0.69234000  0.28228000  0.07840000  1.0 -0.5095622613
O  O29  1  0.28228000  0.69234000  0.92160000  1.0 -0.5095622613
O  O30  1  0.71772000  0.30766000  0.92160000  1.0 -0.5095622613
O  O31  1  0.30766000  0.28228000  0.92160000  1.0 -0.5095622613
O  O32  1  0.69234000  0.71772000  0.92160000  1.0 -0.5095622613
O  O33  1  0.24263000  0.77760000  0.07530000  1.0 -0.5005264511
O  O34  1  0.75737000  0.22240000  0.07530000  1.0 -0.5005264511
O  O35  1  0.77760000  0.75737000  0.07530000  1.0 -0.5005264511
O  O36  1  0.22240000  0.24263000  0.07530000  1.0 -0.5005264511
O  O37  1  0.24263000  0.22240000  0.92470000  1.0 -0.5005264511
O  O38  1  0.75737000  0.77760000  0.92470000  1.0 -0.5005264511
O  O39  1  0.77760000  0.24263000  0.92470000  1.0 -0.5005264511
O  O40  1  0.22240000  0.75737000  0.92470000  1.0 -0.5005264511
O  O41  1  0.25737000  0.72240000  0.42470000  1.0 -0.5005264511
O  O42  1  0.74263000  0.27760000  0.42470000  1.0 -0.5005264511
O  O43  1  0.72240000  0.74263000  0.42470000  1.0 -0.5005264511
O  O44  1  0.27760000  0.25737000  0.42470000  1.0 -0.5005264511
O  O45  1  0.25737000  0.27760000  0.57530000  1.0 -0.5005264511
O  O46  1  0.74263000  0.72240000  0.57530000  1.0 -0.5005264511
O  O47  1  0.72240000  0.25737000  0.57530000  1.0 -0.5005264511
O  O48  1  0.27760000  0.74263000  0.57530000  1.0 -0.5005264511
O  O49  1  0.27550000  0.80586000  0.99360000  1.0 -0.5005264511
O  O50  1  0.72450000  0.19414000  0.99360000  1.0 -0.5005264511
O  O51  1  0.80586000  0.72450000  0.99360000  1.0 -0.5005264511
O  O52  1  0.19414000  0.27550000  0.99360000  1.0 -0.5005264511
O  O53  1  0.27550000  0.19414000  0.00640000  1.0 -0.5005264511
O  O54  1  0.72450000  0.80586000  0.00640000  1.0 -0.5005264511
O  O55  1  0.80586000  0.27550000  0.00640000  1.0 -0.5005264511
O  O56  1  0.19414000  0.72450000  0.00640000  1.0 -0.5005264511
O  O57  1  0.22450000  0.69414000  0.50640000  1.0 -0.5005264511
O  O58  1  0.77550000  0.30586000  0.50640000  1.0 -0.5005264511
O  O59  1  0.69414000  0.77550000  0.50640000  1.0 -0.5005264511
O  O60  1  0.30586000  0.22450000  0.50640000  1.0 -0.5005264511
O  O61  1  0.22450000  0.30586000  0.49360000  1.0 -0.5005264511
O  O62  1  0.77550000  0.69414000  0.49360000  1.0 -0.5005264511
O  O63  1  0.69414000  0.22450000  0.49360000  1.0 -0.5005264511
O  O64  1  0.30586000  0.77550000  0.49360000  1.0 -0.5005264511
O  O65  1  0.06219000  0.00181000  0.28340000  1.0 -0.5095622613
O  O66  1  0.93781000  0.99819000  0.28340000  1.0 -0.5095622613
O  O67  1  0.00181000  0.93781000  0.28340000  1.0 -0.5095622613
O  O68  1  0.99819000  0.06219000  0.28340000  1.0 -0.5095622613
O  O69  1  0.06219000  0.99819000  0.71660000  1.0 -0.5095622613
O  O70  1  0.93781000  0.00181000  0.71660000  1.0 -0.5095622613
O  O71  1  0.00181000  0.06219000  0.71660000  1.0 -0.5095622613
O  O72  1  0.99819000  0.93781000  0.71660000  1.0 -0.5095622613
O  O73  1  0.43781000  0.49819000  0.21660000  1.0 -0.5095622613
O  O74  1  0.56219000  0.50181000  0.21660000  1.0 -0.5095622613
O  O75  1  0.49819000  0.56219000  0.21660000  1.0 -0.5095622613
O  O76  1  0.50181000  0.43781000  0.21660000  1.0 -0.5095622613
O  O77  1  0.43781000  0.50181000  0.78340000  1.0 -0.5095622613
O  O78  1  0.56219000  0.49819000  0.78340000  1.0 -0.5095622613
O  O79  1  0.49819000  0.43781000  0.78340000  1.0 -0.5095622613
O  O80  1  0.50181000  0.56219000  0.78340000  1.0 -0.5095622613
O  O81  1  0.06209000  0.99118000  0.18010000  1.0 -0.5218037235
O  O82  1  0.93791000  0.00882000  0.18010000  1.0 -0.5218037235
O  O83  1  0.99118000  0.93791000  0.18010000  1.0 -0.5218037235
O  O84  1  0.00882000  0.06209000  0.18010000  1.0 -0.5218037235
O  O85  1  0.06209000  0.00882000  0.81990000  1.0 -0.5218037235
O  O86  1  0.93791000  0.99118000  0.81990000  1.0 -0.5218037235
O  O87  1  0.99118000  0.06209000  0.81990000  1.0 -0.5218037235
O  O88  1  0.00882000  0.93791000  0.81990000  1.0 -0.5218037235
O  O89  1  0.43791000  0.50882000  0.31990000  1.0 -0.5218037235
O  O90  1  0.56209000  0.49118000  0.31990000  1.0 -0.5218037235
O  O91  1  0.50882000  0.56209000  0.31990000  1.0 -0.5218037235
O  O92  1  0.49118000  0.43791000  0.31990000  1.0 -0.5218037235
O  O93  1  0.43791000  0.49118000  0.68010000  1.0 -0.5218037235
O  O94  1  0.56209000  0.50882000  0.68010000  1.0 -0.5218037235
O  O95  1  0.50882000  0.43791000  0.68010000  1.0 -0.5218037235
O  O96  1  0.49118000  0.56209000  0.68010000  1.0 -0.5218037235
O  O97  1  0.21629000  0.99928000  0.34290000  1.0 -0.2206490845
O  O98  1  0.78371000  0.00072000  0.34290000  1.0 -0.2206490845
O  O99  1  0.99928000  0.78371000  0.34290000  1.0 -0.2206490845
O  O100  1  0.00072000  0.21629000  0.34290000  1.0 -0.2206490845
O  O101  1  0.21629000  0.00072000  0.65710000  1.0 -0.2206490845
O  O102  1  0.78371000  0.99928000  0.65710000  1.0 -0.2206490845
O  O103  1  0.99928000  0.21629000  0.65710000  1.0 -0.2206490845
O  O104  1  0.00072000  0.78371000  0.65710000  1.0 -0.2206490845
O  O105  1  0.28371000  0.50072000  0.15710000  1.0 -0.2206490845
O  O106  1  0.71629000  0.49928000  0.15710000  1.0 -0.2206490845
O  O107  1  0.50072000  0.71629000  0.15710000  1.0 -0.2206490845
O  O108  1  0.49928000  0.28371000  0.15710000  1.0 -0.2206490845
O  O109  1  0.28371000  0.49928000  0.84290000  1.0 -0.2206490845
O  O110  1  0.71629000  0.50072000  0.84290000  1.0 -0.2206490845
O  O111  1  0.50072000  0.28371000  0.84290000  1.0 -0.2206490845
O  O112  1  0.49928000  0.71629000  0.84290000  1.0 -0.2206490845
O  O113  1  0.21650000  0.97494000  0.12570000  1.0 -0.2463107702
O  O114  1  0.78350000  0.02506000  0.12570000  1.0 -0.2463107702
O  O115  1  0.97494000  0.78350000  0.12570000  1.0 -0.2463107702
O  O116  1  0.02506000  0.21650000  0.12570000  1.0 -0.2463107702
O  O117  1  0.21650000  0.02506000  0.87430000  1.0 -0.2397219773
O  O118  1  0.78350000  0.97494000  0.87430000  1.0 -0.2463107702
O  O119  1  0.97494000  0.21650000  0.87430000  1.0 -0.2397219773
O  O120  1  0.02506000  0.78350000  0.87430000  1.0 -0.2463107702
O  O121  1  0.28350000  0.52506000  0.37430000  1.0 -0.2463107702
O  O122  1  0.71650000  0.47494000  0.37430000  1.0 -0.2463107702
O  O123  1  0.52506000  0.71650000  0.37430000  1.0 -0.2463107702
O  O124  1  0.47494000  0.28350000  0.37430000  1.0 -0.2463107702
O  O125  1  0.28350000  0.47494000  0.62570000  1.0 -0.2397219773
O  O126  1  0.71650000  0.52506000  0.62570000  1.0 -0.2397219773
O  O127  1  0.52506000  0.28350000  0.62570000  1.0 -0.2397219773
O  O128  1  0.47494000  0.71650000  0.62570000  1.0 -0.2463107702
