# DDEC6 charges by PACMAN v1.1 (https://github.com/mtap-research/PACMAN-charge/)
data_QAQWIS_ASR_pacman
_symmetry_space_group_name_H-M   'P 1'
_cell_length_a   7.85770000
_cell_length_b   11.25200000
_cell_length_c   22.48110000
_cell_angle_alpha   90.00000000
_cell_angle_beta   90.00000000
_cell_angle_gamma   90.00000000
_symmetry_Int_Tables_number   1
_chemical_formula_structural   Nb4Ni4H96C125(N3F5)4
_chemical_formula_sum   'Nb4 Ni4 H96 C125 N12 F20'
_cell_volume   1987.66286852
_cell_formula_units_Z   1
loop_
 _symmetry_equiv_pos_site_id
 _symmetry_equiv_pos_as_xyz
  1  'x, y, z'
loop_
 _atom_site_type_symbol
 _atom_site_label
 _atom_site_symmetry_multiplicity
 _atom_site_fract_x
 _atom_site_fract_y
 _atom_site_fract_z
 _atom_site_occupancy
 _atom_site_charge
Nb  Nb1  1  0.00000000  0.50000000  0.50000000  1.0 1.5929559873
Nb  Nb2  1  0.00000000  0.59110000  0.00000000  1.0 0.809299271
Nb  Nb3  1  0.00000000  0.40890000  0.00000000  1.0 0.809299271
Nb  Nb4  1  0.00000000  0.50000000  0.00000000  1.0 0.8539739655
Ni  Ni1  1  0.50000000  0.50000000  0.50000000  1.0 0.2967867361
Ni  Ni2  1  0.50000000  0.58070000  0.00000000  1.0 0.2463776873
Ni  Ni3  1  0.50000000  0.41930000  0.00000000  1.0 0.2463776873
Ni  Ni4  1  0.50000000  0.50000000  0.00000000  1.0 0.2768570887
H  H1  1  0.70220000  0.69780000  0.45020000  1.0 0.079729092
H  H2  1  0.72880000  0.91480000  0.45750000  1.0 0.0977731937
H  H3  1  0.73460000  0.57960000  0.59620000  1.0 0.079729092
H  H4  1  0.72920000  0.60680000  0.69950000  1.0 0.0635669635
H  H5  1  0.26840000  0.45530000  0.71140000  1.0 0.0635669635
H  H6  1  0.26970000  0.42670000  0.60860000  1.0 0.0977731937
H  H7  1  0.67470000  0.77740000  0.06570000  1.0 0.079729092
H  H8  1  0.70480000  0.98400000  0.05420000  1.0 0.079729092
H  H9  1  0.74690000  0.15650000  0.97540000  1.0 0.0685043739
H  H10  1  0.72660000  0.36170000  0.95800000  1.0 0.111459534
H  H11  1  0.25440000  0.62550000  0.79230000  1.0 0.0858564558
H  H12  1  0.72410000  0.47700000  0.79540000  1.0 0.079729092
H  H13  1  0.29780000  0.69780000  0.54980000  1.0 0.079729092
H  H14  1  0.27120000  0.91480000  0.54250000  1.0 0.0977731937
H  H15  1  0.26540000  0.57960000  0.40380000  1.0 0.079729092
H  H16  1  0.27080000  0.60680000  0.30050000  1.0 0.0635669635
H  H17  1  0.73160000  0.45530000  0.28860000  1.0 0.0635669635
H  H18  1  0.73030000  0.42670000  0.39140000  1.0 0.0977731937
H  H19  1  0.32530000  0.77740000  0.93430000  1.0 0.079729092
H  H20  1  0.29520000  0.98400000  0.94580000  1.0 0.079729092
H  H21  1  0.25310000  0.15650000  0.02460000  1.0 0.0685043739
H  H22  1  0.27340000  0.36170000  0.04200000  1.0 0.111459534
H  H23  1  0.74560000  0.62550000  0.20770000  1.0 0.0858564558
H  H24  1  0.27590000  0.47700000  0.20460000  1.0 0.079729092
H  H25  1  0.70220000  0.30220000  0.54980000  1.0 0.079729092
H  H26  1  0.72880000  0.08520000  0.54250000  1.0 0.0977731937
H  H27  1  0.73460000  0.42040000  0.40380000  1.0 0.079729092
H  H28  1  0.72920000  0.39320000  0.30050000  1.0 0.0635669635
H  H29  1  0.26840000  0.54470000  0.28860000  1.0 0.0635669635
H  H30  1  0.26970000  0.57330000  0.39140000  1.0 0.0977731937
H  H31  1  0.67470000  0.22260000  0.93430000  1.0 0.079729092
H  H32  1  0.70480000  0.01600000  0.94580000  1.0 0.079729092
H  H33  1  0.74690000  0.84350000  0.02460000  1.0 0.0685043739
H  H34  1  0.72660000  0.63830000  0.04200000  1.0 0.111459534
H  H35  1  0.25440000  0.37450000  0.20770000  1.0 0.0858564558
H  H36  1  0.72410000  0.52300000  0.20460000  1.0 0.079729092
H  H37  1  0.29780000  0.30220000  0.45020000  1.0 0.079729092
H  H38  1  0.27120000  0.08520000  0.45750000  1.0 0.0977731937
H  H39  1  0.26540000  0.42040000  0.59620000  1.0 0.079729092
H  H40  1  0.27080000  0.39320000  0.69950000  1.0 0.0635669635
H  H41  1  0.73160000  0.54470000  0.71140000  1.0 0.0635669635
H  H42  1  0.73030000  0.57330000  0.60860000  1.0 0.0977731937
H  H43  1  0.32530000  0.22260000  0.06570000  1.0 0.079729092
H  H44  1  0.29520000  0.01600000  0.05420000  1.0 0.079729092
H  H45  1  0.25310000  0.84350000  0.97540000  1.0 0.0685043739
H  H46  1  0.27340000  0.63830000  0.95800000  1.0 0.111459534
H  H47  1  0.74560000  0.37450000  0.79230000  1.0 0.0858564558
H  H48  1  0.27590000  0.52300000  0.79540000  1.0 0.079729092
H  H49  1  0.29780000  0.30220000  0.54980000  1.0 0.079729092
H  H50  1  0.27120000  0.08520000  0.54250000  1.0 0.0977731937
H  H51  1  0.26540000  0.42040000  0.40380000  1.0 0.079729092
H  H52  1  0.27080000  0.39320000  0.30050000  1.0 0.0635669635
H  H53  1  0.73160000  0.54470000  0.28860000  1.0 0.0635669635
H  H54  1  0.73030000  0.57330000  0.39140000  1.0 0.0977731937
H  H55  1  0.32530000  0.22260000  0.93430000  1.0 0.079729092
H  H56  1  0.29520000  0.01600000  0.94580000  1.0 0.079729092
H  H57  1  0.25310000  0.84350000  0.02460000  1.0 0.0685043739
H  H58  1  0.27340000  0.63830000  0.04200000  1.0 0.111459534
H  H59  1  0.74560000  0.37450000  0.20770000  1.0 0.0858564558
H  H60  1  0.27590000  0.52300000  0.20460000  1.0 0.079729092
H  H61  1  0.70220000  0.30220000  0.45020000  1.0 0.079729092
H  H62  1  0.72880000  0.08520000  0.45750000  1.0 0.0977731937
H  H63  1  0.73460000  0.42040000  0.59620000  1.0 0.079729092
H  H64  1  0.72920000  0.39320000  0.69950000  1.0 0.0635669635
H  H65  1  0.26840000  0.54470000  0.71140000  1.0 0.0635669635
H  H66  1  0.26970000  0.57330000  0.60860000  1.0 0.0977731937
H  H67  1  0.67470000  0.22260000  0.06570000  1.0 0.079729092
H  H68  1  0.70480000  0.01600000  0.05420000  1.0 0.079729092
H  H69  1  0.74690000  0.84350000  0.97540000  1.0 0.0685043739
H  H70  1  0.72660000  0.63830000  0.95800000  1.0 0.111459534
H  H71  1  0.25440000  0.37450000  0.79230000  1.0 0.0858564558
H  H72  1  0.72410000  0.52300000  0.79540000  1.0 0.079729092
H  H73  1  0.29780000  0.69780000  0.45020000  1.0 0.079729092
H  H74  1  0.27120000  0.91480000  0.45750000  1.0 0.0977731937
H  H75  1  0.26540000  0.57960000  0.59620000  1.0 0.079729092
H  H76  1  0.27080000  0.60680000  0.69950000  1.0 0.0635669635
H  H77  1  0.73160000  0.45530000  0.71140000  1.0 0.0635669635
H  H78  1  0.73030000  0.42670000  0.60860000  1.0 0.0977731937
H  H79  1  0.32530000  0.77740000  0.06570000  1.0 0.079729092
H  H80  1  0.29520000  0.98400000  0.05420000  1.0 0.079729092
H  H81  1  0.25310000  0.15650000  0.97540000  1.0 0.0685043739
H  H82  1  0.27340000  0.36170000  0.95800000  1.0 0.111459534
H  H83  1  0.74560000  0.62550000  0.79230000  1.0 0.0858564558
H  H84  1  0.27590000  0.47700000  0.79540000  1.0 0.079729092
H  H85  1  0.70220000  0.69780000  0.54980000  1.0 0.079729092
H  H86  1  0.72880000  0.91480000  0.54250000  1.0 0.0977731937
H  H87  1  0.73460000  0.57960000  0.40380000  1.0 0.079729092
H  H88  1  0.72920000  0.60680000  0.30050000  1.0 0.0635669635
H  H89  1  0.26840000  0.45530000  0.28860000  1.0 0.0635669635
H  H90  1  0.26970000  0.42670000  0.39140000  1.0 0.0977731937
H  H91  1  0.67470000  0.77740000  0.93430000  1.0 0.079729092
H  H92  1  0.70480000  0.98400000  0.94580000  1.0 0.079729092
H  H93  1  0.74690000  0.15650000  0.02460000  1.0 0.0685043739
H  H94  1  0.72660000  0.36170000  0.04200000  1.0 0.111459534
H  H95  1  0.25440000  0.62550000  0.20770000  1.0 0.0858564558
H  H96  1  0.72410000  0.47700000  0.20460000  1.0 0.079729092
C  C1  1  0.62100000  0.74240000  0.47210000  1.0 -0.0034334886
C  C2  1  0.63400000  0.87380000  0.47370000  1.0 -0.0860844456
C  C3  1  0.64000000  0.55400000  0.61920000  1.0 -0.0790718092
C  C4  1  0.63400000  0.57000000  0.68100000  1.0 -0.0585770306
C  C5  1  0.36400000  0.48100000  0.68880000  1.0 -0.0166475754
C  C6  1  0.36400000  0.46400000  0.62730000  1.0 -0.0302902986
C  C7  1  0.60800000  0.81900000  0.03740000  1.0 -0.0302902986
C  C8  1  0.61800000  0.94200000  0.03380000  1.0 -0.1268524794
C  C9  1  0.64300000  0.19700000  0.98310000  1.0 0.0129942693
C  C10  1  0.63700000  0.32000000  0.97730000  1.0 -0.0585770306
C  C11  1  0.35200000  0.60200000  0.81410000  1.0 -0.111778917
C  C12  1  0.35800000  0.61500000  0.87550000  1.0 -0.1152009039
C  C13  1  0.63800000  0.52690000  0.87690000  1.0 0.079729092
C  C14  1  0.63100000  0.51300000  0.81550000  1.0 -0.0790718092
C  C15  1  0.37900000  0.74240000  0.52790000  1.0 -0.0034334886
C  C16  1  0.36600000  0.87380000  0.52630000  1.0 -0.0860844456
C  C17  1  0.36000000  0.55400000  0.38080000  1.0 -0.0790718092
C  C18  1  0.36600000  0.57000000  0.31900000  1.0 -0.0585770306
C  C19  1  0.63600000  0.48100000  0.31120000  1.0 -0.0166475754
C  C20  1  0.63600000  0.46400000  0.37270000  1.0 -0.0302902986
C  C21  1  0.39200000  0.81900000  0.96260000  1.0 -0.0302902986
C  C22  1  0.38200000  0.94200000  0.96620000  1.0 -0.1268524794
C  C23  1  0.35700000  0.19700000  0.01690000  1.0 0.0129942693
C  C24  1  0.36300000  0.32000000  0.02270000  1.0 -0.0585770306
C  C25  1  0.64800000  0.60200000  0.18590000  1.0 -0.111778917
C  C26  1  0.64200000  0.61500000  0.12450000  1.0 -0.111778917
C  C27  1  0.36200000  0.52690000  0.12310000  1.0 0.079729092
C  C28  1  0.36900000  0.51300000  0.18450000  1.0 -0.0790718092
C  C29  1  0.62100000  0.25760000  0.52790000  1.0 -0.0034334886
C  C30  1  0.63400000  0.12620000  0.52630000  1.0 -0.0860844456
C  C31  1  0.64000000  0.44600000  0.38080000  1.0 -0.0790718092
C  C32  1  0.63400000  0.43000000  0.31900000  1.0 -0.0585770306
C  C33  1  0.36400000  0.51900000  0.31120000  1.0 -0.0166475754
C  C34  1  0.36400000  0.53600000  0.37270000  1.0 -0.0302902986
C  C35  1  0.60800000  0.18100000  0.96260000  1.0 -0.0302902986
C  C36  1  0.61800000  0.05800000  0.96620000  1.0 -0.1268524794
C  C37  1  0.64300000  0.80300000  0.01690000  1.0 0.0129942693
C  C38  1  0.63700000  0.68000000  0.02270000  1.0 -0.0548529147
C  C39  1  0.35200000  0.39800000  0.18590000  1.0 -0.111778917
C  C40  1  0.35800000  0.38500000  0.12450000  1.0 -0.111778917
C  C41  1  0.63800000  0.47310000  0.12310000  1.0 0.079729092
C  C42  1  0.63100000  0.48700000  0.18450000  1.0 -0.0790718092
C  C43  1  0.37900000  0.25760000  0.47210000  1.0 -0.0034334886
C  C44  1  0.36600000  0.12620000  0.47370000  1.0 -0.0860844456
C  C45  1  0.36000000  0.44600000  0.61920000  1.0 -0.0790718092
C  C46  1  0.36600000  0.43000000  0.68100000  1.0 -0.0585770306
C  C47  1  0.63600000  0.51900000  0.68880000  1.0 -0.0166475754
C  C48  1  0.63600000  0.53600000  0.62730000  1.0 -0.0302902986
C  C49  1  0.39200000  0.18100000  0.03740000  1.0 -0.0302902986
C  C50  1  0.38200000  0.05800000  0.03380000  1.0 -0.1268524794
C  C51  1  0.35700000  0.80300000  0.98310000  1.0 0.0129942693
C  C52  1  0.36300000  0.68000000  0.97730000  1.0 -0.0585770306
C  C53  1  0.64800000  0.39800000  0.81410000  1.0 -0.111778917
C  C54  1  0.64200000  0.38500000  0.87550000  1.0 -0.111778917
C  C55  1  0.36200000  0.47310000  0.87690000  1.0 0.079729092
C  C56  1  0.36900000  0.48700000  0.81550000  1.0 -0.0790718092
C  C57  1  0.37900000  0.25760000  0.52790000  1.0 -0.0034334886
C  C58  1  0.36600000  0.12620000  0.52630000  1.0 -0.0860844456
C  C59  1  0.36000000  0.44600000  0.38080000  1.0 -0.0790718092
C  C60  1  0.36600000  0.43000000  0.31900000  1.0 -0.0585770306
C  C61  1  0.63600000  0.51900000  0.31120000  1.0 -0.0166475754
C  C62  1  0.63600000  0.53600000  0.37270000  1.0 -0.0302902986
C  C63  1  0.39200000  0.18100000  0.96260000  1.0 -0.0302902986
C  C64  1  0.38200000  0.05800000  0.96620000  1.0 -0.1268524794
C  C65  1  0.35700000  0.80300000  0.01690000  1.0 0.0129942693
C  C66  1  0.36300000  0.68000000  0.02270000  1.0 -0.0585770306
C  C67  1  0.64800000  0.39800000  0.18590000  1.0 -0.111778917
C  C68  1  0.64200000  0.38500000  0.12450000  1.0 -0.111778917
C  C69  1  0.36200000  0.47310000  0.12310000  1.0 0.079729092
C  C70  1  0.36900000  0.48700000  0.18450000  1.0 -0.0790718092
C  C71  1  0.62100000  0.25760000  0.47210000  1.0 -0.0034334886
C  C72  1  0.63400000  0.12620000  0.47370000  1.0 -0.0860844456
C  C73  1  0.64000000  0.44600000  0.61920000  1.0 -0.0790718092
C  C74  1  0.63400000  0.43000000  0.68100000  1.0 -0.0585770306
C  C75  1  0.36400000  0.51900000  0.68880000  1.0 -0.0166475754
C  C76  1  0.36400000  0.53600000  0.62730000  1.0 -0.0302902986
C  C77  1  0.60800000  0.18100000  0.03740000  1.0 -0.0302902986
C  C78  1  0.61800000  0.05800000  0.03380000  1.0 -0.1268524794
C  C79  1  0.64300000  0.80300000  0.98310000  1.0 0.0129942693
C  C80  1  0.63700000  0.68000000  0.97730000  1.0 -0.0585770306
C  C81  1  0.35200000  0.39800000  0.81410000  1.0 -0.111778917
C  C82  1  0.35800000  0.38500000  0.87550000  1.0 -0.1152009039
C  C83  1  0.63800000  0.47310000  0.87690000  1.0 0.079729092
C  C84  1  0.63100000  0.48700000  0.81550000  1.0 -0.0790718092
C  C85  1  0.37900000  0.74240000  0.47210000  1.0 -0.0034334886
C  C86  1  0.36600000  0.87380000  0.47370000  1.0 -0.0860844456
C  C87  1  0.36000000  0.55400000  0.61920000  1.0 -0.0790718092
C  C88  1  0.36600000  0.57000000  0.68100000  1.0 -0.0585770306
C  C89  1  0.63600000  0.48100000  0.68880000  1.0 -0.0166475754
C  C90  1  0.63600000  0.46400000  0.62730000  1.0 -0.0302902986
C  C91  1  0.39200000  0.81900000  0.03740000  1.0 -0.0302902986
C  C92  1  0.38200000  0.94200000  0.03380000  1.0 -0.1268524794
C  C93  1  0.35700000  0.19700000  0.98310000  1.0 0.0129942693
C  C94  1  0.36300000  0.32000000  0.97730000  1.0 -0.0585770306
C  C95  1  0.64800000  0.60200000  0.81410000  1.0 -0.111778917
C  C96  1  0.64200000  0.61500000  0.87550000  1.0 -0.111778917
C  C97  1  0.36200000  0.52690000  0.87690000  1.0 0.079729092
C  C98  1  0.36900000  0.51300000  0.81550000  1.0 -0.0790718092
C  C99  1  0.62100000  0.74240000  0.52790000  1.0 -0.0034334886
C  C100  1  0.63400000  0.87380000  0.52630000  1.0 -0.0860844456
C  C101  1  0.64000000  0.55400000  0.38080000  1.0 -0.0790718092
C  C102  1  0.63400000  0.57000000  0.31900000  1.0 -0.0585770306
C  C103  1  0.36400000  0.48100000  0.31120000  1.0 -0.0166475754
C  C104  1  0.36400000  0.46400000  0.37270000  1.0 -0.0302902986
C  C105  1  0.60800000  0.81900000  0.96260000  1.0 -0.0302902986
C  C106  1  0.61800000  0.94200000  0.96620000  1.0 -0.1268524794
C  C107  1  0.64300000  0.19700000  0.01690000  1.0 0.0129942693
C  C108  1  0.63700000  0.32000000  0.02270000  1.0 -0.0548529147
C  C109  1  0.35200000  0.60200000  0.18590000  1.0 -0.111778917
C  C110  1  0.35800000  0.61500000  0.12450000  1.0 -0.111778917
C  C111  1  0.63800000  0.52690000  0.12310000  1.0 0.079729092
C  C112  1  0.63100000  0.51300000  0.18450000  1.0 -0.0790718092
C  C113  1  0.50000000  0.93320000  0.50000000  1.0 0.0484264208
C  C114  1  0.50000000  0.06680000  0.50000000  1.0 0.0484264208
C  C115  1  0.50000000  0.53470000  0.71750000  1.0 -0.0034334886
C  C116  1  0.50000000  0.55100000  0.78400000  1.0 0.0193645557
C  C117  1  0.50000000  0.44900000  0.78400000  1.0 0.0193645557
C  C118  1  0.50000000  0.53470000  0.28250000  1.0 -0.0034334886
C  C119  1  0.50000000  0.55100000  0.21600000  1.0 0.0193645557
C  C120  1  0.50000000  0.44900000  0.21600000  1.0 0.0193645557
C  C121  1  0.50000000  0.46530000  0.28250000  1.0 -0.0034334886
C  C122  1  0.50000000  0.46530000  0.71750000  1.0 -0.0034334886
C  C123  1  0.50000000  0.13400000  0.00000000  1.0 0.0193645557
C  C124  1  0.50000000  0.86600000  0.00000000  1.0 0.0193645557
C  C125  1  0.50000000  0.00000000  0.00000000  1.0 0.0294447424
N  N1  1  0.50000000  0.68780000  0.50000000  1.0 -0.1420595391
N  N2  1  0.50000000  0.31220000  0.50000000  1.0 -0.1420595391
N  N3  1  0.50000000  0.50000000  0.59380000  1.0 -0.0585770306
N  N4  1  0.50000000  0.50000000  0.40620000  1.0 -0.0585770306
N  N5  1  0.50000000  0.57770000  0.90690000  1.0 -0.180687592
N  N6  1  0.50000000  0.57770000  0.09310000  1.0 -0.180687592
N  N7  1  0.50000000  0.42230000  0.09310000  1.0 -0.180687592
N  N8  1  0.50000000  0.42230000  0.90690000  1.0 -0.180687592
N  N9  1  0.50000000  0.75600000  0.00000000  1.0 0.0484264208
N  N10  1  0.50000000  0.37900000  0.00000000  1.0 -0.111778917
N  N11  1  0.50000000  0.24400000  0.00000000  1.0 0.0484264208
N  N12  1  0.50000000  0.62100000  0.00000000  1.0 -0.111778917
F  F1  1  0.00000000  0.38060000  0.43930000  1.0 -0.5520153237
F  F2  1  0.00000000  0.44200000  0.05660000  1.0 -0.1954120739
F  F3  1  0.00000000  0.71300000  0.05890000  1.0 -0.4630100025
F  F4  1  0.00000000  0.38060000  0.56070000  1.0 -0.5520153237
F  F5  1  0.00000000  0.44200000  0.94340000  1.0 -0.1954120739
F  F6  1  0.00000000  0.71300000  0.94110000  1.0 -0.4630100025
F  F7  1  0.00000000  0.61940000  0.56070000  1.0 -0.5520153237
F  F8  1  0.00000000  0.55800000  0.94340000  1.0 -0.1954120739
F  F9  1  0.00000000  0.28700000  0.94110000  1.0 -0.4630100025
F  F10  1  0.00000000  0.61940000  0.43930000  1.0 -0.5520153237
F  F11  1  0.00000000  0.55800000  0.05660000  1.0 -0.1954120739
F  F12  1  0.00000000  0.28700000  0.05890000  1.0 -0.4630100025
F  F13  1  0.75540000  0.50000000  0.50000000  1.0 -0.4814343645
F  F14  1  0.24460000  0.50000000  0.50000000  1.0 -0.4814343645
F  F15  1  0.75400000  0.41700000  0.00000000  1.0 -0.111778917
F  F16  1  0.24600000  0.41700000  0.00000000  1.0 -0.111778917
F  F17  1  0.75400000  0.58300000  0.00000000  1.0 -0.111778917
F  F18  1  0.24600000  0.58300000  0.00000000  1.0 -0.111778917
F  F19  1  0.74400000  0.50000000  0.00000000  1.0 -0.0790718092
F  F20  1  0.25600000  0.50000000  0.00000000  1.0 -0.0790718092
