# DDEC6 charges by PACMAN v1.1 (https://github.com/mtap-research/PACMAN-charge/)
data_QARCET_ASR_pacman
_symmetry_space_group_name_H-M   'P 1'
_cell_length_a   13.55100000
_cell_length_b   16.18100000
_cell_length_c   16.54000000
_cell_angle_alpha   109.46000000
_cell_angle_beta   101.21000000
_cell_angle_gamma   109.75000000
_symmetry_Int_Tables_number   1
_chemical_formula_structural   ZnH8(C4N3)4
_chemical_formula_sum   'Zn6 H48 C96 N72'
_cell_volume   3019.67492593
_cell_formula_units_Z   6
loop_
 _symmetry_equiv_pos_site_id
 _symmetry_equiv_pos_as_xyz
  1  'x, y, z'
loop_
 _atom_site_type_symbol
 _atom_site_label
 _atom_site_symmetry_multiplicity
 _atom_site_fract_x
 _atom_site_fract_y
 _atom_site_fract_z
 _atom_site_occupancy
 _atom_site_charge
Zn  Zn1  1  0.49543000  0.57685000  0.17524000  1.0 0.5778980885
Zn  Zn2  1  0.50457000  0.42315000  0.82476000  1.0 0.5778980885
Zn  Zn3  1  0.17041000  0.45683000  0.57347000  1.0 0.5873486732
Zn  Zn4  1  0.82959000  0.54317000  0.42653000  1.0 0.5873486732
Zn  Zn5  1  0.58919000  0.20353000  0.51088000  1.0 0.6050421332
Zn  Zn6  1  0.41081000  0.79647000  0.48912000  1.0 0.6050421332
H  H1  1  0.12410000  0.32040000  0.12150000  1.0 0.1292939535
H  H2  1  0.87590000  0.67960000  0.87850000  1.0 0.1292939535
H  H3  1  0.15880000  0.32900000  0.26900000  1.0 0.1216273723
H  H4  1  0.84120000  0.67100000  0.73100000  1.0 0.1216273723
H  H5  1  0.34200000  0.41610000  0.37110000  1.0 0.1292939535
H  H6  1  0.65800000  0.58390000  0.62890000  1.0 0.1292939535
H  H7  1  0.47610000  0.50810000  0.33210000  1.0 0.1083900867
H  H8  1  0.52390000  0.49190000  0.66790000  1.0 0.1083900867
H  H9  1  0.97050000  0.26770000  0.88920000  1.0 0.1292939535
H  H10  1  0.02950000  0.73230000  0.11080000  1.0 0.1292939535
H  H11  1  0.83170000  0.12510000  0.86720000  1.0 0.1216273723
H  H12  1  0.16830000  0.87490000  0.13280000  1.0 0.1216273723
H  H13  1  0.88100000  0.01150000  0.89890000  1.0 0.1292939535
H  H14  1  0.11900000  0.98850000  0.10110000  1.0 0.1292939535
H  H15  1  0.06500000  0.05100000  0.96730000  1.0 0.1022910026
H  H16  1  0.93500000  0.94900000  0.03270000  1.0 0.1022910026
H  H17  1  0.99590000  0.11450000  0.32160000  1.0 0.1292939535
H  H18  1  0.00410000  0.88550000  0.67840000  1.0 0.1292939535
H  H19  1  0.16150000  0.10200000  0.31770000  1.0 0.1216273723
H  H20  1  0.83850000  0.89800000  0.68230000  1.0 0.1216273723
H  H21  1  0.33100000  0.23230000  0.41470000  1.0 0.1396542325
H  H22  1  0.66900000  0.76770000  0.58530000  1.0 0.1396542325
H  H23  1  0.33210000  0.37090000  0.51160000  1.0 0.1083900867
H  H24  1  0.66790000  0.62910000  0.48840000  1.0 0.1083900867
H  H25  1  0.87450000  0.18180000  0.21320000  1.0 0.1292939535
H  H26  1  0.12550000  0.81820000  0.78680000  1.0 0.1292939535
H  H27  1  0.78700000  0.03930000  0.07800000  1.0 0.1216273723
H  H28  1  0.21300000  0.96070000  0.92200000  1.0 0.1216273723
H  H29  1  0.68280000  0.89580000  0.08310000  1.0 0.1292939535
H  H30  1  0.31720000  0.10420000  0.91690000  1.0 0.1292939535
H  H31  1  0.65820000  0.90030000  0.21670000  1.0 0.1083900867
H  H32  1  0.34180000  0.09970000  0.78330000  1.0 0.1083900867
H  H33  1  0.95560000  0.24430000  0.71010000  1.0 0.1292939535
H  H34  1  0.04440000  0.75570000  0.28990000  1.0 0.1292939535
H  H35  1  0.01180000  0.39940000  0.82010000  1.0 0.1216273723
H  H36  1  0.98820000  0.60060000  0.17990000  1.0 0.1216273723
H  H37  1  0.90670000  0.48220000  0.80650000  1.0 0.1396542325
H  H38  1  0.09330000  0.51780000  0.19350000  1.0 0.1396542325
H  H39  1  0.74950000  0.40950000  0.67960000  1.0 0.1083900867
H  H40  1  0.25050000  0.59050000  0.32040000  1.0 0.1083900867
H  H41  1  0.90420000  0.04030000  0.68010000  1.0 0.1292939535
H  H42  1  0.09580000  0.95970000  0.31990000  1.0 0.1292939535
H  H43  1  0.09080000  0.09170000  0.75800000  1.0 0.1216273723
H  H44  1  0.90920000  0.90830000  0.24200000  1.0 0.1216273723
H  H45  1  0.22360000  0.17550000  0.70970000  1.0 0.1292939535
H  H46  1  0.77640000  0.82450000  0.29030000  1.0 0.1292939535
H  H47  1  0.16870000  0.20830000  0.59090000  1.0 0.1022910026
H  H48  1  0.83130000  0.79170000  0.40910000  1.0 0.1022910026
C  C1  1  0.45320000  0.58790000  0.99950000  1.0 0.1992796247
C  C2  1  0.54680000  0.41210000  0.00050000  1.0 0.1992796247
C  C3  1  0.27740000  0.43810000  0.81090000  1.0 0.2372454142
C  C4  1  0.72260000  0.56190000  0.18910000  1.0 0.2372454142
C  C5  1  0.35460000  0.50070000  0.98080000  1.0 0.1022910026
C  C6  1  0.64540000  0.49930000  0.01920000  1.0 0.1022910026
C  C7  1  0.27050000  0.43240000  0.89710000  1.0 0.1216273723
C  C8  1  0.72950000  0.56760000  0.10290000  1.0 0.1216273723
C  C9  1  0.18470000  0.34410000  0.96850000  1.0 0.1292939535
C  C10  1  0.81530000  0.65590000  0.03150000  1.0 0.1292939535
C  C11  1  0.26900000  0.41150000  0.05310000  1.0 0.1216273723
C  C12  1  0.73100000  0.58850000  0.94690000  1.0 0.1216273723
C  C13  1  0.28180000  0.40930000  0.14380000  1.0 0.1896351573
C  C14  1  0.71820000  0.59070000  0.85620000  1.0 0.1896351573
C  C15  1  0.19550000  0.35770000  0.16500000  1.0 -0.170374336
C  C16  1  0.80450000  0.64230000  0.83500000  1.0 -0.170374336
C  C17  1  0.21620000  0.36190000  0.25250000  1.0 -0.003870939
C  C18  1  0.78380000  0.63810000  0.74750000  1.0 -0.003870939
C  C19  1  0.32410000  0.41600000  0.31380000  1.0 -0.1305659248
C  C20  1  0.67590000  0.58400000  0.68620000  1.0 -0.1305659248
C  C21  1  0.40420000  0.46920000  0.28950000  1.0 0.0916031559
C  C22  1  0.59580000  0.53080000  0.71050000  1.0 0.0916031559
C  C23  1  0.09450000  0.24940000  0.95140000  1.0 0.1396542325
C  C24  1  0.90550000  0.75060000  0.04860000  1.0 0.1396542325
C  C25  1  0.98860000  0.22520000  0.90830000  1.0 -0.1516238565
C  C26  1  0.01140000  0.77480000  0.09170000  1.0 -0.1516238565
C  C27  1  0.90640000  0.13920000  0.89190000  1.0 -0.040141335
C  C28  1  0.09360000  0.86080000  0.10810000  1.0 -0.040141335
C  C29  1  0.93590000  0.07230000  0.91280000  1.0 -0.170374336
C  C30  1  0.06410000  0.92770000  0.08720000  1.0 -0.170374336
C  C31  1  0.04630000  0.09640000  0.95390000  1.0 0.0442736034
C  C32  1  0.95370000  0.90360000  0.04610000  1.0 0.0442736034
C  C33  1  0.97010000  0.48560000  0.59150000  1.0 0.1992796247
C  C34  1  0.02990000  0.51440000  0.40850000  1.0 0.1992796247
C  C35  1  0.72040000  0.36270000  0.46290000  1.0 0.2372454142
C  C36  1  0.27960000  0.63730000  0.53710000  1.0 0.2372454142
C  C37  1  0.92250000  0.38860000  0.51490000  1.0 0.1083900867
C  C38  1  0.07750000  0.61140000  0.48510000  1.0 0.1083900867
C  C39  1  0.80990000  0.32980000  0.45860000  1.0 0.1022910026
C  C40  1  0.19010000  0.67020000  0.54140000  1.0 0.1022910026
C  C41  1  0.85690000  0.21280000  0.37470000  1.0 0.1292939535
C  C42  1  0.14310000  0.78720000  0.62530000  1.0 0.1292939535
C  C43  1  0.97130000  0.27140000  0.42850000  1.0 0.1083900867
C  C44  1  0.02870000  0.72860000  0.57150000  1.0 0.1083900867
C  C45  1  0.07130000  0.25270000  0.41970000  1.0 0.1896351573
C  C46  1  0.92870000  0.74730000  0.58030000  1.0 0.1896351573
C  C47  1  0.06480000  0.16660000  0.35990000  1.0 -0.170374336
C  C48  1  0.93520000  0.83340000  0.64010000  1.0 -0.170374336
C  C49  1  0.16370000  0.15930000  0.35790000  1.0 -0.0194142723
C  C50  1  0.83630000  0.84070000  0.64210000  1.0 -0.0194142723
C  C51  1  0.26420000  0.23630000  0.41510000  1.0 -0.1305659248
C  C52  1  0.73580000  0.76370000  0.58490000  1.0 -0.1305659248
C  C53  1  0.26390000  0.31860000  0.47220000  1.0 0.0765826457
C  C54  1  0.73610000  0.68140000  0.52780000  1.0 0.0765826457
C  C55  1  0.81240000  0.12090000  0.29010000  1.0 0.1584169899
C  C56  1  0.18760000  0.87910000  0.70990000  1.0 0.1584169899
C  C57  1  0.82920000  0.12350000  0.21240000  1.0 -0.1752816404
C  C58  1  0.17080000  0.87650000  0.78760000  1.0 -0.1752816404
C  C59  1  0.77860000  0.03890000  0.13230000  1.0 -0.052896105
C  C60  1  0.22140000  0.96110000  0.86770000  1.0 -0.052896105
C  C61  1  0.71590000  0.95460000  0.13520000  1.0 -0.1305659248
C  C62  1  0.28410000  0.04540000  0.86480000  1.0 -0.1305659248
C  C63  1  0.70250000  0.95800000  0.21600000  1.0 0.0765826457
C  C64  1  0.29750000  0.04200000  0.78400000  1.0 0.0765826457
C  C65  1  0.49120000  0.99790000  0.38330000  1.0 0.2075241839
C  C66  1  0.50880000  0.00210000  0.61670000  1.0 0.2075241839
C  C67  1  0.57310000  0.83800000  0.38000000  1.0 0.2467900847
C  C68  1  0.42690000  0.16200000  0.62000000  1.0 0.2467900847
C  C69  1  0.60020000  0.01390000  0.43860000  1.0 0.1083900867
C  C70  1  0.39980000  0.98610000  0.56140000  1.0 0.1083900867
C  C71  1  0.64130000  0.94530000  0.43590000  1.0 0.1216273723
C  C72  1  0.35870000  0.05470000  0.56410000  1.0 0.1216273723
C  C73  1  0.81090000  0.06740000  0.54260000  1.0 0.1292939535
C  C74  1  0.18910000  0.93260000  0.45740000  1.0 0.1292939535
C  C75  1  0.76500000  0.13490000  0.55600000  1.0 0.1292939535
C  C76  1  0.23500000  0.86510000  0.44400000  1.0 0.1292939535
C  C77  1  0.81750000  0.23680000  0.63010000  1.0 0.1704962437
C  C78  1  0.18250000  0.76320000  0.36990000  1.0 0.1704962437
C  C79  1  0.91350000  0.27840000  0.70430000  1.0 -0.1516238565
C  C80  1  0.08650000  0.72160000  0.29570000  1.0 -0.1516238565
C  C81  1  0.94660000  0.37070000  0.76990000  1.0 -0.0194142723
C  C82  1  0.05340000  0.62930000  0.23010000  1.0 -0.0194142723
C  C83  1  0.88560000  0.42000000  0.76210000  1.0 -0.1305659248
C  C84  1  0.11440000  0.58000000  0.23790000  1.0 -0.1305659248
C  C85  1  0.79100000  0.37520000  0.68620000  1.0 0.0916031559
C  C86  1  0.20900000  0.62480000  0.31380000  1.0 0.0916031559
C  C87  1  0.93050000  0.09460000  0.58970000  1.0 0.1704962437
C  C88  1  0.06950000  0.90540000  0.41030000  1.0 0.1704962437
C  C89  1  0.95930000  0.07440000  0.66220000  1.0 -0.170374336
C  C90  1  0.04070000  0.92560000  0.33780000  1.0 -0.170374336
C  C91  1  0.06960000  0.10490000  0.70840000  1.0 -0.040141335
C  C92  1  0.93040000  0.89510000  0.29160000  1.0 -0.040141335
C  C93  1  0.14810000  0.15500000  0.68030000  1.0 -0.1094911176
C  C94  1  0.85190000  0.84500000  0.31970000  1.0 -0.1094911176
C  C95  1  0.11450000  0.17440000  0.60950000  1.0 0.0613575314
C  C96  1  0.88550000  0.82560000  0.39050000  1.0 0.0613575314
N  N1  1  0.53000000  0.63590000  0.08230000  1.0 -0.2512799011
N  N2  1  0.47000000  0.36410000  0.91770000  1.0 -0.2512799011
N  N3  1  0.60810000  0.71170000  0.08000000  1.0 -0.083230343
N  N4  1  0.39190000  0.28830000  0.92000000  1.0 -0.083230343
N  N5  1  0.57750000  0.70840000  0.99780000  1.0 -0.0889020518
N  N6  1  0.42250000  0.29160000  0.00220000  1.0 -0.0889020518
N  N7  1  0.47790000  0.62890000  0.94440000  1.0 -0.2695526223
N  N8  1  0.52210000  0.37110000  0.05560000  1.0 -0.2695526223
N  N9  1  0.35990000  0.43280000  0.78020000  1.0 -0.2204600016
N  N10  1  0.64010000  0.56720000  0.21980000  1.0 -0.2204600016
N  N11  1  0.33670000  0.43790000  0.70030000  1.0 -0.0708398188
N  N12  1  0.66330000  0.56210000  0.29970000  1.0 -0.0708398188
N  N13  1  0.24260000  0.44600000  0.68560000  1.0 -0.0194142723
N  N14  1  0.75740000  0.55400000  0.31440000  1.0 -0.0194142723
N  N15  1  0.20260000  0.44660000  0.75380000  1.0 -0.2406419098
N  N16  1  0.79740000  0.55340000  0.24620000  1.0 -0.2406419098
N  N17  1  0.35220000  0.48740000  0.05640000  1.0 -0.2512799011
N  N18  1  0.64780000  0.51260000  0.94360000  1.0 -0.2512799011
N  N19  1  0.18570000  0.35670000  0.89240000  1.0 -0.2695526223
N  N20  1  0.81430000  0.64330000  0.10760000  1.0 -0.2695526223
N  N21  1  0.38280000  0.46740000  0.20620000  1.0 -0.2306690449
N  N22  1  0.61720000  0.53260000  0.79380000  1.0 -0.2406419098
N  N23  1  0.13100000  0.18690000  0.97600000  1.0 -0.2960399504
N  N24  1  0.86900000  0.81310000  0.02400000  1.0 -0.2960399504
N  N25  1  0.08120000  0.53150000  0.63040000  1.0 -0.2512799011
N  N26  1  0.91880000  0.46850000  0.36960000  1.0 -0.2512799011
N  N27  1  0.10160000  0.61630000  0.69810000  1.0 -0.0708398188
N  N28  1  0.89840000  0.38370000  0.30190000  1.0 -0.0708398188
N  N29  1  0.00480000  0.61970000  0.69730000  1.0 -0.1094911176
N  N30  1  0.99520000  0.38030000  0.30270000  1.0 -0.1094911176
N  N31  1  0.91930000  0.53660000  0.62860000  1.0 -0.2771338488
N  N32  1  0.08070000  0.46340000  0.37140000  1.0 -0.2771338488
N  N33  1  0.62530000  0.31410000  0.47220000  1.0 -0.2204600016
N  N34  1  0.37470000  0.68590000  0.52780000  1.0 -0.2204600016
N  N35  1  0.56250000  0.36270000  0.46520000  1.0 -0.0889020518
N  N36  1  0.43750000  0.63730000  0.53480000  1.0 -0.0889020518
N  N37  1  0.61760000  0.43690000  0.45070000  1.0 -0.0889020518
N  N38  1  0.38240000  0.56310000  0.54930000  1.0 -0.0889020518
N  N39  1  0.71850000  0.43870000  0.44920000  1.0 -0.2306690449
N  N40  1  0.28150000  0.56130000  0.55080000  1.0 -0.2306690449
N  N41  1  0.99880000  0.35710000  0.49870000  1.0 -0.2512799011
N  N42  1  0.00120000  0.64290000  0.50130000  1.0 -0.2512799011
N  N43  1  0.77900000  0.24180000  0.39140000  1.0 -0.2512799011
N  N44  1  0.22100000  0.75820000  0.60860000  1.0 -0.2512799011
N  N45  1  0.16960000  0.32830000  0.47480000  1.0 -0.2406419098
N  N46  1  0.83040000  0.67170000  0.52520000  1.0 -0.2406419098
N  N47  1  0.74980000  0.04000000  0.29420000  1.0 -0.255831715
N  N48  1  0.25020000  0.96000000  0.70580000  1.0 -0.255831715
N  N49  1  0.46700000  0.07370000  0.39960000  1.0 -0.2512799011
N  N50  1  0.53300000  0.92630000  0.60040000  1.0 -0.2512799011
N  N51  1  0.36230000  0.03870000  0.34240000  1.0 -0.0889020518
N  N52  1  0.63770000  0.96130000  0.65760000  1.0 -0.0889020518
N  N53  1  0.32750000  0.94470000  0.29290000  1.0 -0.1094911176
N  N54  1  0.67250000  0.05530000  0.70710000  1.0 -0.1094911176
N  N55  1  0.40900000  0.91600000  0.31820000  1.0 -0.2695526223
N  N56  1  0.59100000  0.08400000  0.68180000  1.0 -0.2695526223
N  N57  1  0.58590000  0.78710000  0.30540000  1.0 -0.2406419098
N  N58  1  0.41410000  0.21290000  0.69460000  1.0 -0.2406419098
N  N59  1  0.51250000  0.69500000  0.28060000  1.0 -0.0194142723
N  N60  1  0.48750000  0.30500000  0.71940000  1.0 -0.0194142723
N  N61  1  0.45970000  0.69070000  0.33790000  1.0 -0.0708398188
N  N62  1  0.54030000  0.30930000  0.66210000  1.0 -0.0708398188
N  N63  1  0.49630000  0.78160000  0.40220000  1.0 -0.2306690449
N  N64  1  0.50370000  0.21840000  0.59780000  1.0 -0.2306690449
N  N65  1  0.66240000  0.10630000  0.50070000  1.0 -0.2512799011
N  N66  1  0.33760000  0.89370000  0.49930000  1.0 -0.2512799011
N  N67  1  0.74730000  0.97280000  0.48570000  1.0 -0.2512799011
N  N68  1  0.25270000  0.02720000  0.51430000  1.0 -0.2512799011
N  N69  1  0.75490000  0.28540000  0.62120000  1.0 -0.255831715
N  N70  1  0.24510000  0.71460000  0.37880000  1.0 -0.255831715
N  N71  1  0.00530000  0.14680000  0.56380000  1.0 -0.2695526223
N  N72  1  0.99470000  0.85320000  0.43620000  1.0 -0.2695526223
