# DDEC6 charges by PACMAN v1.1 (https://github.com/mtap-research/PACMAN-charge/)
data_QARLON_FSR_pacman
_symmetry_space_group_name_H-M   'P 1'
_cell_length_a   20.31410000
_cell_length_b   20.31410000
_cell_length_c   34.84800000
_cell_angle_alpha   70.61380000
_cell_angle_beta   109.38600000
_cell_angle_gamma   139.03000000
_symmetry_Int_Tables_number   1
_chemical_formula_structural   Zn3Fe3H56C78I10(N2O)6
_chemical_formula_sum   'Zn12 Fe12 H224 C312 I40 N48 O24'
_cell_volume   8816.98549597
_cell_formula_units_Z   4
loop_
 _symmetry_equiv_pos_site_id
 _symmetry_equiv_pos_as_xyz
  1  'x, y, z'
loop_
 _atom_site_type_symbol
 _atom_site_label
 _atom_site_symmetry_multiplicity
 _atom_site_fract_x
 _atom_site_fract_y
 _atom_site_fract_z
 _atom_site_occupancy
 _atom_site_charge
Zn  Zn1  1  0.49486000  0.75154000  0.92935000  1.0 0.2353529126
Zn  Zn2  1  0.75154000  0.49486000  0.57065000  1.0 0.2308318024
Zn  Zn3  1  0.50514000  0.24846000  0.07065000  1.0 0.2308318024
Zn  Zn4  1  0.24846000  0.50514000  0.42935000  1.0 0.2308318024
Zn  Zn5  1  0.01366000  0.81238000  0.07785000  1.0 0.3217442498
Zn  Zn6  1  0.81238000  0.01366000  0.42215000  1.0 0.3217442498
Zn  Zn7  1  0.98634000  0.18762000  0.92215000  1.0 0.3217442498
Zn  Zn8  1  0.18762000  0.98634000  0.57785000  1.0 0.3217442498
Zn  Zn9  1  0.67999000  0.01275000  0.72899000  1.0 0.4420896113
Zn  Zn10  1  0.01275000  0.67999000  0.77101000  1.0 0.4420896113
Zn  Zn11  1  0.32001000  0.98725000  0.27101000  1.0 0.4420896113
Zn  Zn12  1  0.98725000  0.32001000  0.22899000  1.0 0.4420896113
Fe  Fe1  1  0.25598000  0.60738000  0.62189000  1.0 0.2174046353
Fe  Fe2  1  0.60738000  0.25598000  0.87811000  1.0 0.2174046353
Fe  Fe3  1  0.74402000  0.39262000  0.37811000  1.0 0.2174046353
Fe  Fe4  1  0.39262000  0.74402000  0.12189000  1.0 0.2174046353
Fe  Fe5  1  0.52978000  0.59476000  0.81062000  1.0 0.201771611
Fe  Fe6  1  0.59476000  0.52978000  0.68938000  1.0 0.201771611
Fe  Fe7  1  0.47022000  0.40524000  0.18938000  1.0 0.201771611
Fe  Fe8  1  0.40524000  0.47022000  0.31062000  1.0 0.201771611
Fe  Fe9  1  0.85209000  0.88591000  0.25198000  1.0 0.0099423233
Fe  Fe10  1  0.88591000  0.85209000  0.24802000  1.0 0.0099423233
Fe  Fe11  1  0.14791000  0.11409000  0.74802000  1.0 0.0099423233
Fe  Fe12  1  0.11409000  0.14791000  0.75198000  1.0 0.0099423233
H  H1  1  0.39970000  0.53870000  0.95110000  1.0 0.0899225134
H  H2  1  0.53870000  0.39970000  0.54890000  1.0 0.0899225134
H  H3  1  0.60030000  0.46130000  0.04890000  1.0 0.0899225134
H  H4  1  0.46130000  0.60030000  0.45110000  1.0 0.0899225134
H  H5  1  0.30050000  0.39550000  0.99660000  1.0 0.1278809009
H  H6  1  0.39550000  0.30050000  0.50340000  1.0 0.1278809009
H  H7  1  0.69950000  0.60450000  0.00340000  1.0 0.1278809009
H  H8  1  0.60450000  0.69950000  0.49660000  1.0 0.1278809009
H  H9  1  0.30720000  0.54720000  0.05080000  1.0 0.1278809009
H  H10  1  0.54720000  0.30720000  0.44920000  1.0 0.1278809009
H  H11  1  0.69280000  0.45280000  0.94920000  1.0 0.1278809009
H  H12  1  0.45280000  0.69280000  0.55080000  1.0 0.1278809009
H  H13  1  0.40260000  0.68620000  0.00180000  1.0 0.0809100632
H  H14  1  0.68620000  0.40260000  0.49820000  1.0 0.0809100632
H  H15  1  0.59740000  0.31380000  0.99820000  1.0 0.0809100632
H  H16  1  0.31380000  0.59740000  0.50180000  1.0 0.0809100632
H  H17  1  0.12860000  0.14320000  0.02460000  1.0 0.1202462714
H  H18  1  0.14320000  0.12860000  0.47540000  1.0 0.1202462714
H  H19  1  0.87140000  0.85680000  0.97540000  1.0 0.1202462714
H  H20  1  0.85680000  0.87140000  0.52460000  1.0 0.1202462714
H  H21  1  0.08020000  0.99860000  0.02300000  1.0 0.070267631
H  H22  1  0.99860000  0.08020000  0.47700000  1.0 0.070267631
H  H23  1  0.91980000  0.00140000  0.97700000  1.0 0.070267631
H  H24  1  0.00140000  0.91980000  0.52300000  1.0 0.070267631
H  H25  1  0.03890000  0.90670000  0.13890000  1.0 0.0988233934
H  H26  1  0.90670000  0.03890000  0.36110000  1.0 0.0988233934
H  H27  1  0.96110000  0.09330000  0.86110000  1.0 0.0988233934
H  H28  1  0.09330000  0.96110000  0.63890000  1.0 0.0988233934
H  H29  1  0.08040000  0.04600000  0.14320000  1.0 0.1278809009
H  H30  1  0.04600000  0.08040000  0.35680000  1.0 0.1278809009
H  H31  1  0.91960000  0.95400000  0.85680000  1.0 0.1278809009
H  H32  1  0.95400000  0.91960000  0.64320000  1.0 0.1278809009
H  H33  1  0.09960000  0.39440000  0.09920000  1.0 0.1278809009
H  H34  1  0.39440000  0.09960000  0.40080000  1.0 0.1278809009
H  H35  1  0.90040000  0.60560000  0.90080000  1.0 0.1278809009
H  H36  1  0.60560000  0.90040000  0.59920000  1.0 0.1278809009
H  H37  1  0.04550000  0.40410000  0.14420000  1.0 0.0988233934
H  H38  1  0.40410000  0.04550000  0.35580000  1.0 0.0988233934
H  H39  1  0.95450000  0.59590000  0.85580000  1.0 0.0988233934
H  H40  1  0.59590000  0.95450000  0.64420000  1.0 0.0988233934
H  H41  1  0.02960000  0.20760000  0.22740000  1.0 0.0809100632
H  H42  1  0.20760000  0.02960000  0.27260000  1.0 0.0809100632
H  H43  1  0.97040000  0.79240000  0.77260000  1.0 0.0809100632
H  H44  1  0.79240000  0.97040000  0.72740000  1.0 0.0809100632
H  H45  1  0.07810000  0.18910000  0.18440000  1.0 0.0988233934
H  H46  1  0.18910000  0.07810000  0.31560000  1.0 0.0988233934
H  H47  1  0.92190000  0.81090000  0.81560000  1.0 0.0988233934
H  H48  1  0.81090000  0.92190000  0.68440000  1.0 0.0988233934
H  H49  1  0.50120000  0.82780000  0.84070000  1.0 0.0809100632
H  H50  1  0.82780000  0.50120000  0.65930000  1.0 0.0809100632
H  H51  1  0.49880000  0.17220000  0.15930000  1.0 0.0809100632
H  H52  1  0.17220000  0.49880000  0.34070000  1.0 0.0809100632
H  H53  1  0.39630000  0.78470000  0.77890000  1.0 0.1278809009
H  H54  1  0.78470000  0.39630000  0.72110000  1.0 0.1278809009
H  H55  1  0.60370000  0.21530000  0.22110000  1.0 0.1278809009
H  H56  1  0.21530000  0.60370000  0.27890000  1.0 0.1278809009
H  H57  1  0.16930000  0.51250000  0.83840000  1.0 0.1278809009
H  H58  1  0.51250000  0.16930000  0.66160000  1.0 0.1278809009
H  H59  1  0.83070000  0.48750000  0.16160000  1.0 0.1278809009
H  H60  1  0.48750000  0.83070000  0.33840000  1.0 0.1278809009
H  H61  1  0.27740000  0.56740000  0.89810000  1.0 0.0899225134
H  H62  1  0.56740000  0.27740000  0.60190000  1.0 0.0899225134
H  H63  1  0.72260000  0.43260000  0.10190000  1.0 0.0899225134
H  H64  1  0.43260000  0.72260000  0.39810000  1.0 0.0899225134
H  H65  1  0.87910000  0.37910000  0.67590000  1.0 0.1202462714
H  H66  1  0.37910000  0.87910000  0.82410000  1.0 0.1202462714
H  H67  1  0.12090000  0.62090000  0.32410000  1.0 0.1202462714
H  H68  1  0.62090000  0.12090000  0.17590000  1.0 0.1202462714
H  H69  1  0.74340000  0.20600000  0.67680000  1.0 0.0988233934
H  H70  1  0.20600000  0.74340000  0.82320000  1.0 0.0988233934
H  H71  1  0.25660000  0.79400000  0.32320000  1.0 0.0988233934
H  H72  1  0.79400000  0.25660000  0.17680000  1.0 0.0988233934
H  H73  1  0.89630000  0.16590000  0.76450000  1.0 0.0899225134
H  H74  1  0.16590000  0.89630000  0.73550000  1.0 0.0899225134
H  H75  1  0.10370000  0.83410000  0.23550000  1.0 0.0899225134
H  H76  1  0.83410000  0.10370000  0.26450000  1.0 0.0899225134
H  H77  1  0.03320000  0.33760000  0.76710000  1.0 0.1278809009
H  H78  1  0.33760000  0.03320000  0.73290000  1.0 0.1278809009
H  H79  1  0.96680000  0.66240000  0.23290000  1.0 0.1278809009
H  H80  1  0.66240000  0.96680000  0.26710000  1.0 0.1278809009
H  H81  1  0.02000000  0.63320000  0.63420000  1.0 0.0988233934
H  H82  1  0.63320000  0.02000000  0.86580000  1.0 0.0988233934
H  H83  1  0.98000000  0.36680000  0.36580000  1.0 0.0988233934
H  H84  1  0.36680000  0.98000000  0.13420000  1.0 0.0988233934
H  H85  1  0.04410000  0.76110000  0.58900000  1.0 0.070267631
H  H86  1  0.76110000  0.04410000  0.91100000  1.0 0.070267631
H  H87  1  0.95590000  0.23890000  0.41100000  1.0 0.070267631
H  H88  1  0.23890000  0.95590000  0.08900000  1.0 0.070267631
H  H89  1  0.29600000  0.96720000  0.65590000  1.0 0.0899225134
H  H90  1  0.96720000  0.29600000  0.84410000  1.0 0.0899225134
H  H91  1  0.70400000  0.03280000  0.34410000  1.0 0.0899225134
H  H92  1  0.03280000  0.70400000  0.15590000  1.0 0.0899225134
H  H93  1  0.28050000  0.84770000  0.70280000  1.0 0.1202462714
H  H94  1  0.84770000  0.28050000  0.79720000  1.0 0.1202462714
H  H95  1  0.71950000  0.15230000  0.29720000  1.0 0.1202462714
H  H96  1  0.15230000  0.71950000  0.20280000  1.0 0.1202462714
H  H97  1  0.33290000  0.67270000  0.69530000  1.0 0.1278809009
H  H98  1  0.67270000  0.33290000  0.80470000  1.0 0.1278809009
H  H99  1  0.66710000  0.32730000  0.30470000  1.0 0.1278809009
H  H100  1  0.32730000  0.66710000  0.19530000  1.0 0.1278809009
H  H101  1  0.29360000  0.75640000  0.63800000  1.0 0.1202462714
H  H102  1  0.75640000  0.29360000  0.86200000  1.0 0.1202462714
H  H103  1  0.70640000  0.24360000  0.36200000  1.0 0.1202462714
H  H104  1  0.24360000  0.70640000  0.13800000  1.0 0.1202462714
H  H105  1  0.12570000  0.62210000  0.59740000  1.0 0.1099587981
H  H106  1  0.62210000  0.12570000  0.90260000  1.0 0.1099587981
H  H107  1  0.87430000  0.37790000  0.40260000  1.0 0.1099587981
H  H108  1  0.37790000  0.87430000  0.09740000  1.0 0.1099587981
H  H109  1  0.05960000  0.45280000  0.63160000  1.0 0.1278809009
H  H110  1  0.45280000  0.05960000  0.86840000  1.0 0.1278809009
H  H111  1  0.94040000  0.54720000  0.36840000  1.0 0.1278809009
H  H112  1  0.54720000  0.94040000  0.13160000  1.0 0.1278809009
H  H113  1  0.24490000  0.49010000  0.71900000  1.0 0.1099587981
H  H114  1  0.49010000  0.24490000  0.78100000  1.0 0.1099587981
H  H115  1  0.75510000  0.50990000  0.28100000  1.0 0.1099587981
H  H116  1  0.50990000  0.75510000  0.21900000  1.0 0.1099587981
H  H117  1  0.44790000  0.69730000  0.63810000  1.0 0.1202462714
H  H118  1  0.69730000  0.44790000  0.86190000  1.0 0.1202462714
H  H119  1  0.55210000  0.30270000  0.36190000  1.0 0.1202462714
H  H120  1  0.30270000  0.55210000  0.13810000  1.0 0.1202462714
H  H121  1  0.41050000  0.78230000  0.57990000  1.0 0.1202462714
H  H122  1  0.78230000  0.41050000  0.92010000  1.0 0.1202462714
H  H123  1  0.58950000  0.21770000  0.42010000  1.0 0.1202462714
H  H124  1  0.21770000  0.58950000  0.07990000  1.0 0.1202462714
H  H125  1  0.24250000  0.64670000  0.53940000  1.0 0.1202462714
H  H126  1  0.64670000  0.24250000  0.96060000  1.0 0.1202462714
H  H127  1  0.75750000  0.35330000  0.46060000  1.0 0.1202462714
H  H128  1  0.35330000  0.75750000  0.03940000  1.0 0.1202462714
H  H129  1  0.17880000  0.47880000  0.57300000  1.0 0.1278809009
H  H130  1  0.47880000  0.17880000  0.92700000  1.0 0.1278809009
H  H131  1  0.82120000  0.52120000  0.42700000  1.0 0.1278809009
H  H132  1  0.52120000  0.82120000  0.07300000  1.0 0.1278809009
H  H133  1  0.12570000  0.08910000  0.94710000  1.0 0.0899225134
H  H134  1  0.08910000  0.12570000  0.55290000  1.0 0.0899225134
H  H135  1  0.87430000  0.91090000  0.05290000  1.0 0.0899225134
H  H136  1  0.91090000  0.87430000  0.44710000  1.0 0.0899225134
H  H137  1  0.24830000  0.23970000  0.97630000  1.0 0.0809100632
H  H138  1  0.23970000  0.24830000  0.52370000  1.0 0.0809100632
H  H139  1  0.75170000  0.76030000  0.02370000  1.0 0.0809100632
H  H140  1  0.76030000  0.75170000  0.47630000  1.0 0.0809100632
H  H141  1  0.41370000  0.36810000  0.95980000  1.0 0.0899225134
H  H142  1  0.36810000  0.41370000  0.54020000  1.0 0.0899225134
H  H143  1  0.58630000  0.63190000  0.04020000  1.0 0.0899225134
H  H144  1  0.63190000  0.58630000  0.45980000  1.0 0.0899225134
H  H145  1  0.45660000  0.34600000  0.91420000  1.0 0.0988233934
H  H146  1  0.34600000  0.45660000  0.58580000  1.0 0.0988233934
H  H147  1  0.54340000  0.65400000  0.08580000  1.0 0.0988233934
H  H148  1  0.65400000  0.54340000  0.41420000  1.0 0.0988233934
H  H149  1  0.33400000  0.19540000  0.88510000  1.0 0.2824891449
H  H150  1  0.19540000  0.33400000  0.61490000  1.0 0.2824891449
H  H151  1  0.66600000  0.80460000  0.11490000  1.0 0.2824891449
H  H152  1  0.80460000  0.66600000  0.38510000  1.0 0.2824891449
H  H153  1  0.16850000  0.06690000  0.90150000  1.0 0.1099587981
H  H154  1  0.06690000  0.16850000  0.59850000  1.0 0.1099587981
H  H155  1  0.83150000  0.93310000  0.09850000  1.0 0.1099587981
H  H156  1  0.93310000  0.83150000  0.40150000  1.0 0.1099587981
H  H157  1  0.53020000  0.76080000  0.74410000  1.0 0.0988233934
H  H158  1  0.76080000  0.53020000  0.75590000  1.0 0.0988233934
H  H159  1  0.46980000  0.23920000  0.25590000  1.0 0.0988233934
H  H160  1  0.23920000  0.46980000  0.24410000  1.0 0.0988233934
H  H161  1  0.08770000  0.23530000  0.75270000  1.0 0.1099587981
H  H162  1  0.23530000  0.08770000  0.74730000  1.0 0.1099587981
H  H163  1  0.91230000  0.76470000  0.24730000  1.0 0.1099587981
H  H164  1  0.76470000  0.91230000  0.25270000  1.0 0.1099587981
H  H165  1  0.66240000  0.60440000  0.79400000  1.0 0.1202462714
H  H166  1  0.60440000  0.66240000  0.70600000  1.0 0.1202462714
H  H167  1  0.33760000  0.39560000  0.20600000  1.0 0.1202462714
H  H168  1  0.39560000  0.33760000  0.29400000  1.0 0.1202462714
H  H169  1  0.55840000  0.48060000  0.85190000  1.0 0.1202462714
H  H170  1  0.48060000  0.55840000  0.64810000  1.0 0.1202462714
H  H171  1  0.44160000  0.51940000  0.14810000  1.0 0.1202462714
H  H172  1  0.51940000  0.44160000  0.35190000  1.0 0.1202462714
H  H173  1  0.56740000  0.57220000  0.89120000  1.0 0.1202462714
H  H174  1  0.57220000  0.56740000  0.60880000  1.0 0.1202462714
H  H175  1  0.43260000  0.42780000  0.10880000  1.0 0.1202462714
H  H176  1  0.42780000  0.43260000  0.39120000  1.0 0.1202462714
H  H177  1  0.67260000  0.75140000  0.85530000  1.0 0.0988233934
H  H178  1  0.75140000  0.67260000  0.64470000  1.0 0.0988233934
H  H179  1  0.32740000  0.24860000  0.14470000  1.0 0.0988233934
H  H180  1  0.24860000  0.32740000  0.35530000  1.0 0.0988233934
H  H181  1  0.76830000  0.85270000  0.79050000  1.0 0.1099587981
H  H182  1  0.85270000  0.76830000  0.70950000  1.0 0.1099587981
H  H183  1  0.23170000  0.14730000  0.20950000  1.0 0.1099587981
H  H184  1  0.14730000  0.23170000  0.29050000  1.0 0.1099587981
H  H185  1  0.94230000  0.97250000  0.18430000  1.0 0.0899225134
H  H186  1  0.97250000  0.94230000  0.31570000  1.0 0.0899225134
H  H187  1  0.05770000  0.02750000  0.81570000  1.0 0.0899225134
H  H188  1  0.02750000  0.05770000  0.68430000  1.0 0.0899225134
H  H189  1  0.78610000  0.92730000  0.17710000  1.0 0.2308318024
H  H190  1  0.92730000  0.78610000  0.32290000  1.0 0.2308318024
H  H191  1  0.21390000  0.07270000  0.82290000  1.0 0.2308318024
H  H192  1  0.07270000  0.21390000  0.67710000  1.0 0.2308318024
H  H193  1  0.65850000  0.75470000  0.21580000  1.0 0.0809100632
H  H194  1  0.75470000  0.65850000  0.28420000  1.0 0.0809100632
H  H195  1  0.34150000  0.24530000  0.78420000  1.0 0.0809100632
H  H196  1  0.24530000  0.34150000  0.71580000  1.0 0.0809100632
H  H197  1  0.73570000  0.69250000  0.24730000  1.0 0.0809100632
H  H198  1  0.69250000  0.73570000  0.25270000  1.0 0.0809100632
H  H199  1  0.26430000  0.30750000  0.75270000  1.0 0.0809100632
H  H200  1  0.30750000  0.26430000  0.74730000  1.0 0.0809100632
H  H201  1  0.07630000  0.03210000  0.23380000  1.0 0.0809100632
H  H202  1  0.03210000  0.07630000  0.26620000  1.0 0.0809100632
H  H203  1  0.92370000  0.96790000  0.76620000  1.0 0.0809100632
H  H204  1  0.96790000  0.92370000  0.73380000  1.0 0.0809100632
H  H205  1  0.03040000  0.87240000  0.24290000  1.0 0.1278809009
H  H206  1  0.87240000  0.03040000  0.25710000  1.0 0.1278809009
H  H207  1  0.96960000  0.12760000  0.75710000  1.0 0.1278809009
H  H208  1  0.12760000  0.96960000  0.74290000  1.0 0.1278809009
H  H209  1  0.85720000  0.74620000  0.20330000  1.0 0.1099587981
H  H210  1  0.74620000  0.85720000  0.29670000  1.0 0.1099587981
H  H211  1  0.14280000  0.25380000  0.79670000  1.0 0.1099587981
H  H212  1  0.25380000  0.14280000  0.70330000  1.0 0.1099587981
H  H213  1  0.80240000  0.82960000  0.16870000  1.0 0.1202462714
H  H214  1  0.82960000  0.80240000  0.33130000  1.0 0.1202462714
H  H215  1  0.19760000  0.17040000  0.83130000  1.0 0.1202462714
H  H216  1  0.17040000  0.19760000  0.66870000  1.0 0.1202462714
H  H217  1  0.98550000  0.08850000  0.19350000  1.0 0.0809100632
H  H218  1  0.08850000  0.98550000  0.30650000  1.0 0.0809100632
H  H219  1  0.01450000  0.91150000  0.80650000  1.0 0.0809100632
H  H220  1  0.91150000  0.01450000  0.69350000  1.0 0.0809100632
H  H221  1  0.35880000  0.51520000  0.66330000  1.0 0.1099587981
H  H222  1  0.51520000  0.35880000  0.83670000  1.0 0.1099587981
H  H223  1  0.64120000  0.48480000  0.33670000  1.0 0.1099587981
H  H224  1  0.48480000  0.64120000  0.16330000  1.0 0.1099587981
C  C1  1  0.37886000  0.53974000  0.97140000  1.0 0.0605222449
C  C2  1  0.53974000  0.37886000  0.52860000  1.0 0.0605222449
C  C3  1  0.62114000  0.46026000  0.02860000  1.0 0.0605222449
C  C4  1  0.46026000  0.62114000  0.47140000  1.0 0.0605222449
C  C5  1  0.32007000  0.45433000  0.99830000  1.0 -0.1509472848
C  C6  1  0.45433000  0.32007000  0.50170000  1.0 -0.1509472848
C  C7  1  0.67993000  0.54567000  0.00170000  1.0 -0.1509472848
C  C8  1  0.54567000  0.67993000  0.49830000  1.0 -0.1509472848
C  C9  1  0.28932000  0.45428000  0.02827000  1.0 0.0605222449
C  C10  1  0.45428000  0.28932000  0.47173000  1.0 0.0605222449
C  C11  1  0.71068000  0.54572000  0.97173000  1.0 0.0605222449
C  C12  1  0.54572000  0.71068000  0.52827000  1.0 0.0605222449
C  C13  1  0.32348000  0.54292000  0.02970000  1.0 -0.1415948778
C  C14  1  0.54292000  0.32348000  0.47030000  1.0 -0.1415948778
C  C15  1  0.67652000  0.45708000  0.97030000  1.0 -0.1415948778
C  C16  1  0.45708000  0.67652000  0.52970000  1.0 -0.1415948778
C  C17  1  0.38155000  0.62605000  0.00080000  1.0 0.070267631
C  C18  1  0.62605000  0.38155000  0.49920000  1.0 0.070267631
C  C19  1  0.61845000  0.37395000  0.99920000  1.0 0.070267631
C  C20  1  0.37395000  0.61845000  0.50080000  1.0 0.070267631
C  C21  1  0.22264000  0.36376000  0.05745000  1.0 0.35147679
C  C22  1  0.36376000  0.22264000  0.44255000  1.0 0.35147679
C  C23  1  0.77736000  0.63624000  0.94255000  1.0 0.35147679
C  C24  1  0.63624000  0.77736000  0.55745000  1.0 0.35147679
C  C25  1  0.14085000  0.20395000  0.08498000  1.0 0.35147679
C  C26  1  0.20395000  0.14085000  0.41502000  1.0 0.35147679
C  C27  1  0.85915000  0.79605000  0.91502000  1.0 0.35147679
C  C28  1  0.79605000  0.85915000  0.58498000  1.0 0.35147679
C  C29  1  0.13334000  0.28706000  0.10896000  1.0 0.3687861447
C  C30  1  0.28706000  0.13334000  0.39104000  1.0 0.3687861447
C  C31  1  0.86666000  0.71294000  0.89104000  1.0 0.3687861447
C  C32  1  0.71294000  0.86666000  0.60896000  1.0 0.3687861447
C  C33  1  0.10930000  0.11070000  0.08405000  1.0 0.0605222449
C  C34  1  0.11070000  0.10930000  0.41595000  1.0 0.0605222449
C  C35  1  0.89070000  0.88930000  0.91595000  1.0 0.0605222449
C  C36  1  0.88930000  0.89070000  0.58405000  1.0 0.0605222449
C  C37  1  0.10935000  0.09505000  0.04851000  1.0 -0.1817594509
C  C38  1  0.09505000  0.10935000  0.45149000  1.0 -0.1817594509
C  C39  1  0.89065000  0.90495000  0.95149000  1.0 -0.1817594509
C  C40  1  0.90495000  0.89065000  0.54851000  1.0 -0.1817594509
C  C41  1  0.08134000  0.00926000  0.04790000  1.0 0.0409491159
C  C42  1  0.00926000  0.08134000  0.45210000  1.0 0.0409491159
C  C43  1  0.91866000  0.99074000  0.95210000  1.0 0.0409491159
C  C44  1  0.99074000  0.91866000  0.54790000  1.0 0.0409491159
C  C45  1  0.05643000  0.95517000  0.11520000  1.0 0.0809100632
C  C46  1  0.95517000  0.05643000  0.38480000  1.0 0.0809100632
C  C47  1  0.94357000  0.04483000  0.88480000  1.0 0.0809100632
C  C48  1  0.04483000  0.94357000  0.61520000  1.0 0.0809100632
C  C49  1  0.08173000  0.03827000  0.11820000  1.0 -0.1817594509
C  C50  1  0.03827000  0.08173000  0.38180000  1.0 -0.1817594509
C  C51  1  0.91827000  0.96173000  0.88180000  1.0 -0.1817594509
C  C52  1  0.96173000  0.91827000  0.61820000  1.0 -0.1817594509
C  C53  1  0.09653000  0.29167000  0.13721000  1.0 0.0988233934
C  C54  1  0.29167000  0.09653000  0.36279000  1.0 0.0988233934
C  C55  1  0.90347000  0.70833000  0.86279000  1.0 0.0988233934
C  C56  1  0.70833000  0.90347000  0.63721000  1.0 0.0988233934
C  C57  1  0.08538000  0.35502000  0.12550000  1.0 -0.1509472848
C  C58  1  0.35502000  0.08538000  0.37450000  1.0 -0.1509472848
C  C59  1  0.91462000  0.64498000  0.87450000  1.0 -0.1509472848
C  C60  1  0.64498000  0.91462000  0.62550000  1.0 -0.1509472848
C  C61  1  0.05306000  0.36034000  0.15240000  1.0 0.070267631
C  C62  1  0.36034000  0.05306000  0.34760000  1.0 0.070267631
C  C63  1  0.94694000  0.63966000  0.84760000  1.0 0.070267631
C  C64  1  0.63966000  0.94694000  0.65240000  1.0 0.070267631
C  C65  1  0.04335000  0.24545000  0.20070000  1.0 0.0409491159
C  C66  1  0.24545000  0.04335000  0.29930000  1.0 0.0409491159
C  C67  1  0.95665000  0.75455000  0.79930000  1.0 0.0409491159
C  C68  1  0.75455000  0.95665000  0.70070000  1.0 0.0409491159
C  C69  1  0.07324000  0.23496000  0.17570000  1.0 -0.1716581363
C  C70  1  0.23496000  0.07324000  0.32430000  1.0 -0.1716581363
C  C71  1  0.92676000  0.76504000  0.82430000  1.0 -0.1716581363
C  C72  1  0.76504000  0.92676000  0.67570000  1.0 -0.1716581363
C  C73  1  0.43207000  0.76393000  0.84002000  1.0 0.0409491159
C  C74  1  0.76393000  0.43207000  0.65998000  1.0 0.0409491159
C  C75  1  0.56793000  0.23607000  0.15998000  1.0 0.0409491159
C  C76  1  0.23607000  0.56793000  0.34002000  1.0 0.0409491159
C  C77  1  0.37057000  0.73843000  0.80327000  1.0 -0.1586521842
C  C78  1  0.73843000  0.37057000  0.69673000  1.0 -0.1586521842
C  C79  1  0.62943000  0.26157000  0.19673000  1.0 -0.1509472848
C  C80  1  0.26157000  0.62943000  0.30327000  1.0 -0.1586521842
C  C81  1  0.27013000  0.64407000  0.80207000  1.0 0.0605222449
C  C82  1  0.64407000  0.27013000  0.69793000  1.0 0.0605222449
C  C83  1  0.72987000  0.35593000  0.19793000  1.0 0.0605222449
C  C84  1  0.35593000  0.72987000  0.30207000  1.0 0.0605222449
C  C85  1  0.23660000  0.57880000  0.83820000  1.0 -0.1509472848
C  C86  1  0.57880000  0.23660000  0.66180000  1.0 -0.1509472848
C  C87  1  0.76340000  0.42120000  0.16180000  1.0 -0.1509472848
C  C88  1  0.42120000  0.76340000  0.33820000  1.0 -0.1509472848
C  C89  1  0.30180000  0.61160000  0.87320000  1.0 0.0809100632
C  C90  1  0.61160000  0.30180000  0.62680000  1.0 0.0809100632
C  C91  1  0.69820000  0.38840000  0.12680000  1.0 0.0809100632
C  C92  1  0.38840000  0.69820000  0.37320000  1.0 0.0809100632
C  C93  1  0.19748000  0.61232000  0.76369000  1.0 0.3687861447
C  C94  1  0.61232000  0.19748000  0.73631000  1.0 0.3687861447
C  C95  1  0.80252000  0.38768000  0.23631000  1.0 0.3687861447
C  C96  1  0.38768000  0.80252000  0.26369000  1.0 0.3687861447
C  C97  1  0.13647000  0.64833000  0.70448000  1.0 0.3687861447
C  C98  1  0.64833000  0.13647000  0.79552000  1.0 0.3687861447
C  C99  1  0.86353000  0.35167000  0.29552000  1.0 0.3687861447
C  C100  1  0.35167000  0.86353000  0.20448000  1.0 0.3687861447
C  C101  1  0.05443000  0.48757000  0.72741000  1.0 0.3687861447
C  C102  1  0.48757000  0.05443000  0.77259000  1.0 0.3687861447
C  C103  1  0.94557000  0.51243000  0.27259000  1.0 0.3687861447
C  C104  1  0.51243000  0.94557000  0.22741000  1.0 0.3687861447
C  C105  1  0.96944000  0.37796000  0.72324000  1.0 0.070267631
C  C106  1  0.37796000  0.96944000  0.77676000  1.0 0.070267631
C  C107  1  0.03056000  0.62204000  0.27676000  1.0 0.070267631
C  C108  1  0.62204000  0.03056000  0.22324000  1.0 0.070267631
C  C109  1  0.88302000  0.33618000  0.69541000  1.0 -0.1509472848
C  C110  1  0.33618000  0.88302000  0.80459000  1.0 -0.1509472848
C  C111  1  0.11698000  0.66382000  0.30459000  1.0 -0.1509472848
C  C112  1  0.66382000  0.11698000  0.19541000  1.0 -0.1509472848
C  C113  1  0.80284000  0.23316000  0.69572000  1.0 0.0809100632
C  C114  1  0.23316000  0.80284000  0.80428000  1.0 0.0809100632
C  C115  1  0.19716000  0.76684000  0.30428000  1.0 0.0809100632
C  C116  1  0.76684000  0.19716000  0.19572000  1.0 0.0809100632
C  C117  1  0.89177000  0.20983000  0.74710000  1.0 0.0605222449
C  C118  1  0.20983000  0.89177000  0.75290000  1.0 0.0605222449
C  C119  1  0.10823000  0.79017000  0.25290000  1.0 0.0605222449
C  C120  1  0.79017000  0.10823000  0.24710000  1.0 0.0605222449
C  C121  1  0.97364000  0.31196000  0.74860000  1.0 -0.1509472848
C  C122  1  0.31196000  0.97364000  0.75140000  1.0 -0.1509472848
C  C123  1  0.02636000  0.68804000  0.25140000  1.0 -0.1509472848
C  C124  1  0.68804000  0.02636000  0.24860000  1.0 -0.1509472848
C  C125  1  0.14821000  0.72619000  0.67418000  1.0 0.070267631
C  C126  1  0.72619000  0.14821000  0.82582000  1.0 0.070267631
C  C127  1  0.85179000  0.27381000  0.32582000  1.0 0.070267631
C  C128  1  0.27381000  0.85179000  0.17418000  1.0 0.070267631
C  C129  1  0.07725000  0.70155000  0.63940000  1.0 -0.1586521842
C  C130  1  0.70155000  0.07725000  0.86060000  1.0 -0.1586521842
C  C131  1  0.92275000  0.29845000  0.36060000  1.0 -0.1586521842
C  C132  1  0.29845000  0.92275000  0.13940000  1.0 -0.1586521842
C  C133  1  0.09207000  0.77813000  0.61280000  1.0 0.0409491159
C  C134  1  0.77813000  0.09207000  0.88720000  1.0 0.0409491159
C  C135  1  0.90793000  0.22187000  0.38720000  1.0 0.0409491159
C  C136  1  0.22187000  0.90793000  0.11280000  1.0 0.0409491159
C  C137  1  0.23865000  0.89815000  0.65170000  1.0 0.0809100632
C  C138  1  0.89815000  0.23865000  0.84830000  1.0 0.0809100632
C  C139  1  0.76135000  0.10185000  0.34830000  1.0 0.0809100632
C  C140  1  0.10185000  0.76135000  0.15170000  1.0 0.0809100632
C  C141  1  0.23036000  0.82764000  0.67960000  1.0 -0.1509472848
C  C142  1  0.82764000  0.23036000  0.82040000  1.0 -0.1509472848
C  C143  1  0.76964000  0.17236000  0.32040000  1.0 -0.1509472848
C  C144  1  0.17236000  0.76964000  0.17960000  1.0 -0.1509472848
C  C145  1  0.27380000  0.63920000  0.67570000  1.0 -0.1716581363
C  C146  1  0.63920000  0.27380000  0.82430000  1.0 -0.1716581363
C  C147  1  0.72620000  0.36080000  0.32430000  1.0 -0.1716581363
C  C148  1  0.36080000  0.72620000  0.17570000  1.0 -0.1716581363
C  C149  1  0.25200000  0.68580000  0.64370000  1.0 -0.1198735967
C  C150  1  0.68580000  0.25200000  0.85630000  1.0 -0.1198735967
C  C151  1  0.74800000  0.31420000  0.35630000  1.0 -0.1198735967
C  C152  1  0.31420000  0.74800000  0.14370000  1.0 -0.1198735967
C  C153  1  0.15810000  0.61110000  0.62100000  1.0 -0.1415948778
C  C154  1  0.61110000  0.15810000  0.87900000  1.0 -0.1415948778
C  C155  1  0.84190000  0.38890000  0.37900000  1.0 -0.1415948778
C  C156  1  0.38890000  0.84190000  0.12100000  1.0 -0.1415948778
C  C157  1  0.12180000  0.51700000  0.64010000  1.0 -0.1586521842
C  C158  1  0.51700000  0.12180000  0.85990000  1.0 -0.1586521842
C  C159  1  0.87820000  0.48300000  0.35990000  1.0 -0.1586521842
C  C160  1  0.48300000  0.87820000  0.14010000  1.0 -0.1586521842
C  C161  1  0.19380000  0.53440000  0.67400000  1.0 -0.0605337418
C  C162  1  0.53440000  0.19380000  0.82600000  1.0 -0.0605337418
C  C163  1  0.80620000  0.46560000  0.32600000  1.0 -0.0605337418
C  C164  1  0.46560000  0.80620000  0.17400000  1.0 -0.0605337418
C  C165  1  0.18770000  0.46410000  0.69870000  1.0 0.2174046353
C  C166  1  0.46410000  0.18770000  0.80130000  1.0 0.2174046353
C  C167  1  0.81230000  0.53590000  0.30130000  1.0 0.2174046353
C  C168  1  0.53590000  0.81230000  0.19870000  1.0 0.2174046353
C  C169  1  0.38960000  0.66400000  0.61810000  1.0 -0.1912045043
C  C170  1  0.66400000  0.38960000  0.88190000  1.0 -0.1912045043
C  C171  1  0.61040000  0.33600000  0.38190000  1.0 -0.1912045043
C  C172  1  0.33600000  0.61040000  0.11810000  1.0 -0.1912045043
C  C173  1  0.36890000  0.71170000  0.58560000  1.0 -0.1415948778
C  C174  1  0.71170000  0.36890000  0.91440000  1.0 -0.1415948778
C  C175  1  0.63110000  0.28830000  0.41440000  1.0 -0.1415948778
C  C176  1  0.28830000  0.63110000  0.08560000  1.0 -0.1415948778
C  C177  1  0.27560000  0.63640000  0.56300000  1.0 -0.1509472848
C  C178  1  0.63640000  0.27560000  0.93700000  1.0 -0.1509472848
C  C179  1  0.72440000  0.36360000  0.43700000  1.0 -0.1509472848
C  C180  1  0.36360000  0.72440000  0.06300000  1.0 -0.1509472848
C  C181  1  0.24010000  0.54270000  0.58190000  1.0 -0.1716581363
C  C182  1  0.54270000  0.24010000  0.91810000  1.0 -0.1716581363
C  C183  1  0.75990000  0.45730000  0.41810000  1.0 -0.1716581363
C  C184  1  0.45730000  0.75990000  0.08190000  1.0 -0.1716581363
C  C185  1  0.31030000  0.55890000  0.61640000  1.0 -0.0710721888
C  C186  1  0.55890000  0.31030000  0.88360000  1.0 -0.0710721888
C  C187  1  0.68970000  0.44110000  0.38360000  1.0 -0.0710721888
C  C188  1  0.44110000  0.68970000  0.11640000  1.0 -0.0710721888
C  C189  1  0.19280000  0.14120000  0.94040000  1.0 -0.10209205
C  C190  1  0.14120000  0.19280000  0.55960000  1.0 -0.10209205
C  C191  1  0.80720000  0.85880000  0.05960000  1.0 -0.10209205
C  C192  1  0.85880000  0.80720000  0.44040000  1.0 -0.10209205
C  C193  1  0.26570000  0.23070000  0.95770000  1.0 -0.10209205
C  C194  1  0.23070000  0.26570000  0.54230000  1.0 -0.10209205
C  C195  1  0.73430000  0.76930000  0.04230000  1.0 -0.10209205
C  C196  1  0.76930000  0.73430000  0.45770000  1.0 -0.10209205
C  C197  1  0.36400000  0.30700000  0.94800000  1.0 -0.10209205
C  C198  1  0.30700000  0.36400000  0.55200000  1.0 -0.10209205
C  C199  1  0.63600000  0.69300000  0.05200000  1.0 -0.10209205
C  C200  1  0.69300000  0.63600000  0.44800000  1.0 -0.10209205
C  C201  1  0.38940000  0.29380000  0.92090000  1.0 -0.0796457514
C  C202  1  0.29380000  0.38940000  0.57910000  1.0 -0.0796457514
C  C203  1  0.61060000  0.70620000  0.07910000  1.0 -0.0796457514
C  C204  1  0.70620000  0.61060000  0.42090000  1.0 -0.0796457514
C  C205  1  0.31660000  0.20440000  0.90360000  1.0 -0.1415948778
C  C206  1  0.20440000  0.31660000  0.59640000  1.0 -0.1415948778
C  C207  1  0.68340000  0.79560000  0.09640000  1.0 -0.1415948778
C  C208  1  0.79560000  0.68340000  0.40360000  1.0 -0.1415948778
C  C209  1  0.21830000  0.12810000  0.91330000  1.0 -0.10209205
C  C210  1  0.12810000  0.21830000  0.58670000  1.0 -0.10209205
C  C211  1  0.78170000  0.87190000  0.08670000  1.0 -0.10209205
C  C212  1  0.87190000  0.78170000  0.41330000  1.0 -0.10209205
C  C213  1  0.50770000  0.70510000  0.73630000  1.0 0.207694763
C  C214  1  0.70510000  0.50770000  0.76370000  1.0 0.207694763
C  C215  1  0.49230000  0.29490000  0.26370000  1.0 0.207694763
C  C216  1  0.29490000  0.49230000  0.23630000  1.0 0.207694763
C  C217  1  0.06670000  0.17450000  0.76750000  1.0 0.0099423233
C  C218  1  0.17450000  0.06670000  0.73250000  1.0 0.0099423233
C  C219  1  0.93330000  0.82550000  0.23250000  1.0 0.0099423233
C  C220  1  0.82550000  0.93330000  0.26750000  1.0 0.0099423233
C  C221  1  0.65090000  0.61830000  0.81310000  1.0 -0.1716581363
C  C222  1  0.61830000  0.65090000  0.68690000  1.0 -0.1716581363
C  C223  1  0.34910000  0.38170000  0.18690000  1.0 -0.1716581363
C  C224  1  0.38170000  0.34910000  0.31310000  1.0 -0.1716581363
C  C225  1  0.59380000  0.54940000  0.84560000  1.0 -0.1198735967
C  C226  1  0.54940000  0.59380000  0.65440000  1.0 -0.1198735967
C  C227  1  0.40620000  0.45060000  0.15440000  1.0 -0.1198735967
C  C228  1  0.45060000  0.40620000  0.34560000  1.0 -0.1198735967
C  C229  1  0.59830000  0.60010000  0.86730000  1.0 -0.1198735967
C  C230  1  0.60010000  0.59830000  0.63270000  1.0 -0.1198735967
C  C231  1  0.40170000  0.39990000  0.13270000  1.0 -0.1198735967
C  C232  1  0.39990000  0.40170000  0.36730000  1.0 -0.1198735967
C  C233  1  0.65690000  0.70010000  0.84720000  1.0 -0.1912045043
C  C234  1  0.70010000  0.65690000  0.65280000  1.0 -0.1912045043
C  C235  1  0.34310000  0.29990000  0.15280000  1.0 -0.1912045043
C  C236  1  0.29990000  0.34310000  0.34720000  1.0 -0.1912045043
C  C237  1  0.68860000  0.71120000  0.81320000  1.0 -0.0605337418
C  C238  1  0.71120000  0.68860000  0.68680000  1.0 -0.0605337418
C  C239  1  0.31140000  0.28880000  0.18680000  1.0 -0.0605337418
C  C240  1  0.28880000  0.31140000  0.31320000  1.0 -0.0605337418
C  C241  1  0.75100000  0.79580000  0.78790000  1.0 0.1476225347
C  C242  1  0.79580000  0.75100000  0.71210000  1.0 0.1476225347
C  C243  1  0.24900000  0.20420000  0.21210000  1.0 0.1476225347
C  C244  1  0.20420000  0.24900000  0.28790000  1.0 0.1476225347
C  C245  1  0.43680000  0.60720000  0.80070000  1.0 -0.1315739792
C  C246  1  0.60720000  0.43680000  0.69930000  1.0 -0.1315739792
C  C247  1  0.56320000  0.39280000  0.19930000  1.0 -0.1315739792
C  C248  1  0.39280000  0.56320000  0.30070000  1.0 -0.1315739792
C  C249  1  0.38800000  0.50840000  0.82040000  1.0 -0.0161972431
C  C250  1  0.50840000  0.38800000  0.67960000  1.0 -0.0161972431
C  C251  1  0.61200000  0.49160000  0.17960000  1.0 -0.0161972431
C  C252  1  0.49160000  0.61200000  0.32040000  1.0 -0.0161972431
C  C253  1  0.38240000  0.46200000  0.79490000  1.0 -0.0710721888
C  C254  1  0.46200000  0.38240000  0.70510000  1.0 -0.0710721888
C  C255  1  0.61760000  0.53800000  0.20510000  1.0 -0.0710721888
C  C256  1  0.53800000  0.61760000  0.29490000  1.0 -0.0710721888
C  C257  1  0.42770000  0.53210000  0.75930000  1.0 -0.0796457514
C  C258  1  0.53210000  0.42770000  0.74070000  1.0 -0.0857113793
C  C259  1  0.57230000  0.46790000  0.24070000  1.0 -0.0796457514
C  C260  1  0.46790000  0.57230000  0.25930000  1.0 -0.0796457514
C  C261  1  0.46134000  0.62186000  0.76290000  1.0 -0.0796457514
C  C262  1  0.62186000  0.46134000  0.73710000  1.0 -0.0796457514
C  C263  1  0.53866000  0.37814000  0.23710000  1.0 -0.0796457514
C  C264  1  0.37814000  0.53866000  0.26290000  1.0 -0.0796457514
C  C265  1  0.88270000  0.91150000  0.19626000  1.0 -0.0441952072
C  C266  1  0.91150000  0.88270000  0.30374000  1.0 -0.0441952072
C  C267  1  0.11730000  0.08850000  0.80374000  1.0 -0.0441952072
C  C268  1  0.08850000  0.11730000  0.69626000  1.0 -0.0441952072
C  C269  1  0.79590000  0.88610000  0.19211000  1.0 -0.10209205
C  C270  1  0.88610000  0.79590000  0.30789000  1.0 -0.10209205
C  C271  1  0.20410000  0.11390000  0.80789000  1.0 -0.10209205
C  C272  1  0.11390000  0.20410000  0.69211000  1.0 -0.10209205
C  C273  1  0.72470000  0.79010000  0.21360000  1.0 -0.2345940232
C  C274  1  0.79010000  0.72470000  0.28640000  1.0 -0.2345940232
C  C275  1  0.27530000  0.20990000  0.78640000  1.0 -0.2345940232
C  C276  1  0.20990000  0.27530000  0.71360000  1.0 -0.2345940232
C  C277  1  0.76740000  0.75600000  0.23110000  1.0 -0.0710721888
C  C278  1  0.75600000  0.76740000  0.26890000  1.0 -0.0710721888
C  C279  1  0.23260000  0.24400000  0.76890000  1.0 -0.0710721888
C  C280  1  0.24400000  0.23260000  0.73110000  1.0 -0.0710721888
C  C281  1  0.86830000  0.83350000  0.22060000  1.0 0.0099423233
C  C282  1  0.83350000  0.86830000  0.27940000  1.0 0.0099423233
C  C283  1  0.13170000  0.16650000  0.77940000  1.0 0.0099423233
C  C284  1  0.16650000  0.13170000  0.72060000  1.0 0.0099423233
C  C285  1  0.01560000  0.97240000  0.22210000  1.0 -0.1912045043
C  C286  1  0.97240000  0.01560000  0.27790000  1.0 -0.1912045043
C  C287  1  0.98440000  0.02760000  0.77790000  1.0 -0.1912045043
C  C288  1  0.02760000  0.98440000  0.72210000  1.0 -0.1912045043
C  C289  1  0.98990000  0.88270000  0.22730000  1.0 0.0500707361
C  C290  1  0.88270000  0.98990000  0.27270000  1.0 0.0500707361
C  C291  1  0.01010000  0.11730000  0.77270000  1.0 0.0500707361
C  C292  1  0.11730000  0.01010000  0.72730000  1.0 0.0500707361
C  C293  1  0.89440000  0.81320000  0.20510000  1.0 -0.0796457514
C  C294  1  0.81320000  0.89440000  0.29490000  1.0 -0.0796457514
C  C295  1  0.10560000  0.18680000  0.79490000  1.0 -0.0796457514
C  C296  1  0.18680000  0.10560000  0.70510000  1.0 -0.0796457514
C  C297  1  0.86370000  0.85910000  0.18645000  1.0 -0.0857113793
C  C298  1  0.85910000  0.86370000  0.31355000  1.0 -0.0857113793
C  C299  1  0.13630000  0.14090000  0.81355000  1.0 -0.0857113793
C  C300  1  0.14090000  0.13630000  0.68645000  1.0 -0.0857113793
C  C301  1  0.93940000  0.95820000  0.19810000  1.0 -0.0710721888
C  C302  1  0.95820000  0.93940000  0.30190000  1.0 -0.0710721888
C  C303  1  0.06060000  0.04180000  0.80190000  1.0 -0.0710721888
C  C304  1  0.04180000  0.06060000  0.69810000  1.0 -0.0710721888
C  C305  1  0.93050000  0.02330000  0.18480000  1.0 0.0500707361
C  C306  1  0.02330000  0.93050000  0.31520000  1.0 0.0500707361
C  C307  1  0.06950000  0.97670000  0.81520000  1.0 0.0500707361
C  C308  1  0.97670000  0.06950000  0.68480000  1.0 0.0500707361
C  C309  1  0.30330000  0.48930000  0.64210000  1.0 0.201771611
C  C310  1  0.48930000  0.30330000  0.85790000  1.0 0.201771611
C  C311  1  0.69670000  0.51070000  0.35790000  1.0 0.201771611
C  C312  1  0.51070000  0.69670000  0.14210000  1.0 0.201771611
I  I1  1  0.50512000  0.88008000  0.93920000  1.0 0.0409491159
I  I2  1  0.88008000  0.50512000  0.56080000  1.0 0.0500707361
I  I3  1  0.49488000  0.11992000  0.06080000  1.0 0.0500707361
I  I4  1  0.11992000  0.49488000  0.43920000  1.0 0.0500707361
I  I5  1  0.64026000  0.79614000  0.92279000  1.0 0.0988233934
I  I6  1  0.79614000  0.64026000  0.57721000  1.0 0.0988233934
I  I7  1  0.35974000  0.20386000  0.07721000  1.0 0.1099587981
I  I8  1  0.20386000  0.35974000  0.42279000  1.0 0.0988233934
I  I9  1  0.51851000  0.96865000  0.70394000  1.0 -0.4516171724
I  I10  1  0.96865000  0.51851000  0.79606000  1.0 -0.4516171724
I  I11  1  0.48149000  0.03135000  0.29606000  1.0 -0.4516171724
I  I12  1  0.03135000  0.48149000  0.20394000  1.0 -0.4516171724
I  I13  1  0.70495000  0.94803000  0.80187000  1.0 -0.4575040251
I  I14  1  0.94803000  0.70495000  0.69813000  1.0 -0.4575040251
I  I15  1  0.29505000  0.05197000  0.19813000  1.0 -0.4575040251
I  I16  1  0.05197000  0.29505000  0.30187000  1.0 -0.4575040251
I  I17  1  0.03898000  0.82862000  0.00578000  1.0 0.1099587981
I  I18  1  0.82862000  0.03898000  0.49422000  1.0 0.1099587981
I  I19  1  0.96102000  0.17138000  0.99422000  1.0 0.1099587981
I  I20  1  0.17138000  0.96102000  0.50578000  1.0 0.1099587981
I  I21  1  0.84725000  0.66383000  0.10872000  1.0 -0.4575040251
I  I22  1  0.66383000  0.84725000  0.39128000  1.0 -0.4575040251
I  I23  1  0.15275000  0.33617000  0.89128000  1.0 -0.4575040251
I  I24  1  0.33617000  0.15275000  0.60872000  1.0 -0.4575040251
I  I25  1  0.53630000  0.88850000  0.94690000  1.0 0.070267631
I  I26  1  0.88850000  0.53630000  0.55310000  1.0 0.070267631
I  I27  1  0.46370000  0.11150000  0.05310000  1.0 0.070267631
I  I28  1  0.11150000  0.46370000  0.44690000  1.0 0.070267631
I  I29  1  0.63030000  0.76630000  0.92350000  1.0 0.1380414978
I  I30  1  0.76630000  0.63030000  0.57650000  1.0 0.1380414978
I  I31  1  0.36970000  0.23370000  0.07650000  1.0 0.1380414978
I  I32  1  0.23370000  0.36970000  0.42350000  1.0 0.1380414978
I  I33  1  0.01990000  0.81310000  0.01420000  1.0 0.0899225134
I  I34  1  0.81310000  0.01990000  0.48580000  1.0 0.0809100632
I  I35  1  0.98010000  0.18690000  0.98580000  1.0 0.0809100632
I  I36  1  0.18690000  0.98010000  0.51420000  1.0 0.0899225134
I  I37  1  0.85740000  0.66740000  0.11440000  1.0 -0.4575040251
I  I38  1  0.66740000  0.85740000  0.38560000  1.0 -0.4575040251
I  I39  1  0.14260000  0.33260000  0.88560000  1.0 -0.4575040251
I  I40  1  0.33260000  0.14260000  0.61440000  1.0 -0.4575040251
N  N1  1  0.40882000  0.62418000  0.97180000  1.0 -0.1912045043
N  N2  1  0.62418000  0.40882000  0.52820000  1.0 -0.1912045043
N  N3  1  0.59118000  0.37582000  0.02820000  1.0 -0.1912045043
N  N4  1  0.37582000  0.59118000  0.47180000  1.0 -0.1912045043
N  N5  1  0.19963000  0.28257000  0.05728000  1.0 -0.4174147084
N  N6  1  0.28257000  0.19963000  0.44272000  1.0 -0.4174147084
N  N7  1  0.80037000  0.71743000  0.94272000  1.0 -0.4174147084
N  N8  1  0.71743000  0.80037000  0.55728000  1.0 -0.4174147084
N  N9  1  0.10787000  0.20293000  0.11263000  1.0 -0.4066196441
N  N10  1  0.20293000  0.10787000  0.38737000  1.0 -0.4066196441
N  N11  1  0.89213000  0.79707000  0.88737000  1.0 -0.4066196441
N  N12  1  0.79707000  0.89213000  0.61263000  1.0 -0.4066196441
N  N13  1  0.18950000  0.36910000  0.08202000  1.0 -0.4000041941
N  N14  1  0.36910000  0.18950000  0.41798000  1.0 -0.4000041941
N  N15  1  0.81050000  0.63090000  0.91798000  1.0 -0.4000041941
N  N16  1  0.63090000  0.81050000  0.58202000  1.0 -0.4000041941
N  N17  1  0.05524000  0.93976000  0.08098000  1.0 -0.1912045043
N  N18  1  0.93976000  0.05524000  0.41902000  1.0 -0.1912045043
N  N19  1  0.94476000  0.06024000  0.91902000  1.0 -0.1912045043
N  N20  1  0.06024000  0.94476000  0.58098000  1.0 -0.1912045043
N  N21  1  0.03226000  0.30634000  0.18958000  1.0 -0.1912045043
N  N22  1  0.30634000  0.03226000  0.31042000  1.0 -0.1912045043
N  N23  1  0.96774000  0.69366000  0.81042000  1.0 -0.1912045043
N  N24  1  0.69366000  0.96774000  0.68958000  1.0 -0.1912045043
N  N25  1  0.39734000  0.70126000  0.87510000  1.0 -0.2035960763
N  N26  1  0.70126000  0.39734000  0.62490000  1.0 -0.2035960763
N  N27  1  0.60266000  0.29874000  0.12490000  1.0 -0.2035960763
N  N28  1  0.29874000  0.60266000  0.37510000  1.0 -0.2035960763
N  N29  1  0.21033000  0.68367000  0.73664000  1.0 -0.4000041941
N  N30  1  0.68367000  0.21033000  0.76336000  1.0 -0.4000041941
N  N31  1  0.78967000  0.31633000  0.26336000  1.0 -0.4000041941
N  N32  1  0.31633000  0.78967000  0.23664000  1.0 -0.4000041941
N  N33  1  0.05596000  0.55144000  0.69869000  1.0 -0.4000041941
N  N34  1  0.55144000  0.05596000  0.80131000  1.0 -0.4000041941
N  N35  1  0.94404000  0.44856000  0.30131000  1.0 -0.4000041941
N  N36  1  0.44856000  0.94404000  0.19869000  1.0 -0.4000041941
N  N37  1  0.12301000  0.51339000  0.76048000  1.0 -0.4066196441
N  N38  1  0.51339000  0.12301000  0.73952000  1.0 -0.4066196441
N  N39  1  0.87699000  0.48661000  0.23952000  1.0 -0.4066196441
N  N40  1  0.48661000  0.87699000  0.26048000  1.0 -0.4066196441
N  N41  1  0.80558000  0.16942000  0.72187000  1.0 -0.1912045043
N  N42  1  0.16942000  0.80558000  0.77813000  1.0 -0.1912045043
N  N43  1  0.19442000  0.83058000  0.27813000  1.0 -0.1912045043
N  N44  1  0.83058000  0.19442000  0.22187000  1.0 -0.1912045043
N  N45  1  0.17093000  0.87567000  0.61901000  1.0 -0.1817594509
N  N46  1  0.87567000  0.17093000  0.88099000  1.0 -0.1817594509
N  N47  1  0.82907000  0.12433000  0.38099000  1.0 -0.1817594509
N  N48  1  0.12433000  0.82907000  0.11901000  1.0 -0.1817594509
O  O1  1  0.12420000  0.37640000  0.69970000  1.0 -0.3546561658
O  O2  1  0.37640000  0.12420000  0.80030000  1.0 -0.3546561658
O  O3  1  0.87580000  0.62360000  0.30030000  1.0 -0.3546561658
O  O4  1  0.62360000  0.87580000  0.19970000  1.0 -0.3546561658
O  O5  1  0.52370000  0.71750000  0.70440000  1.0 -0.2470421999
O  O6  1  0.71750000  0.52370000  0.79560000  1.0 -0.2470421999
O  O7  1  0.47630000  0.28250000  0.29560000  1.0 -0.2470421999
O  O8  1  0.28250000  0.47630000  0.20440000  1.0 -0.2470421999
O  O9  1  0.97770000  0.09850000  0.77670000  1.0 -0.10209205
O  O10  1  0.09850000  0.97770000  0.72330000  1.0 -0.10209205
O  O11  1  0.02230000  0.90150000  0.22330000  1.0 -0.10209205
O  O12  1  0.90150000  0.02230000  0.27670000  1.0 -0.10209205
O  O13  1  0.78680000  0.80740000  0.76270000  1.0 -0.0100605208
O  O14  1  0.80740000  0.78680000  0.73730000  1.0 -0.0100605208
O  O15  1  0.21320000  0.19260000  0.23730000  1.0 -0.0100605208
O  O16  1  0.19260000  0.21320000  0.26270000  1.0 -0.0100605208
O  O17  1  0.86200000  0.00600000  0.16390000  1.0 -0.1817594509
O  O18  1  0.00600000  0.86200000  0.33610000  1.0 -0.1817594509
O  O19  1  0.13800000  0.99400000  0.83610000  1.0 -0.1817594509
O  O20  1  0.99400000  0.13800000  0.66390000  1.0 -0.1817594509
O  O21  1  0.24050000  0.40190000  0.64300000  1.0 -0.3116538435
O  O22  1  0.40190000  0.24050000  0.85700000  1.0 -0.3116538435
O  O23  1  0.75950000  0.59810000  0.35700000  1.0 -0.3116538435
O  O24  1  0.59810000  0.75950000  0.14300000  1.0 -0.3116538435
