# DDEC6 charges by PACMAN v1.1 (https://github.com/mtap-research/PACMAN-charge/)
data_QARMAA_FSR_pacman
_symmetry_space_group_name_H-M   'P 1'
_cell_length_a   19.06120000
_cell_length_b   19.06120000
_cell_length_c   30.21620000
_cell_angle_alpha   78.91320000
_cell_angle_beta   101.08700000
_cell_angle_gamma   133.34600000
_symmetry_Int_Tables_number   1
_chemical_formula_structural   Zn4FeH34C46(I3N4)3
_chemical_formula_sum   'Zn16 Fe4 H136 C184 I36 N48'
_cell_volume   7806.73106418
_cell_formula_units_Z   4
loop_
 _symmetry_equiv_pos_site_id
 _symmetry_equiv_pos_as_xyz
  1  'x, y, z'
loop_
 _atom_site_type_symbol
 _atom_site_label
 _atom_site_symmetry_multiplicity
 _atom_site_fract_x
 _atom_site_fract_y
 _atom_site_fract_z
 _atom_site_occupancy
 _atom_site_charge
Zn  Zn1  1  0.46350000  0.71994000  0.94920000  1.0 0.3422803718
Zn  Zn2  1  0.28006000  0.53650000  0.44920000  1.0 0.3422803718
Zn  Zn3  1  0.53220000  0.18500000  0.77240000  1.0 0.3056461915
Zn  Zn4  1  0.81500000  0.46780000  0.27240000  1.0 0.3056461915
Zn  Zn5  1  0.20017000  0.03915000  0.59369000  1.0 0.4505501792
Zn  Zn6  1  0.96085000  0.79983000  0.09369000  1.0 0.4505501792
Zn  Zn7  1  0.53750000  0.17910000  0.78110000  1.0 0.3422803718
Zn  Zn8  1  0.82090000  0.46250000  0.28110000  1.0 0.3422803718
Zn  Zn9  1  0.71994000  0.46350000  0.55080000  1.0 0.3422803718
Zn  Zn10  1  0.53650000  0.28006000  0.05080000  1.0 0.3422803718
Zn  Zn11  1  0.18500000  0.53220000  0.72760000  1.0 0.304325293
Zn  Zn12  1  0.46780000  0.81500000  0.22760000  1.0 0.304325293
Zn  Zn13  1  0.03915000  0.20017000  0.90631000  1.0 0.4505501792
Zn  Zn14  1  0.79983000  0.96085000  0.40631000  1.0 0.4505501792
Zn  Zn15  1  0.17910000  0.53750000  0.71890000  1.0 0.3422803718
Zn  Zn16  1  0.46250000  0.82090000  0.21890000  1.0 0.3422803718
Fe  Fe1  1  0.70837000  0.14425000  0.97849000  1.0 0.2039858505
Fe  Fe2  1  0.85575000  0.29163000  0.47849000  1.0 0.2039858505
Fe  Fe3  1  0.14425000  0.70837000  0.52151000  1.0 0.2039858505
Fe  Fe4  1  0.29163000  0.85575000  0.02151000  1.0 0.2039858505
H  H1  1  0.74160000  0.08940000  0.91380000  1.0 0.1001808697
H  H2  1  0.91060000  0.25840000  0.41380000  1.0 0.1001808697
H  H3  1  0.57730000  0.03710000  0.90990000  1.0 0.1001808697
H  H4  1  0.96290000  0.42270000  0.40990000  1.0 0.1001808697
H  H5  1  0.60400000  0.18020000  0.92580000  1.0 0.1106922491
H  H6  1  0.81980000  0.39600000  0.42580000  1.0 0.1106922491
H  H7  1  0.78490000  0.32110000  0.93950000  1.0 0.1192429274
H  H8  1  0.67890000  0.21510000  0.43950000  1.0 0.1192429274
H  H9  1  0.86990000  0.26490000  0.93210000  1.0 0.1106922491
H  H10  1  0.73510000  0.13010000  0.43210000  1.0 0.1106922491
H  H11  1  0.70070000  0.00150000  0.01730000  1.0 0.1106922491
H  H12  1  0.99850000  0.29930000  0.51730000  1.0 0.1106922491
H  H13  1  0.55340000  0.97840000  0.01930000  1.0 0.1192429274
H  H14  1  0.02160000  0.44660000  0.51930000  1.0 0.1192429274
H  H15  1  0.61200000  0.13520000  0.03980000  1.0 0.1192429274
H  H16  1  0.86480000  0.38800000  0.53980000  1.0 0.1192429274
H  H17  1  0.79540000  0.25520000  0.05050000  1.0 0.1192429274
H  H18  1  0.74480000  0.20460000  0.55050000  1.0 0.1192429274
H  H19  1  0.85020000  0.17260000  0.03660000  1.0 0.1106922491
H  H20  1  0.82740000  0.14980000  0.53660000  1.0 0.1106922491
H  H21  1  0.25050000  0.57170000  0.93040000  1.0 0.1001808697
H  H22  1  0.42830000  0.74950000  0.43040000  1.0 0.1001808697
H  H23  1  0.12677000  0.53997000  0.87950000  1.0 0.1192429274
H  H24  1  0.46003000  0.87323000  0.37950000  1.0 0.1192429274
H  H25  1  0.32320000  0.80320000  0.81550000  1.0 0.1001808697
H  H26  1  0.19680000  0.67680000  0.31550000  1.0 0.1001808697
H  H27  1  0.44150000  0.82550000  0.86830000  1.0 0.0594275704
H  H28  1  0.17450000  0.55850000  0.36830000  1.0 0.0594275704
H  H29  1  0.88430000  0.39970000  0.83800000  1.0 0.1373088762
H  H30  1  0.60030000  0.11570000  0.33800000  1.0 0.1373088762
H  H31  1  0.72270000  0.25910000  0.83190000  1.0 0.0901758104
H  H32  1  0.74090000  0.27730000  0.33190000  1.0 0.0901758104
H  H33  1  0.66800000  0.37680000  0.72750000  1.0 0.0695514054
H  H34  1  0.62320000  0.33200000  0.22750000  1.0 0.0695514054
H  H35  1  0.82850000  0.51710000  0.72830000  1.0 0.1298821369
H  H36  1  0.48290000  0.17150000  0.22830000  1.0 0.1298821369
H  H37  1  0.26850000  0.87650000  0.72090000  1.0 0.1106922491
H  H38  1  0.12350000  0.73150000  0.22090000  1.0 0.1106922491
H  H39  1  0.30240000  0.99160000  0.66230000  1.0 0.0795519583
H  H40  1  0.00840000  0.69760000  0.16230000  1.0 0.0795519583
H  H41  1  0.02860000  0.83720000  0.62480000  1.0 0.0795519583
H  H42  1  0.16280000  0.97140000  0.12480000  1.0 0.0795519583
H  H43  1  0.98550000  0.71530000  0.68020000  1.0 0.1106922491
H  H44  1  0.28470000  0.01450000  0.18020000  1.0 0.1106922491
H  H45  1  0.99090000  0.95170000  0.57200000  1.0 0.1001808697
H  H46  1  0.04830000  0.00910000  0.07200000  1.0 0.1001808697
H  H47  1  0.85420000  0.83580000  0.52850000  1.0 0.1298821369
H  H48  1  0.16420000  0.14580000  0.02850000  1.0 0.1298821369
H  H49  1  0.01970000  0.83950000  0.46190000  1.0 0.1298821369
H  H50  1  0.16050000  0.98030000  0.96190000  1.0 0.1298821369
H  H51  1  0.15160000  0.95180000  0.50790000  1.0 0.1001808697
H  H52  1  0.04820000  0.84840000  0.00790000  1.0 0.1001808697
H  H53  1  0.60660000  0.65380000  0.50850000  1.0 0.1298821369
H  H54  1  0.34620000  0.39340000  0.00850000  1.0 0.1298821369
H  H55  1  0.46220000  0.61100000  0.51090000  1.0 0.1001808697
H  H56  1  0.38900000  0.53780000  0.01090000  1.0 0.1001808697
H  H57  1  0.38150000  0.53450000  0.38730000  1.0 0.0795519583
H  H58  1  0.46550000  0.61850000  0.88730000  1.0 0.0795519583
H  H59  1  0.52500000  0.57540000  0.38170000  1.0 0.1298821369
H  H60  1  0.42460000  0.47500000  0.88170000  1.0 0.1298821369
H  H61  1  0.90980000  0.64980000  0.40590000  1.0 0.1298821369
H  H62  1  0.35020000  0.09020000  0.90590000  1.0 0.1298821369
H  H63  1  0.92120000  0.57480000  0.35930000  1.0 0.0795519583
H  H64  1  0.42520000  0.07880000  0.85930000  1.0 0.0795519583
H  H65  1  0.66930000  0.46570000  0.29580000  1.0 0.0901758104
H  H66  1  0.53430000  0.33070000  0.79580000  1.0 0.0901758104
H  H67  1  0.64790000  0.52810000  0.34400000  1.0 0.1298821369
H  H68  1  0.47190000  0.35210000  0.84400000  1.0 0.1298821369
H  H69  1  0.08940000  0.74160000  0.58620000  1.0 0.1001808697
H  H70  1  0.25840000  0.91060000  0.08620000  1.0 0.1001808697
H  H71  1  0.03710000  0.57730000  0.59010000  1.0 0.1001808697
H  H72  1  0.42270000  0.96290000  0.09010000  1.0 0.1001808697
H  H73  1  0.18020000  0.60400000  0.57420000  1.0 0.1106922491
H  H74  1  0.39600000  0.81980000  0.07420000  1.0 0.1106922491
H  H75  1  0.32110000  0.78490000  0.56050000  1.0 0.1192429274
H  H76  1  0.21510000  0.67890000  0.06050000  1.0 0.1192429274
H  H77  1  0.26490000  0.86990000  0.56790000  1.0 0.1106922491
H  H78  1  0.13010000  0.73510000  0.06790000  1.0 0.1106922491
H  H79  1  0.00150000  0.70070000  0.48270000  1.0 0.1106922491
H  H80  1  0.29930000  0.99850000  0.98270000  1.0 0.1106922491
H  H81  1  0.97840000  0.55340000  0.48070000  1.0 0.1192429274
H  H82  1  0.44660000  0.02160000  0.98070000  1.0 0.1192429274
H  H83  1  0.13520000  0.61200000  0.46020000  1.0 0.1192429274
H  H84  1  0.38800000  0.86480000  0.96020000  1.0 0.1192429274
H  H85  1  0.25520000  0.79540000  0.44950000  1.0 0.1192429274
H  H86  1  0.20460000  0.74480000  0.94950000  1.0 0.1192429274
H  H87  1  0.17260000  0.85020000  0.46340000  1.0 0.1106922491
H  H88  1  0.14980000  0.82740000  0.96340000  1.0 0.1106922491
H  H89  1  0.57170000  0.25050000  0.56960000  1.0 0.1001808697
H  H90  1  0.74950000  0.42830000  0.06960000  1.0 0.1001808697
H  H91  1  0.53997000  0.12677000  0.62050000  1.0 0.1192429274
H  H92  1  0.87323000  0.46003000  0.12050000  1.0 0.1192429274
H  H93  1  0.80320000  0.32320000  0.68450000  1.0 0.1001808697
H  H94  1  0.67680000  0.19680000  0.18450000  1.0 0.1001808697
H  H95  1  0.82550000  0.44150000  0.63170000  1.0 0.0594275704
H  H96  1  0.55850000  0.17450000  0.13170000  1.0 0.0594275704
H  H97  1  0.39970000  0.88430000  0.66200000  1.0 0.1373088762
H  H98  1  0.11570000  0.60030000  0.16200000  1.0 0.1373088762
H  H99  1  0.25910000  0.72270000  0.66810000  1.0 0.0901758104
H  H100  1  0.27730000  0.74090000  0.16810000  1.0 0.0901758104
H  H101  1  0.37680000  0.66800000  0.77250000  1.0 0.0695514054
H  H102  1  0.33200000  0.62320000  0.27250000  1.0 0.0695514054
H  H103  1  0.51710000  0.82850000  0.77170000  1.0 0.1298821369
H  H104  1  0.17150000  0.48290000  0.27170000  1.0 0.1298821369
H  H105  1  0.87650000  0.26850000  0.77910000  1.0 0.1106922491
H  H106  1  0.73150000  0.12350000  0.27910000  1.0 0.1106922491
H  H107  1  0.99160000  0.30240000  0.83770000  1.0 0.0795519583
H  H108  1  0.69760000  0.00840000  0.33770000  1.0 0.0795519583
H  H109  1  0.83720000  0.02860000  0.87520000  1.0 0.0795519583
H  H110  1  0.97140000  0.16280000  0.37520000  1.0 0.0795519583
H  H111  1  0.71530000  0.98550000  0.81980000  1.0 0.1106922491
H  H112  1  0.01450000  0.28470000  0.31980000  1.0 0.1106922491
H  H113  1  0.95170000  0.99090000  0.92800000  1.0 0.1001808697
H  H114  1  0.00910000  0.04830000  0.42800000  1.0 0.1001808697
H  H115  1  0.83580000  0.85420000  0.97150000  1.0 0.1298821369
H  H116  1  0.14580000  0.16420000  0.47150000  1.0 0.1298821369
H  H117  1  0.83950000  0.01970000  0.03810000  1.0 0.1298821369
H  H118  1  0.98030000  0.16050000  0.53810000  1.0 0.1298821369
H  H119  1  0.95180000  0.15160000  0.99210000  1.0 0.1001808697
H  H120  1  0.84840000  0.04820000  0.49210000  1.0 0.1001808697
H  H121  1  0.65380000  0.60660000  0.99150000  1.0 0.1298821369
H  H122  1  0.39340000  0.34620000  0.49150000  1.0 0.1298821369
H  H123  1  0.61100000  0.46220000  0.98910000  1.0 0.1001808697
H  H124  1  0.53780000  0.38900000  0.48910000  1.0 0.1001808697
H  H125  1  0.53450000  0.38150000  0.11270000  1.0 0.0795519583
H  H126  1  0.61850000  0.46550000  0.61270000  1.0 0.0795519583
H  H127  1  0.57540000  0.52500000  0.11830000  1.0 0.1298821369
H  H128  1  0.47500000  0.42460000  0.61830000  1.0 0.1298821369
H  H129  1  0.64980000  0.90980000  0.09410000  1.0 0.1298821369
H  H130  1  0.09020000  0.35020000  0.59410000  1.0 0.1298821369
H  H131  1  0.57480000  0.92120000  0.14070000  1.0 0.0795519583
H  H132  1  0.07880000  0.42520000  0.64070000  1.0 0.0795519583
H  H133  1  0.46570000  0.66930000  0.20420000  1.0 0.0901758104
H  H134  1  0.33070000  0.53430000  0.70420000  1.0 0.0901758104
H  H135  1  0.52810000  0.64790000  0.15600000  1.0 0.1298821369
H  H136  1  0.35210000  0.47190000  0.65600000  1.0 0.1298821369
C  C1  1  0.73010000  0.12870000  0.91840000  1.0 -0.1598245807
C  C2  1  0.87130000  0.26990000  0.41840000  1.0 -0.1515531979
C  C3  1  0.63820000  0.09940000  0.91620000  1.0 -0.1960080845
C  C4  1  0.90060000  0.36180000  0.41620000  1.0 -0.1960080845
C  C5  1  0.65310000  0.17950000  0.92510000  1.0 -0.1515531979
C  C6  1  0.82050000  0.34690000  0.42510000  1.0 -0.1515531979
C  C7  1  0.75430000  0.25830000  0.93280000  1.0 -0.1515531979
C  C8  1  0.74170000  0.24570000  0.43280000  1.0 -0.1515531979
C  C9  1  0.80190000  0.22690000  0.92860000  1.0 -0.1515531979
C  C10  1  0.77310000  0.19810000  0.42860000  1.0 -0.1515531979
C  C11  1  0.70140000  0.04860000  0.02410000  1.0 -0.1515531979
C  C12  1  0.95140000  0.29860000  0.52410000  1.0 -0.1598245807
C  C13  1  0.61890000  0.03570000  0.02520000  1.0 -0.1306167458
C  C14  1  0.96430000  0.38110000  0.52520000  1.0 -0.1306167458
C  C15  1  0.65170000  0.12350000  0.03670000  1.0 -0.140215543
C  C16  1  0.87650000  0.34830000  0.53670000  1.0 -0.140215543
C  C17  1  0.75450000  0.19070000  0.04270000  1.0 -0.140215543
C  C18  1  0.80930000  0.24550000  0.54270000  1.0 -0.140215543
C  C19  1  0.78520000  0.14440000  0.03490000  1.0 -0.140215543
C  C20  1  0.85560000  0.21480000  0.53490000  1.0 -0.140215543
C  C21  1  0.26600000  0.61900000  0.90610000  1.0 0.0795519583
C  C22  1  0.38100000  0.73400000  0.40610000  1.0 0.0795519583
C  C23  1  0.19130000  0.60010000  0.87630000  1.0 -0.1710794874
C  C24  1  0.39990000  0.80870000  0.37630000  1.0 -0.1710794874
C  C25  1  0.21060000  0.66860000  0.84200000  1.0 0.0594275704
C  C26  1  0.33140000  0.78940000  0.34200000  1.0 0.0594275704
C  C27  1  0.30610000  0.75370000  0.83880000  1.0 -0.1710794874
C  C28  1  0.24630000  0.69390000  0.33880000  1.0 -0.1710794874
C  C29  1  0.37630000  0.76590000  0.87020000  1.0 0.050705159
C  C30  1  0.23410000  0.62370000  0.37020000  1.0 0.050705159
C  C31  1  0.13320000  0.65320000  0.80920000  1.0 0.356718219
C  C32  1  0.34680000  0.86680000  0.30920000  1.0 0.356718219
C  C33  1  0.97840000  0.56540000  0.78300000  1.0 0.3345659479
C  C34  1  0.43460000  0.02160000  0.28300000  1.0 0.3345659479
C  C35  1  0.09400000  0.71000000  0.74690000  1.0 0.3538142547
C  C36  1  0.29000000  0.90600000  0.24690000  1.0 0.3538142547
C  C37  1  0.87400000  0.47460000  0.78350000  1.0 0.0695514054
C  C38  1  0.52540000  0.12600000  0.28350000  1.0 0.0695514054
C  C39  1  0.84120000  0.39640000  0.81460000  1.0 -0.1598245807
C  C40  1  0.60360000  0.15880000  0.31460000  1.0 -0.1598245807
C  C41  1  0.74470000  0.31350000  0.81100000  1.0 0.0695514054
C  C42  1  0.68650000  0.25530000  0.31100000  1.0 0.0695514054
C  C43  1  0.71300000  0.38140000  0.75010000  1.0 0.0421839456
C  C44  1  0.61860000  0.28700000  0.25010000  1.0 0.0421839456
C  C45  1  0.80800000  0.46520000  0.75070000  1.0 -0.1515531979
C  C46  1  0.53480000  0.19200000  0.25070000  1.0 -0.1515531979
C  C47  1  0.12170000  0.78390000  0.70840000  1.0 0.0695514054
C  C48  1  0.21610000  0.87830000  0.20840000  1.0 0.0695514054
C  C49  1  0.21730000  0.86670000  0.70170000  1.0 -0.1710794874
C  C50  1  0.13330000  0.78270000  0.20170000  1.0 -0.1710794874
C  C51  1  0.23680000  0.93480000  0.66650000  1.0 0.0695514054
C  C52  1  0.06520000  0.76320000  0.16650000  1.0 0.0695514054
C  C53  1  0.07830000  0.84510000  0.64470000  1.0 0.0695514054
C  C54  1  0.15490000  0.92170000  0.14470000  1.0 0.0695514054
C  C55  1  0.05170000  0.77270000  0.67810000  1.0 -0.1710794874
C  C56  1  0.22730000  0.94830000  0.17810000  1.0 -0.1710794874
C  C57  1  0.99650000  0.92670000  0.55000000  1.0 0.050705159
C  C58  1  0.07330000  0.00350000  0.05000000  1.0 0.050705159
C  C59  1  0.91510000  0.85830000  0.52390000  1.0 -0.1598245807
C  C60  1  0.14170000  0.08490000  0.02390000  1.0 -0.1598245807
C  C61  1  0.92154000  0.82266000  0.49140000  1.0 0.050705159
C  C62  1  0.17734000  0.07846000  0.99140000  1.0 0.050705159
C  C63  1  0.01180000  0.86020000  0.48520000  1.0 -0.1598245807
C  C64  1  0.13980000  0.98820000  0.98520000  1.0 -0.1598245807
C  C65  1  0.08990000  0.92710000  0.51260000  1.0 0.0594275704
C  C66  1  0.07290000  0.91010000  0.01260000  1.0 0.0594275704
C  C67  1  0.83495000  0.74445000  0.46440000  1.0 0.356718219
C  C68  1  0.25555000  0.16505000  0.96440000  1.0 0.356718219
C  C69  1  0.67598000  0.64782000  0.44230000  1.0 0.3681872517
C  C70  1  0.35218000  0.32402000  0.94230000  1.0 0.3681872517
C  C71  1  0.76780000  0.64120000  0.41080000  1.0 0.3681872517
C  C72  1  0.35880000  0.23220000  0.91080000  1.0 0.3681872517
C  C73  1  0.58150000  0.61810000  0.44480000  1.0 0.0594275704
C  C74  1  0.38190000  0.41850000  0.94480000  1.0 0.0594275704
C  C75  1  0.56060000  0.62860000  0.48290000  1.0 -0.1515531979
C  C76  1  0.37140000  0.43940000  0.98290000  1.0 -0.1515531979
C  C77  1  0.47480000  0.60320000  0.48410000  1.0 0.0594275704
C  C78  1  0.39680000  0.52520000  0.98410000  1.0 0.0594275704
C  C79  1  0.42820000  0.55900000  0.41270000  1.0 0.0594275704
C  C80  1  0.44100000  0.57180000  0.91270000  1.0 0.0594275704
C  C81  1  0.51370000  0.58310000  0.40890000  1.0 -0.1515531979
C  C82  1  0.41690000  0.48630000  0.90890000  1.0 -0.1515531979
C  C83  1  0.77800000  0.59800000  0.37950000  1.0 0.0695514054
C  C84  1  0.40200000  0.22200000  0.87950000  1.0 0.0695514054
C  C85  1  0.85860000  0.61100000  0.38360000  1.0 -0.1185013436
C  C86  1  0.38900000  0.14140000  0.88360000  1.0 -0.1185013436
C  C87  1  0.86580000  0.56740000  0.35530000  1.0 0.0421839456
C  C88  1  0.43260000  0.13420000  0.85530000  1.0 0.0421839456
C  C89  1  0.71890000  0.50290000  0.31890000  1.0 0.050705159
C  C90  1  0.49710000  0.28110000  0.81890000  1.0 0.050705159
C  C91  1  0.70630000  0.54110000  0.34700000  1.0 -0.140215543
C  C92  1  0.45890000  0.29370000  0.84700000  1.0 -0.140215543
C  C93  1  0.12870000  0.73010000  0.58160000  1.0 -0.1515531979
C  C94  1  0.26990000  0.87130000  0.08160000  1.0 -0.1515531979
C  C95  1  0.09940000  0.63820000  0.58380000  1.0 -0.1960080845
C  C96  1  0.36180000  0.90060000  0.08380000  1.0 -0.1960080845
C  C97  1  0.17950000  0.65310000  0.57490000  1.0 -0.1515531979
C  C98  1  0.34690000  0.82050000  0.07490000  1.0 -0.1515531979
C  C99  1  0.25830000  0.75430000  0.56720000  1.0 -0.1515531979
C  C100  1  0.24570000  0.74170000  0.06720000  1.0 -0.1515531979
C  C101  1  0.22690000  0.80190000  0.57140000  1.0 -0.1515531979
C  C102  1  0.19810000  0.77310000  0.07140000  1.0 -0.1515531979
C  C103  1  0.04860000  0.70140000  0.47590000  1.0 -0.1598245807
C  C104  1  0.29860000  0.95140000  0.97590000  1.0 -0.1598245807
C  C105  1  0.03570000  0.61890000  0.47480000  1.0 -0.1306167458
C  C106  1  0.38110000  0.96430000  0.97480000  1.0 -0.1306167458
C  C107  1  0.12350000  0.65170000  0.46330000  1.0 -0.140215543
C  C108  1  0.34830000  0.87650000  0.96330000  1.0 -0.140215543
C  C109  1  0.19070000  0.75450000  0.45730000  1.0 -0.140215543
C  C110  1  0.24550000  0.80930000  0.95730000  1.0 -0.140215543
C  C111  1  0.14440000  0.78520000  0.46510000  1.0 -0.140215543
C  C112  1  0.21480000  0.85560000  0.96510000  1.0 -0.140215543
C  C113  1  0.61900000  0.26600000  0.59390000  1.0 0.0795519583
C  C114  1  0.73400000  0.38100000  0.09390000  1.0 0.0795519583
C  C115  1  0.60010000  0.19130000  0.62370000  1.0 -0.1710794874
C  C116  1  0.80870000  0.39990000  0.12370000  1.0 -0.1710794874
C  C117  1  0.66860000  0.21060000  0.65800000  1.0 0.0594275704
C  C118  1  0.78940000  0.33140000  0.15800000  1.0 0.0594275704
C  C119  1  0.75370000  0.30610000  0.66120000  1.0 -0.1710794874
C  C120  1  0.69390000  0.24630000  0.16120000  1.0 -0.1710794874
C  C121  1  0.76590000  0.37630000  0.62980000  1.0 0.050705159
C  C122  1  0.62370000  0.23410000  0.12980000  1.0 0.050705159
C  C123  1  0.65320000  0.13320000  0.69080000  1.0 0.356718219
C  C124  1  0.86680000  0.34680000  0.19080000  1.0 0.356718219
C  C125  1  0.56540000  0.97840000  0.71700000  1.0 0.3345659479
C  C126  1  0.02160000  0.43460000  0.21700000  1.0 0.3422803718
C  C127  1  0.71000000  0.09400000  0.75310000  1.0 0.3538142547
C  C128  1  0.90600000  0.29000000  0.25310000  1.0 0.3538142547
C  C129  1  0.47460000  0.87400000  0.71650000  1.0 0.0695514054
C  C130  1  0.12600000  0.52540000  0.21650000  1.0 0.0695514054
C  C131  1  0.39640000  0.84120000  0.68540000  1.0 -0.1598245807
C  C132  1  0.15880000  0.60360000  0.18540000  1.0 -0.1598245807
C  C133  1  0.31350000  0.74470000  0.68900000  1.0 0.0695514054
C  C134  1  0.25530000  0.68650000  0.18900000  1.0 0.0695514054
C  C135  1  0.38140000  0.71300000  0.74990000  1.0 0.0421839456
C  C136  1  0.28700000  0.61860000  0.24990000  1.0 0.0421839456
C  C137  1  0.46520000  0.80800000  0.74930000  1.0 -0.1515531979
C  C138  1  0.19200000  0.53480000  0.24930000  1.0 -0.1515531979
C  C139  1  0.78390000  0.12170000  0.79160000  1.0 0.0695514054
C  C140  1  0.87830000  0.21610000  0.29160000  1.0 0.0695514054
C  C141  1  0.86670000  0.21730000  0.79830000  1.0 -0.1710794874
C  C142  1  0.78270000  0.13330000  0.29830000  1.0 -0.1710794874
C  C143  1  0.93480000  0.23680000  0.83350000  1.0 0.0695514054
C  C144  1  0.76320000  0.06520000  0.33350000  1.0 0.0695514054
C  C145  1  0.84510000  0.07830000  0.85530000  1.0 0.0695514054
C  C146  1  0.92170000  0.15490000  0.35530000  1.0 0.0695514054
C  C147  1  0.77270000  0.05170000  0.82190000  1.0 -0.1710794874
C  C148  1  0.94830000  0.22730000  0.32190000  1.0 -0.1710794874
C  C149  1  0.92670000  0.99650000  0.95000000  1.0 0.050705159
C  C150  1  0.00350000  0.07330000  0.45000000  1.0 0.050705159
C  C151  1  0.85830000  0.91510000  0.97610000  1.0 -0.1598245807
C  C152  1  0.08490000  0.14170000  0.47610000  1.0 -0.1598245807
C  C153  1  0.82266000  0.92154000  0.00860000  1.0 0.050705159
C  C154  1  0.07846000  0.17734000  0.50860000  1.0 0.050705159
C  C155  1  0.86020000  0.01180000  0.01480000  1.0 -0.1598245807
C  C156  1  0.98820000  0.13980000  0.51480000  1.0 -0.1598245807
C  C157  1  0.92710000  0.08990000  0.98740000  1.0 0.0594275704
C  C158  1  0.91010000  0.07290000  0.48740000  1.0 0.0594275704
C  C159  1  0.74445000  0.83495000  0.03560000  1.0 0.356718219
C  C160  1  0.16505000  0.25555000  0.53560000  1.0 0.356718219
C  C161  1  0.64782000  0.67598000  0.05770000  1.0 0.3681872517
C  C162  1  0.32402000  0.35218000  0.55770000  1.0 0.3681872517
C  C163  1  0.64120000  0.76780000  0.08920000  1.0 0.3681872517
C  C164  1  0.23220000  0.35880000  0.58920000  1.0 0.3681872517
C  C165  1  0.61810000  0.58150000  0.05520000  1.0 0.0594275704
C  C166  1  0.41850000  0.38190000  0.55520000  1.0 0.0594275704
C  C167  1  0.62860000  0.56060000  0.01710000  1.0 -0.1515531979
C  C168  1  0.43940000  0.37140000  0.51710000  1.0 -0.1515531979
C  C169  1  0.60320000  0.47480000  0.01590000  1.0 0.0594275704
C  C170  1  0.52520000  0.39680000  0.51590000  1.0 0.0594275704
C  C171  1  0.55900000  0.42820000  0.08730000  1.0 0.0594275704
C  C172  1  0.57180000  0.44100000  0.58730000  1.0 0.0594275704
C  C173  1  0.58310000  0.51370000  0.09110000  1.0 -0.1515531979
C  C174  1  0.48630000  0.41690000  0.59110000  1.0 -0.1515531979
C  C175  1  0.59800000  0.77800000  0.12050000  1.0 0.0695514054
C  C176  1  0.22200000  0.40200000  0.62050000  1.0 0.0695514054
C  C177  1  0.61100000  0.85860000  0.11640000  1.0 -0.1185013436
C  C178  1  0.14140000  0.38900000  0.61640000  1.0 -0.1185013436
C  C179  1  0.56740000  0.86580000  0.14470000  1.0 0.0421839456
C  C180  1  0.13420000  0.43260000  0.64470000  1.0 0.0421839456
C  C181  1  0.50290000  0.71890000  0.18110000  1.0 0.050705159
C  C182  1  0.28110000  0.49710000  0.68110000  1.0 0.050705159
C  C183  1  0.54110000  0.70630000  0.15300000  1.0 -0.140215543
C  C184  1  0.29370000  0.45890000  0.65300000  1.0 -0.140215543
I  I1  1  0.42327000  0.71673000  0.02422000  1.0 -0.4496056333
I  I2  1  0.28327000  0.57673000  0.52422000  1.0 -0.4496056333
I  I3  1  0.62270000  0.85570000  0.91850000  1.0 -0.0778123335
I  I4  1  0.14430000  0.37730000  0.41850000  1.0 -0.0695527018
I  I5  1  0.46599000  0.20861000  0.69539000  1.0 -0.0034643005
I  I6  1  0.79139000  0.53401000  0.19539000  1.0 -0.0034643005
I  I7  1  0.49303000  0.02737000  0.79605000  1.0 0.019381065
I  I8  1  0.97263000  0.50697000  0.29605000  1.0 0.019381065
I  I9  1  0.34981000  0.11821000  0.55670000  1.0 -0.4496056333
I  I10  1  0.88179000  0.65019000  0.05670000  1.0 -0.4496056333
I  I11  1  0.17184000  0.11860000  0.63634000  1.0 -0.4271010057
I  I12  1  0.88140000  0.82816000  0.13634000  1.0 -0.4271010057
I  I13  1  0.62460000  0.84980000  0.91000000  1.0 -0.0778123335
I  I14  1  0.15020000  0.37540000  0.41000000  1.0 -0.0874260585
I  I15  1  0.46220000  0.18500000  0.70320000  1.0 -0.0532084841
I  I16  1  0.81500000  0.53780000  0.20320000  1.0 -0.0532084841
I  I17  1  0.51660000  0.03380000  0.81230000  1.0 0.0795519583
I  I18  1  0.96620000  0.48340000  0.31230000  1.0 0.0795519583
I  I19  1  0.71673000  0.42327000  0.47578000  1.0 -0.4496056333
I  I20  1  0.57673000  0.28327000  0.97578000  1.0 -0.4496056333
I  I21  1  0.85570000  0.62270000  0.58150000  1.0 -0.0778123335
I  I22  1  0.37730000  0.14430000  0.08150000  1.0 -0.0778123335
I  I23  1  0.20861000  0.46599000  0.80461000  1.0 -0.0034643005
I  I24  1  0.53401000  0.79139000  0.30461000  1.0 -0.0034643005
I  I25  1  0.02737000  0.49303000  0.70395000  1.0 0.019381065
I  I26  1  0.50697000  0.97263000  0.20395000  1.0 0.019381065
I  I27  1  0.11821000  0.34981000  0.94330000  1.0 -0.4496056333
I  I28  1  0.65019000  0.88179000  0.44330000  1.0 -0.4496056333
I  I29  1  0.11860000  0.17184000  0.86366000  1.0 -0.4271010057
I  I30  1  0.82816000  0.88140000  0.36366000  1.0 -0.4271010057
I  I31  1  0.84980000  0.62460000  0.59000000  1.0 -0.0874260585
I  I32  1  0.37540000  0.15020000  0.09000000  1.0 -0.0874260585
I  I33  1  0.18500000  0.46220000  0.79680000  1.0 -0.0532084841
I  I34  1  0.53780000  0.81500000  0.29680000  1.0 -0.0532084841
I  I35  1  0.03380000  0.51660000  0.68770000  1.0 0.0795519583
I  I36  1  0.48340000  0.96620000  0.18770000  1.0 0.0795519583
N  N1  1  0.35756000  0.69904000  0.90280000  1.0 -0.1811318989
N  N2  1  0.30096000  0.64244000  0.40280000  1.0 -0.1811318989
N  N3  1  0.04272000  0.57328000  0.81410000  1.0 -0.4208251581
N  N4  1  0.42672000  0.95728000  0.31410000  1.0 -0.4208251581
N  N5  1  0.99924000  0.63296000  0.74910000  1.0 -0.4409189307
N  N6  1  0.36704000  0.00076000  0.24910000  1.0 -0.4409189307
N  N7  1  0.16448000  0.72232000  0.77500000  1.0 -0.4409189307
N  N8  1  0.27768000  0.83552000  0.27500000  1.0 -0.4409189307
N  N9  1  0.68100000  0.30560000  0.78000000  1.0 -0.1960080845
N  N10  1  0.69440000  0.31900000  0.28000000  1.0 -0.1960080845
N  N11  1  0.16877000  0.92483000  0.63860000  1.0 -0.1811318989
N  N12  1  0.07517000  0.83123000  0.13860000  1.0 -0.1811318989
N  N13  1  0.08368000  0.95952000  0.54570000  1.0 -0.1960080845
N  N14  1  0.04048000  0.91632000  0.04570000  1.0 -0.1960080845
N  N15  1  0.74992000  0.71408000  0.47050000  1.0 -0.4208251581
N  N16  1  0.28592000  0.25008000  0.97050000  1.0 -0.4208251581
N  N17  1  0.68065000  0.61035000  0.41160000  1.0 -0.4083781288
N  N18  1  0.38965000  0.31935000  0.91160000  1.0 -0.4083781288
N  N19  1  0.84673000  0.70847000  0.43560000  1.0 -0.4083781288
N  N20  1  0.29153000  0.15327000  0.93560000  1.0 -0.4083781288
N  N21  1  0.40686000  0.56754000  0.44900000  1.0 -0.1811318989
N  N22  1  0.43246000  0.59314000  0.94900000  1.0 -0.1811318989
N  N23  1  0.79660000  0.51500000  0.32230000  1.0 -0.190090128
N  N24  1  0.48500000  0.20340000  0.82230000  1.0 -0.190090128
N  N25  1  0.69904000  0.35756000  0.59720000  1.0 -0.1811318989
N  N26  1  0.64244000  0.30096000  0.09720000  1.0 -0.1811318989
N  N27  1  0.57328000  0.04272000  0.68590000  1.0 -0.4208251581
N  N28  1  0.95728000  0.42672000  0.18590000  1.0 -0.4208251581
N  N29  1  0.63296000  0.99924000  0.75090000  1.0 -0.4409189307
N  N30  1  0.00076000  0.36704000  0.25090000  1.0 -0.4409189307
N  N31  1  0.72232000  0.16448000  0.72500000  1.0 -0.4409189307
N  N32  1  0.83552000  0.27768000  0.22500000  1.0 -0.4409189307
N  N33  1  0.30560000  0.68100000  0.72000000  1.0 -0.1960080845
N  N34  1  0.31900000  0.69440000  0.22000000  1.0 -0.1960080845
N  N35  1  0.92483000  0.16877000  0.86140000  1.0 -0.1811318989
N  N36  1  0.83123000  0.07517000  0.36140000  1.0 -0.1811318989
N  N37  1  0.95952000  0.08368000  0.95430000  1.0 -0.1960080845
N  N38  1  0.91632000  0.04048000  0.45430000  1.0 -0.1960080845
N  N39  1  0.71408000  0.74992000  0.02950000  1.0 -0.4208251581
N  N40  1  0.25008000  0.28592000  0.52950000  1.0 -0.4208251581
N  N41  1  0.61035000  0.68065000  0.08840000  1.0 -0.4083781288
N  N42  1  0.31935000  0.38965000  0.58840000  1.0 -0.4083781288
N  N43  1  0.70847000  0.84673000  0.06440000  1.0 -0.4083781288
N  N44  1  0.15327000  0.29153000  0.56440000  1.0 -0.4083781288
N  N45  1  0.56754000  0.40686000  0.05100000  1.0 -0.1811318989
N  N46  1  0.59314000  0.43246000  0.55100000  1.0 -0.1811318989
N  N47  1  0.51500000  0.79660000  0.17770000  1.0 -0.190090128
N  N48  1  0.20340000  0.48500000  0.67770000  1.0 -0.190090128
