# DDEC6 charges by PACMAN v1.1 (https://github.com/mtap-research/PACMAN-charge/)
data_QATLEE_FSR_pacman
_symmetry_space_group_name_H-M   'P 1'
_cell_length_a   12.98360000
_cell_length_b   12.98360000
_cell_length_c   23.94100000
_cell_angle_alpha   90.00000000
_cell_angle_beta   90.00000000
_cell_angle_gamma   94.68350000
_symmetry_Int_Tables_number   1
_chemical_formula_structural   Zn7H52(C44O13)2
_chemical_formula_sum   'Zn14 H104 C176 O52'
_cell_volume   4022.35113670
_cell_formula_units_Z   2
loop_
 _symmetry_equiv_pos_site_id
 _symmetry_equiv_pos_as_xyz
  1  'x, y, z'
loop_
 _atom_site_type_symbol
 _atom_site_label
 _atom_site_symmetry_multiplicity
 _atom_site_fract_x
 _atom_site_fract_y
 _atom_site_fract_z
 _atom_site_occupancy
 _atom_site_charge
Zn  Zn1  1  0.00271000  0.83855000  0.60179000  1.0 0.9162860353
Zn  Zn2  1  0.49729000  0.66145000  0.10179000  1.0 0.9162860353
Zn  Zn3  1  0.33855000  0.50271000  0.89821000  1.0 0.9162860353
Zn  Zn4  1  0.16145000  0.99729000  0.39821000  1.0 0.9162860353
Zn  Zn5  1  0.99729000  0.16145000  0.39821000  1.0 0.9162860353
Zn  Zn6  1  0.50271000  0.33855000  0.89821000  1.0 0.9162860353
Zn  Zn7  1  0.66145000  0.49729000  0.10179000  1.0 0.9162860353
Zn  Zn8  1  0.83855000  0.00271000  0.60179000  1.0 0.9162860353
Zn  Zn9  1  0.81904000  0.81904000  0.51982000  1.0 0.934726267
Zn  Zn10  1  0.68096000  0.68096000  0.01982000  1.0 0.934726267
Zn  Zn11  1  0.31904000  0.31904000  0.98018000  1.0 0.934726267
Zn  Zn12  1  0.18096000  0.18096000  0.48018000  1.0 0.934726267
Zn  Zn13  1  0.00000000  0.00000000  0.50000000  1.0 0.9862403263
Zn  Zn14  1  0.50000000  0.50000000  0.00000000  1.0 0.9862403263
H  H1  1  0.34690000  0.07230000  0.56390000  1.0 0.1214671392
H  H2  1  0.15310000  0.42770000  0.06390000  1.0 0.1214671392
H  H3  1  0.57230000  0.84690000  0.93610000  1.0 0.1214671392
H  H4  1  0.92770000  0.65310000  0.43610000  1.0 0.1214671392
H  H5  1  0.65310000  0.92770000  0.43610000  1.0 0.1214671392
H  H6  1  0.84690000  0.57230000  0.93610000  1.0 0.1214671392
H  H7  1  0.42770000  0.15310000  0.06390000  1.0 0.1214671392
H  H8  1  0.07230000  0.34690000  0.56390000  1.0 0.1214671392
H  H9  1  0.52410000  0.06990000  0.57260000  1.0 0.1293190397
H  H10  1  0.97590000  0.43010000  0.07260000  1.0 0.1293190397
H  H11  1  0.56990000  0.02410000  0.92740000  1.0 0.1293190397
H  H12  1  0.93010000  0.47590000  0.42740000  1.0 0.1293190397
H  H13  1  0.47590000  0.93010000  0.42740000  1.0 0.1293190397
H  H14  1  0.02410000  0.56990000  0.92740000  1.0 0.1293190397
H  H15  1  0.43010000  0.97590000  0.07260000  1.0 0.1293190397
H  H16  1  0.06990000  0.52410000  0.57260000  1.0 0.1293190397
H  H17  1  0.57750000  0.73910000  0.60500000  1.0 0.1083365031
H  H18  1  0.92250000  0.76090000  0.10500000  1.0 0.1083365031
H  H19  1  0.23910000  0.07750000  0.89500000  1.0 0.1083365031
H  H20  1  0.26090000  0.42250000  0.39500000  1.0 0.1083365031
H  H21  1  0.42250000  0.26090000  0.39500000  1.0 0.1083365031
H  H22  1  0.07750000  0.23910000  0.89500000  1.0 0.1083365031
H  H23  1  0.76090000  0.92250000  0.10500000  1.0 0.1083365031
H  H24  1  0.73910000  0.57750000  0.60500000  1.0 0.1083365031
H  H25  1  0.47390000  0.58890000  0.61800000  1.0 0.0832462002
H  H26  1  0.02610000  0.91110000  0.11800000  1.0 0.0832462002
H  H27  1  0.08890000  0.97390000  0.88200000  1.0 0.0832462002
H  H28  1  0.41110000  0.52610000  0.38200000  1.0 0.0832462002
H  H29  1  0.52610000  0.41110000  0.38200000  1.0 0.0832462002
H  H30  1  0.97390000  0.08890000  0.88200000  1.0 0.0832462002
H  H31  1  0.91110000  0.02610000  0.11800000  1.0 0.0832462002
H  H32  1  0.58890000  0.47390000  0.61800000  1.0 0.0832462002
H  H33  1  0.29650000  0.58950000  0.60900000  1.0 0.10428364
H  H34  1  0.20350000  0.91050000  0.10900000  1.0 0.10428364
H  H35  1  0.08950000  0.79650000  0.89100000  1.0 0.10428364
H  H36  1  0.41050000  0.70350000  0.39100000  1.0 0.10428364
H  H37  1  0.70350000  0.41050000  0.39100000  1.0 0.10428364
H  H38  1  0.79650000  0.08950000  0.89100000  1.0 0.10428364
H  H39  1  0.91050000  0.20350000  0.10900000  1.0 0.10428364
H  H40  1  0.58950000  0.29650000  0.60900000  1.0 0.10428364
H  H41  1  0.22530000  0.74570000  0.59870000  1.0 0.1083365031
H  H42  1  0.27470000  0.75430000  0.09870000  1.0 0.1083365031
H  H43  1  0.24570000  0.72530000  0.90130000  1.0 0.1083365031
H  H44  1  0.25430000  0.77470000  0.40130000  1.0 0.1083365031
H  H45  1  0.77470000  0.25430000  0.40130000  1.0 0.1083365031
H  H46  1  0.72530000  0.24570000  0.90130000  1.0 0.1083365031
H  H47  1  0.75430000  0.27470000  0.09870000  1.0 0.1083365031
H  H48  1  0.74570000  0.22530000  0.59870000  1.0 0.1083365031
H  H49  1  0.95250000  0.95250000  0.79690000  1.0 0.1293190397
H  H50  1  0.54750000  0.54750000  0.29690000  1.0 0.1293190397
H  H51  1  0.45250000  0.45250000  0.70310000  1.0 0.1293190397
H  H52  1  0.04750000  0.04750000  0.20310000  1.0 0.1293190397
H  H53  1  0.90630000  0.90630000  0.88820000  1.0 0.1293190397
H  H54  1  0.59370000  0.59370000  0.38820000  1.0 0.1293190397
H  H55  1  0.40630000  0.40630000  0.61180000  1.0 0.1293190397
H  H56  1  0.09370000  0.09370000  0.11180000  1.0 0.1293190397
H  H57  1  0.64640000  0.64640000  0.86740000  1.0 0.1293190397
H  H58  1  0.85360000  0.85360000  0.36740000  1.0 0.1293190397
H  H59  1  0.14640000  0.14640000  0.63260000  1.0 0.1293190397
H  H60  1  0.35360000  0.35360000  0.13260000  1.0 0.1293190397
H  H61  1  0.56670000  0.56670000  0.79250000  1.0 0.1214671392
H  H62  1  0.93330000  0.93330000  0.29250000  1.0 0.1214671392
H  H63  1  0.06670000  0.06670000  0.70750000  1.0 0.1214671392
H  H64  1  0.43330000  0.43330000  0.20750000  1.0 0.1214671392
H  H65  1  0.61630000  0.61630000  0.70230000  1.0 0.1083365031
H  H66  1  0.88370000  0.88370000  0.20230000  1.0 0.1083365031
H  H67  1  0.11630000  0.11630000  0.79770000  1.0 0.1083365031
H  H68  1  0.38370000  0.38370000  0.29770000  1.0 0.1083365031
H  H69  1  0.74350000  0.74350000  0.68710000  1.0 0.1293190397
H  H70  1  0.75650000  0.75650000  0.18710000  1.0 0.1293190397
H  H71  1  0.24350000  0.24350000  0.81290000  1.0 0.1293190397
H  H72  1  0.25650000  0.25650000  0.31290000  1.0 0.1293190397
H  H73  1  0.70440000  0.56760000  0.54360000  1.0 0.1214671392
H  H74  1  0.79560000  0.93240000  0.04360000  1.0 0.1214671392
H  H75  1  0.06760000  0.20440000  0.95640000  1.0 0.1214671392
H  H76  1  0.43240000  0.29560000  0.45640000  1.0 0.1214671392
H  H77  1  0.29560000  0.43240000  0.45640000  1.0 0.1214671392
H  H78  1  0.20440000  0.06760000  0.95640000  1.0 0.1214671392
H  H79  1  0.93240000  0.79560000  0.04360000  1.0 0.1214671392
H  H80  1  0.56760000  0.70440000  0.54360000  1.0 0.1214671392
H  H81  1  0.56100000  0.45780000  0.53800000  1.0 0.0904811713
H  H82  1  0.93900000  0.04220000  0.03800000  1.0 0.0904811713
H  H83  1  0.95780000  0.06100000  0.96200000  1.0 0.0904811713
H  H84  1  0.54220000  0.43900000  0.46200000  1.0 0.0904811713
H  H85  1  0.43900000  0.54220000  0.46200000  1.0 0.0904811713
H  H86  1  0.06100000  0.95780000  0.96200000  1.0 0.0904811713
H  H87  1  0.04220000  0.93900000  0.03800000  1.0 0.0904811713
H  H88  1  0.45780000  0.56100000  0.53800000  1.0 0.0904811713
H  H89  1  0.56960000  0.28260000  0.53960000  1.0 0.0904811713
H  H90  1  0.93040000  0.21740000  0.03960000  1.0 0.0904811713
H  H91  1  0.78260000  0.06960000  0.96040000  1.0 0.0904811713
H  H92  1  0.71740000  0.43040000  0.46040000  1.0 0.0904811713
H  H93  1  0.43040000  0.71740000  0.46040000  1.0 0.0904811713
H  H94  1  0.06960000  0.78260000  0.96040000  1.0 0.0904811713
H  H95  1  0.21740000  0.93040000  0.03960000  1.0 0.0904811713
H  H96  1  0.28260000  0.56960000  0.53960000  1.0 0.0904811713
H  H97  1  0.72620000  0.21660000  0.54350000  1.0 0.0904811713
H  H98  1  0.77380000  0.28340000  0.04350000  1.0 0.0904811713
H  H99  1  0.71660000  0.22620000  0.95650000  1.0 0.0904811713
H  H100  1  0.78340000  0.27380000  0.45650000  1.0 0.0904811713
H  H101  1  0.27380000  0.78340000  0.45650000  1.0 0.0904811713
H  H102  1  0.22620000  0.71660000  0.95650000  1.0 0.0904811713
H  H103  1  0.28340000  0.77380000  0.04350000  1.0 0.0904811713
H  H104  1  0.21660000  0.72620000  0.54350000  1.0 0.0904811713
C  C1  1  0.31150000  0.92150000  0.56940000  1.0 -0.0841306161
C  C2  1  0.18850000  0.57850000  0.06940000  1.0 -0.0841306161
C  C3  1  0.42150000  0.81150000  0.93060000  1.0 -0.0841306161
C  C4  1  0.07850000  0.68850000  0.43060000  1.0 -0.0841306161
C  C5  1  0.68850000  0.07850000  0.43060000  1.0 -0.0841306161
C  C6  1  0.81150000  0.42150000  0.93060000  1.0 -0.0841306161
C  C7  1  0.57850000  0.18850000  0.06940000  1.0 -0.0841306161
C  C8  1  0.92150000  0.31150000  0.56940000  1.0 -0.0841306161
C  C9  1  0.37530000  0.00910000  0.56780000  1.0 -0.1106880172
C  C10  1  0.12470000  0.49090000  0.06780000  1.0 -0.1106880172
C  C11  1  0.50910000  0.87530000  0.93220000  1.0 -0.1106880172
C  C12  1  0.99090000  0.62470000  0.43220000  1.0 -0.1106880172
C  C13  1  0.62470000  0.99090000  0.43220000  1.0 -0.1106880172
C  C14  1  0.87530000  0.50910000  0.93220000  1.0 -0.1106880172
C  C15  1  0.49090000  0.12470000  0.06780000  1.0 -0.1106880172
C  C16  1  0.00910000  0.37530000  0.56780000  1.0 -0.1106880172
C  C17  1  0.48270000  0.00790000  0.57170000  1.0 -0.1106880172
C  C18  1  0.01730000  0.49210000  0.07170000  1.0 -0.1106880172
C  C19  1  0.50790000  0.98270000  0.92830000  1.0 -0.1106880172
C  C20  1  0.99210000  0.51730000  0.42830000  1.0 -0.1106880172
C  C21  1  0.51730000  0.99210000  0.42830000  1.0 -0.1106880172
C  C22  1  0.98270000  0.50790000  0.92830000  1.0 -0.1106880172
C  C23  1  0.49210000  0.01730000  0.07170000  1.0 -0.1106880172
C  C24  1  0.00790000  0.48270000  0.57170000  1.0 -0.1106880172
C  C25  1  0.52740000  0.91540000  0.57430000  1.0 -0.0900712545
C  C26  1  0.97260000  0.58460000  0.07430000  1.0 -0.0900712545
C  C27  1  0.41540000  0.02740000  0.92570000  1.0 -0.0900712545
C  C28  1  0.08460000  0.47260000  0.42570000  1.0 -0.0900712545
C  C29  1  0.47260000  0.08460000  0.42570000  1.0 -0.0900712545
C  C30  1  0.02740000  0.41540000  0.92570000  1.0 -0.0900712545
C  C31  1  0.58460000  0.97260000  0.07430000  1.0 -0.0900712545
C  C32  1  0.91540000  0.52740000  0.57430000  1.0 -0.0900712545
C  C33  1  0.46340000  0.82040000  0.57360000  1.0 0.0468230311
C  C34  1  0.03660000  0.67960000  0.07360000  1.0 0.0468230311
C  C35  1  0.32040000  0.96340000  0.92640000  1.0 0.0468230311
C  C36  1  0.17960000  0.53660000  0.42640000  1.0 0.0468230311
C  C37  1  0.53660000  0.17960000  0.42640000  1.0 0.0468230311
C  C38  1  0.96340000  0.32040000  0.92640000  1.0 0.0468230311
C  C39  1  0.67960000  0.03660000  0.07360000  1.0 0.0468230311
C  C40  1  0.82040000  0.46340000  0.57360000  1.0 0.0468230311
C  C41  1  0.50720000  0.73600000  0.59700000  1.0 -0.0966305147
C  C42  1  0.99280000  0.76400000  0.09700000  1.0 -0.0966305147
C  C43  1  0.23600000  0.00720000  0.90300000  1.0 -0.0966305147
C  C44  1  0.26400000  0.49280000  0.40300000  1.0 -0.0966305147
C  C45  1  0.49280000  0.26400000  0.40300000  1.0 -0.0966305147
C  C46  1  0.00720000  0.23600000  0.90300000  1.0 -0.0966305147
C  C47  1  0.76400000  0.99280000  0.09700000  1.0 -0.0966305147
C  C48  1  0.73600000  0.50720000  0.59700000  1.0 -0.0966305147
C  C49  1  0.44500000  0.64940000  0.60780000  1.0 -0.0388154839
C  C50  1  0.05500000  0.85060000  0.10780000  1.0 -0.0388154839
C  C51  1  0.14940000  0.94500000  0.89220000  1.0 -0.0388154839
C  C52  1  0.35060000  0.55500000  0.39220000  1.0 -0.0388154839
C  C53  1  0.55500000  0.35060000  0.39220000  1.0 -0.0388154839
C  C54  1  0.94500000  0.14940000  0.89220000  1.0 -0.0388154839
C  C55  1  0.85060000  0.05500000  0.10780000  1.0 -0.0388154839
C  C56  1  0.64940000  0.44500000  0.60780000  1.0 -0.0388154839
C  C57  1  0.33860000  0.65020000  0.60390000  1.0 -0.0193980836
C  C58  1  0.16140000  0.84980000  0.10390000  1.0 -0.0193980836
C  C59  1  0.15020000  0.83860000  0.89610000  1.0 -0.0193980836
C  C60  1  0.34980000  0.66140000  0.39610000  1.0 -0.0193980836
C  C61  1  0.66140000  0.34980000  0.39610000  1.0 -0.0193980836
C  C62  1  0.83860000  0.15020000  0.89610000  1.0 -0.0193980836
C  C63  1  0.84980000  0.16140000  0.10390000  1.0 -0.0193980836
C  C64  1  0.65020000  0.33860000  0.60390000  1.0 -0.0193980836
C  C65  1  0.29550000  0.74110000  0.59240000  1.0 -0.0552106473
C  C66  1  0.20450000  0.75890000  0.09240000  1.0 -0.0552106473
C  C67  1  0.24110000  0.79550000  0.90760000  1.0 -0.0552106473
C  C68  1  0.25890000  0.70450000  0.40760000  1.0 -0.0552106473
C  C69  1  0.70450000  0.25890000  0.40760000  1.0 -0.0552106473
C  C70  1  0.79550000  0.24110000  0.90760000  1.0 -0.0552106473
C  C71  1  0.75890000  0.20450000  0.09240000  1.0 -0.0476644087
C  C72  1  0.74110000  0.29550000  0.59240000  1.0 -0.0552106473
C  C73  1  0.35340000  0.82360000  0.57200000  1.0 0.0363641888
C  C74  1  0.14660000  0.67640000  0.07200000  1.0 0.0363641888
C  C75  1  0.32360000  0.85340000  0.92800000  1.0 0.0363641888
C  C76  1  0.17640000  0.64660000  0.42800000  1.0 0.0363641888
C  C77  1  0.64660000  0.17640000  0.42800000  1.0 0.0363641888
C  C78  1  0.85340000  0.32360000  0.92800000  1.0 0.0363641888
C  C79  1  0.67640000  0.14660000  0.07200000  1.0 0.0363641888
C  C80  1  0.82360000  0.35340000  0.57200000  1.0 0.0363641888
C  C81  1  0.19740000  0.92900000  0.56900000  1.0 0.5719459047
C  C82  1  0.30260000  0.57100000  0.06900000  1.0 0.5719459047
C  C83  1  0.42900000  0.69740000  0.93100000  1.0 0.5719459047
C  C84  1  0.07100000  0.80260000  0.43100000  1.0 0.5719459047
C  C85  1  0.80260000  0.07100000  0.43100000  1.0 0.5719459047
C  C86  1  0.69740000  0.42900000  0.93100000  1.0 0.5719459047
C  C87  1  0.57100000  0.30260000  0.06900000  1.0 0.5719459047
C  C88  1  0.92900000  0.19740000  0.56900000  1.0 0.5719459047
C  C89  1  0.64360000  0.92080000  0.57530000  1.0 0.5719459047
C  C90  1  0.85640000  0.57920000  0.07530000  1.0 0.5719459047
C  C91  1  0.42080000  0.14360000  0.92470000  1.0 0.5719459047
C  C92  1  0.07920000  0.35640000  0.42470000  1.0 0.5719459047
C  C93  1  0.35640000  0.07920000  0.42470000  1.0 0.5719459047
C  C94  1  0.14360000  0.42080000  0.92470000  1.0 0.5719459047
C  C95  1  0.57920000  0.85640000  0.07530000  1.0 0.5719459047
C  C96  1  0.92080000  0.64360000  0.57530000  1.0 0.5719459047
C  C97  1  0.85350000  0.85350000  0.76080000  1.0 -0.0388154839
C  C98  1  0.64650000  0.64650000  0.26080000  1.0 -0.0388154839
C  C99  1  0.35350000  0.35350000  0.73920000  1.0 -0.0388154839
C  C100  1  0.14650000  0.14650000  0.23920000  1.0 -0.0388154839
C  C101  1  0.90040000  0.90040000  0.80320000  1.0 -0.1173715602
C  C102  1  0.59960000  0.59960000  0.30320000  1.0 -0.1173715602
C  C103  1  0.40040000  0.40040000  0.69680000  1.0 -0.1173715602
C  C104  1  0.09960000  0.09960000  0.19680000  1.0 -0.1173715602
C  C105  1  0.87220000  0.87220000  0.85860000  1.0 -0.1439102517
C  C106  1  0.62780000  0.62780000  0.35860000  1.0 -0.1439102517
C  C107  1  0.37220000  0.37220000  0.64140000  1.0 -0.1439102517
C  C108  1  0.12780000  0.12780000  0.14140000  1.0 -0.1439102517
C  C109  1  0.79690000  0.79690000  0.86920000  1.0 -0.0476644087
C  C110  1  0.70310000  0.70310000  0.36920000  1.0 -0.0476644087
C  C111  1  0.29690000  0.29690000  0.63080000  1.0 -0.0476644087
C  C112  1  0.20310000  0.20310000  0.13080000  1.0 -0.0476644087
C  C113  1  0.74640000  0.74640000  0.82540000  1.0 0.0593930454
C  C114  1  0.75360000  0.75360000  0.32540000  1.0 0.0593930454
C  C115  1  0.24640000  0.24640000  0.67460000  1.0 0.0593930454
C  C116  1  0.25360000  0.25360000  0.17460000  1.0 0.0593930454
C  C117  1  0.66690000  0.66690000  0.83160000  1.0 -0.1106880172
C  C118  1  0.83310000  0.83310000  0.33160000  1.0 -0.1106880172
C  C119  1  0.16690000  0.16690000  0.66840000  1.0 -0.1106880172
C  C120  1  0.33310000  0.33310000  0.16840000  1.0 -0.1106880172
C  C121  1  0.61900000  0.61900000  0.78710000  1.0 -0.0900712545
C  C122  1  0.88100000  0.88100000  0.28710000  1.0 -0.0900712545
C  C123  1  0.11900000  0.11900000  0.71290000  1.0 -0.0900712545
C  C124  1  0.38100000  0.38100000  0.21290000  1.0 -0.0900712545
C  C125  1  0.64930000  0.64930000  0.73270000  1.0 -0.0966305147
C  C126  1  0.85070000  0.85070000  0.23270000  1.0 -0.0966305147
C  C127  1  0.14930000  0.14930000  0.76730000  1.0 -0.0966305147
C  C128  1  0.35070000  0.35070000  0.26730000  1.0 -0.0966305147
C  C129  1  0.72480000  0.72480000  0.72340000  1.0 -0.1439102517
C  C130  1  0.77520000  0.77520000  0.22340000  1.0 -0.1439102517
C  C131  1  0.22480000  0.22480000  0.77660000  1.0 -0.1439102517
C  C132  1  0.27520000  0.27520000  0.27660000  1.0 -0.1439102517
C  C133  1  0.77550000  0.77550000  0.76920000  1.0 0.0593930454
C  C134  1  0.72450000  0.72450000  0.26920000  1.0 0.0593930454
C  C135  1  0.27550000  0.27550000  0.73080000  1.0 0.0593930454
C  C136  1  0.22450000  0.22450000  0.23080000  1.0 0.0593930454
C  C137  1  0.88530000  0.88530000  0.70170000  1.0 0.5922354599
C  C138  1  0.61470000  0.61470000  0.20170000  1.0 0.5922354599
C  C139  1  0.38530000  0.38530000  0.79830000  1.0 0.5922354599
C  C140  1  0.11470000  0.11470000  0.29830000  1.0 0.5922354599
C  C141  1  0.77710000  0.77710000  0.93120000  1.0 0.5397172858
C  C142  1  0.72290000  0.72290000  0.43120000  1.0 0.5397172858
C  C143  1  0.27710000  0.27710000  0.56880000  1.0 0.5397172858
C  C144  1  0.22290000  0.22290000  0.06880000  1.0 0.5397172858
C  C145  1  0.70970000  0.49810000  0.55140000  1.0 0.0154992425
C  C146  1  0.79030000  0.00190000  0.05140000  1.0 0.0154992425
C  C147  1  0.99810000  0.20970000  0.94860000  1.0 0.0154992425
C  C148  1  0.50190000  0.29030000  0.44860000  1.0 0.0154992425
C  C149  1  0.29030000  0.50190000  0.44860000  1.0 0.0154992425
C  C150  1  0.20970000  0.99810000  0.94860000  1.0 0.0154992425
C  C151  1  0.00190000  0.79030000  0.05140000  1.0 0.0154992425
C  C152  1  0.49810000  0.70970000  0.55140000  1.0 0.0154992425
C  C153  1  0.62450000  0.43130000  0.54370000  1.0 -0.1346655909
C  C154  1  0.87550000  0.06870000  0.04370000  1.0 -0.1346655909
C  C155  1  0.93130000  0.12450000  0.95630000  1.0 -0.1346655909
C  C156  1  0.56870000  0.37550000  0.45630000  1.0 -0.1346655909
C  C157  1  0.37550000  0.56870000  0.45630000  1.0 -0.1346655909
C  C158  1  0.12450000  0.93130000  0.95630000  1.0 -0.1346655909
C  C159  1  0.06870000  0.87550000  0.04370000  1.0 -0.1346655909
C  C160  1  0.43130000  0.62450000  0.54370000  1.0 -0.1346655909
C  C161  1  0.62940000  0.32620000  0.54410000  1.0 -0.1439102517
C  C162  1  0.87060000  0.17380000  0.04410000  1.0 -0.1439102517
C  C163  1  0.82620000  0.12940000  0.95590000  1.0 -0.1439102517
C  C164  1  0.67380000  0.37060000  0.45590000  1.0 -0.1439102517
C  C165  1  0.37060000  0.67380000  0.45590000  1.0 -0.1439102517
C  C166  1  0.12940000  0.82620000  0.95590000  1.0 -0.1439102517
C  C167  1  0.17380000  0.87060000  0.04410000  1.0 -0.1439102517
C  C168  1  0.32620000  0.62940000  0.54410000  1.0 -0.1439102517
C  C169  1  0.72180000  0.28640000  0.55110000  1.0 -0.0288478389
C  C170  1  0.77820000  0.21360000  0.05110000  1.0 -0.0288478389
C  C171  1  0.78640000  0.22180000  0.94890000  1.0 -0.0288478389
C  C172  1  0.71360000  0.27820000  0.44890000  1.0 -0.0288478389
C  C173  1  0.27820000  0.71360000  0.44890000  1.0 -0.0288478389
C  C174  1  0.22180000  0.78640000  0.94890000  1.0 -0.0288478389
C  C175  1  0.21360000  0.77820000  0.05110000  1.0 -0.0288478389
C  C176  1  0.28640000  0.72180000  0.55110000  1.0 -0.0288478389
O  O1  1  0.15859000  0.98073000  0.53341000  1.0 -0.5181169111
O  O2  1  0.34141000  0.51927000  0.03341000  1.0 -0.5181169111
O  O3  1  0.48073000  0.65859000  0.96659000  1.0 -0.5181169111
O  O4  1  0.01927000  0.84141000  0.46659000  1.0 -0.5181169111
O  O5  1  0.84141000  0.01927000  0.46659000  1.0 -0.5181169111
O  O6  1  0.65859000  0.48073000  0.96659000  1.0 -0.5181169111
O  O7  1  0.51927000  0.34141000  0.03341000  1.0 -0.5181169111
O  O8  1  0.98073000  0.15859000  0.53341000  1.0 -0.5181169111
O  O9  1  0.14756000  0.88088000  0.60806000  1.0 -0.5181169111
O  O10  1  0.35244000  0.61912000  0.10806000  1.0 -0.5181169111
O  O11  1  0.38088000  0.64756000  0.89194000  1.0 -0.5181169111
O  O12  1  0.11912000  0.85244000  0.39194000  1.0 -0.5181169111
O  O13  1  0.85244000  0.11912000  0.39194000  1.0 -0.5181169111
O  O14  1  0.64756000  0.38088000  0.89194000  1.0 -0.5181169111
O  O15  1  0.61912000  0.35244000  0.10806000  1.0 -0.5181169111
O  O16  1  0.88088000  0.14756000  0.60806000  1.0 -0.5181169111
O  O17  1  0.68821000  0.84575000  0.55949000  1.0 -0.5377715427
O  O18  1  0.81179000  0.65425000  0.05949000  1.0 -0.5377715427
O  O19  1  0.34575000  0.18821000  0.94051000  1.0 -0.5377715427
O  O20  1  0.15425000  0.31179000  0.44051000  1.0 -0.5377715427
O  O21  1  0.31179000  0.15425000  0.44051000  1.0 -0.5377715427
O  O22  1  0.18821000  0.34575000  0.94051000  1.0 -0.5377715427
O  O23  1  0.65425000  0.81179000  0.05949000  1.0 -0.5377715427
O  O24  1  0.84575000  0.68821000  0.55949000  1.0 -0.5377715427
O  O25  1  0.68950000  0.00430000  0.59260000  1.0 -0.5377715427
O  O26  1  0.81050000  0.49570000  0.09260000  1.0 -0.5377715427
O  O27  1  0.50430000  0.18950000  0.90740000  1.0 -0.5377715427
O  O28  1  0.99570000  0.31050000  0.40740000  1.0 -0.5377715427
O  O29  1  0.31050000  0.99570000  0.40740000  1.0 -0.5377715427
O  O30  1  0.18950000  0.50430000  0.90740000  1.0 -0.5377715427
O  O31  1  0.49570000  0.81050000  0.09260000  1.0 -0.5377715427
O  O32  1  0.00430000  0.68950000  0.59260000  1.0 -0.5377715427
O  O33  1  0.95600000  0.84080000  0.68060000  1.0 -0.506556214
O  O34  1  0.54400000  0.65920000  0.18060000  1.0 -0.506556214
O  O35  1  0.34080000  0.45600000  0.81940000  1.0 -0.506556214
O  O36  1  0.15920000  0.04400000  0.31940000  1.0 -0.506556214
O  O37  1  0.04400000  0.15920000  0.31940000  1.0 -0.506556214
O  O38  1  0.45600000  0.34080000  0.81940000  1.0 -0.506556214
O  O39  1  0.65920000  0.54400000  0.18060000  1.0 -0.506556214
O  O40  1  0.84080000  0.95600000  0.68060000  1.0 -0.506556214
O  O41  1  0.82840000  0.82840000  0.96470000  1.0 -0.506556214
O  O42  1  0.67160000  0.67160000  0.46470000  1.0 -0.506556214
O  O43  1  0.32840000  0.32840000  0.53530000  1.0 -0.506556214
O  O44  1  0.17160000  0.17160000  0.03530000  1.0 -0.506556214
O  O45  1  0.70900000  0.70900000  0.94361000  1.0 -0.506556214
O  O46  1  0.79100000  0.79100000  0.44361000  1.0 -0.506556214
O  O47  1  0.20900000  0.20900000  0.55639000  1.0 -0.506556214
O  O48  1  0.29100000  0.29100000  0.05639000  1.0 -0.506556214
O  O49  1  0.91834000  0.91834000  0.55612000  1.0 -0.9767419806
O  O50  1  0.58166000  0.58166000  0.05612000  1.0 -0.9767419806
O  O51  1  0.41834000  0.41834000  0.94388000  1.0 -0.974280269
O  O52  1  0.08166000  0.08166000  0.44388000  1.0 -0.9767419806
