# DDEC6 charges by PACMAN v1.1 (https://github.com/mtap-research/PACMAN-charge/)
data_QATQIP_FSR_pacman
_symmetry_space_group_name_H-M   'P 1'
_cell_length_a   18.56680000
_cell_length_b   19.52630000
_cell_length_c   31.25700000
_cell_angle_alpha   90.00000000
_cell_angle_beta   118.83900000
_cell_angle_gamma   90.00000000
_symmetry_Int_Tables_number   1
_chemical_formula_structural   Co7Si2H86W22C134(N11O58)2
_chemical_formula_sum   'Co14 Si4 H172 W44 C268 N44 O232'
_cell_volume   9926.53744314
_cell_formula_units_Z   2
loop_
 _symmetry_equiv_pos_site_id
 _symmetry_equiv_pos_as_xyz
  1  'x, y, z'
loop_
 _atom_site_type_symbol
 _atom_site_label
 _atom_site_symmetry_multiplicity
 _atom_site_fract_x
 _atom_site_fract_y
 _atom_site_fract_z
 _atom_site_occupancy
 _atom_site_charge
Co  Co1  1  0.42126000  0.39382000  0.50522000  1.0 1.1683452307
Co  Co2  1  0.41370000  0.54150000  0.47225000  1.0 0.9738812774
Co  Co3  1  0.32006000  0.28160000  0.79795000  1.0 1.108923751
Co  Co4  1  0.57874000  0.89382000  0.99478000  1.0 1.1683452307
Co  Co5  1  0.58630000  0.04150000  0.02775000  1.0 0.9738812774
Co  Co6  1  0.67994000  0.78160000  0.70205000  1.0 1.108923751
Co  Co7  1  0.57874000  0.60618000  0.49478000  1.0 1.1683452307
Co  Co8  1  0.58630000  0.45850000  0.52775000  1.0 0.9738812774
Co  Co9  1  0.67994000  0.71840000  0.20205000  1.0 1.108923751
Co  Co10  1  0.42126000  0.10618000  0.00522000  1.0 1.1683452307
Co  Co11  1  0.41370000  0.95850000  0.97225000  1.0 0.9738812774
Co  Co12  1  0.32006000  0.21840000  0.29795000  1.0 1.108923751
Co  Co13  1  0.00000000  0.50000000  0.50000000  1.0 1.4185772418
Co  Co14  1  0.00000000  0.00000000  0.00000000  1.0 1.43036561
Si  Si1  1  0.34056000  0.29340000  0.55736000  1.0 1.7335868358
Si  Si2  1  0.65944000  0.79340000  0.94264000  1.0 1.7335868358
Si  Si3  1  0.65944000  0.70660000  0.44264000  1.0 1.7335868358
Si  Si4  1  0.34056000  0.20660000  0.05736000  1.0 1.7335868358
H  H1  1  0.31597000  0.49862000  0.36274000  1.0 0.1304187674
H  H2  1  0.24261000  0.54008000  0.45650000  1.0 0.1187626328
H  H3  1  0.90716000  0.35493000  0.38861000  1.0 0.1487129346
H  H4  1  0.92168000  0.91423000  0.43029000  1.0 0.1487129346
H  H5  1  0.08684000  0.03867000  0.42371000  1.0 0.1304187674
H  H6  1  0.04788000  0.13022000  0.27619000  1.0 0.1304187674
H  H7  1  0.10692000  0.51851000  0.39884000  1.0 0.1487129346
H  H8  1  0.02272000  0.87004000  0.50050000  1.0 0.1187626328
H  H9  1  0.07028000  0.24307000  0.26173000  1.0 0.1304187674
H  H10  1  0.03864000  0.48556000  0.27216000  1.0 0.1304187674
H  H11  1  0.00676000  0.51397000  0.30817000  1.0 0.1304187674
H  H12  1  0.46142000  0.04487000  0.38505000  1.0 0.1397362608
H  H13  1  0.18818000  0.47219000  0.30302000  1.0 0.1487129346
H  H14  1  0.36500000  0.73899000  0.55823000  1.0 0.1487129346
H  H15  1  0.18314000  0.99351000  0.49667000  1.0 0.1187626328
H  H16  1  0.32632000  0.66405000  0.40967000  1.0 0.1187626328
H  H17  1  0.40248000  0.63074000  0.54888000  1.0 0.1397362608
H  H18  1  0.88263000  0.24657000  0.40197000  1.0 0.1487129346
H  H19  1  0.27750000  0.84250000  0.51874000  1.0 0.1304187674
H  H20  1  0.23263000  0.84940000  0.46041000  1.0 0.1304187674
H  H21  1  0.87333000  0.00184000  0.36482000  1.0 0.1304187674
H  H22  1  0.92891000  0.97340000  0.34256000  1.0 0.1304187674
H  H23  1  0.28430000  0.77231000  0.41493000  1.0 0.1397362608
H  H24  1  0.35646000  0.97239000  0.38013000  1.0 0.1304187674
H  H25  1  0.89448000  0.04074000  0.67054000  1.0 0.1397362608
H  H26  1  0.06737000  0.17707000  0.65816000  1.0 0.1397362608
H  H27  1  0.16786000  0.41737000  0.87084000  1.0 0.1707675337
H  H28  1  0.22819000  0.36820000  0.91445000  1.0 0.2019074067
H  H29  1  0.25998000  0.44127000  0.90730000  1.0 0.1817881047
H  H30  1  0.94410000  0.23791000  0.59391000  1.0 0.1304187674
H  H31  1  0.92783000  0.31446000  0.60600000  1.0 0.1304187674
H  H32  1  0.73986000  0.29949000  0.75017000  1.0 0.1487129346
H  H33  1  0.71704000  0.02538000  0.81775000  1.0 0.1487129346
H  H34  1  0.69477000  0.10004000  0.82895000  1.0 0.1487129346
H  H35  1  0.82648000  0.99459000  0.70874000  1.0 0.1304187674
H  H36  1  0.59403000  0.98276000  0.81905000  1.0 0.1397362608
H  H37  1  0.45397000  0.95747000  0.77230000  1.0 0.1397362608
H  H38  1  0.43583000  0.09280000  0.66924000  1.0 0.1397362608
H  H39  1  0.57589000  0.11809000  0.71599000  1.0 0.1187626328
H  H40  1  0.18420000  0.38117000  0.73056000  1.0 0.1187626328
H  H41  1  0.04922000  0.38019000  0.66943000  1.0 0.1487129346
H  H42  1  0.80553000  0.34703000  0.71197000  1.0 0.1397362608
H  H43  1  0.20393000  0.18531000  0.72096000  1.0 0.1304187674
H  H44  1  0.68403000  0.99862000  0.13726000  1.0 0.1304187674
H  H45  1  0.75739000  0.04008000  0.04350000  1.0 0.1187626328
H  H46  1  0.09284000  0.85493000  0.11139000  1.0 0.1487129346
H  H47  1  0.07832000  0.41423000  0.06971000  1.0 0.1487129346
H  H48  1  0.91316000  0.53867000  0.07629000  1.0 0.1304187674
H  H49  1  0.95212000  0.63022000  0.22381000  1.0 0.1304187674
H  H50  1  0.89308000  0.01851000  0.10116000  1.0 0.1487129346
H  H51  1  0.97728000  0.37004000  0.99950000  1.0 0.1187626328
H  H52  1  0.92972000  0.74307000  0.23827000  1.0 0.1304187674
H  H53  1  0.96136000  0.98556000  0.22784000  1.0 0.1304187674
H  H54  1  0.99324000  0.01397000  0.19183000  1.0 0.1304187674
H  H55  1  0.53858000  0.54487000  0.11495000  1.0 0.1397362608
H  H56  1  0.81182000  0.97219000  0.19698000  1.0 0.1487129346
H  H57  1  0.63500000  0.23899000  0.94177000  1.0 0.1487129346
H  H58  1  0.81686000  0.49351000  0.00333000  1.0 0.1123735074
H  H59  1  0.67368000  0.16405000  0.09033000  1.0 0.1187626328
H  H60  1  0.59752000  0.13074000  0.95112000  1.0 0.1397362608
H  H61  1  0.11737000  0.74657000  0.09803000  1.0 0.1487129346
H  H62  1  0.72250000  0.34250000  0.98126000  1.0 0.1304187674
H  H63  1  0.76737000  0.34940000  0.03959000  1.0 0.1304187674
H  H64  1  0.12667000  0.50184000  0.13518000  1.0 0.1304187674
H  H65  1  0.07109000  0.47340000  0.15744000  1.0 0.1304187674
H  H66  1  0.71570000  0.27231000  0.08507000  1.0 0.1397362608
H  H67  1  0.64354000  0.47239000  0.11987000  1.0 0.1304187674
H  H68  1  0.10552000  0.54074000  0.82946000  1.0 0.1397362608
H  H69  1  0.93263000  0.67707000  0.84184000  1.0 0.1397362608
H  H70  1  0.83214000  0.91737000  0.62916000  1.0 0.1707675337
H  H71  1  0.77181000  0.86820000  0.58555000  1.0 0.2019074067
H  H72  1  0.74002000  0.94127000  0.59270000  1.0 0.1817881047
H  H73  1  0.05590000  0.73791000  0.90609000  1.0 0.1304187674
H  H74  1  0.07217000  0.81446000  0.89400000  1.0 0.1304187674
H  H75  1  0.26014000  0.79949000  0.74983000  1.0 0.1487129346
H  H76  1  0.28296000  0.52538000  0.68225000  1.0 0.1487129346
H  H77  1  0.30523000  0.60004000  0.67105000  1.0 0.1487129346
H  H78  1  0.17352000  0.49459000  0.79126000  1.0 0.1304187674
H  H79  1  0.40597000  0.48276000  0.68095000  1.0 0.1397362608
H  H80  1  0.54603000  0.45747000  0.72770000  1.0 0.1397362608
H  H81  1  0.56417000  0.59280000  0.83076000  1.0 0.1397362608
H  H82  1  0.42411000  0.61809000  0.78401000  1.0 0.1187626328
H  H83  1  0.81580000  0.88117000  0.76944000  1.0 0.1187626328
H  H84  1  0.95078000  0.88019000  0.83057000  1.0 0.1487129346
H  H85  1  0.19447000  0.84703000  0.78803000  1.0 0.1397362608
H  H86  1  0.79607000  0.68531000  0.77904000  1.0 0.1304187674
H  H87  1  0.68403000  0.50138000  0.63726000  1.0 0.1304187674
H  H88  1  0.75739000  0.45992000  0.54350000  1.0 0.1187626328
H  H89  1  0.09284000  0.64507000  0.61139000  1.0 0.1487129346
H  H90  1  0.07832000  0.08577000  0.56971000  1.0 0.1487129346
H  H91  1  0.91316000  0.96133000  0.57629000  1.0 0.1304187674
H  H92  1  0.95212000  0.86978000  0.72381000  1.0 0.1304187674
H  H93  1  0.89308000  0.48149000  0.60116000  1.0 0.1487129346
H  H94  1  0.97728000  0.12996000  0.49950000  1.0 0.1187626328
H  H95  1  0.92972000  0.75693000  0.73827000  1.0 0.1304187674
H  H96  1  0.96136000  0.51444000  0.72784000  1.0 0.1304187674
H  H97  1  0.99324000  0.48603000  0.69183000  1.0 0.1304187674
H  H98  1  0.53858000  0.95513000  0.61495000  1.0 0.1397362608
H  H99  1  0.81182000  0.52781000  0.69698000  1.0 0.1487129346
H  H100  1  0.63500000  0.26101000  0.44177000  1.0 0.1487129346
H  H101  1  0.81686000  0.00649000  0.50333000  1.0 0.1123735074
H  H102  1  0.67368000  0.33595000  0.59033000  1.0 0.1187626328
H  H103  1  0.59752000  0.36926000  0.45112000  1.0 0.1397362608
H  H104  1  0.11737000  0.75343000  0.59803000  1.0 0.1487129346
H  H105  1  0.72250000  0.15750000  0.48126000  1.0 0.1304187674
H  H106  1  0.76737000  0.15060000  0.53959000  1.0 0.1304187674
H  H107  1  0.12667000  0.99816000  0.63518000  1.0 0.1304187674
H  H108  1  0.07109000  0.02660000  0.65744000  1.0 0.1304187674
H  H109  1  0.71570000  0.22769000  0.58507000  1.0 0.1397362608
H  H110  1  0.64354000  0.02761000  0.61987000  1.0 0.1304187674
H  H111  1  0.10552000  0.95926000  0.32946000  1.0 0.1397362608
H  H112  1  0.93263000  0.82293000  0.34184000  1.0 0.1397362608
H  H113  1  0.83214000  0.58263000  0.12916000  1.0 0.1707675337
H  H114  1  0.77181000  0.63180000  0.08555000  1.0 0.2019074067
H  H115  1  0.74002000  0.55873000  0.09270000  1.0 0.1817881047
H  H116  1  0.05590000  0.76209000  0.40609000  1.0 0.1304187674
H  H117  1  0.07217000  0.68554000  0.39400000  1.0 0.1304187674
H  H118  1  0.26014000  0.70051000  0.24983000  1.0 0.1487129346
H  H119  1  0.28296000  0.97462000  0.18225000  1.0 0.1487129346
H  H120  1  0.30523000  0.89996000  0.17105000  1.0 0.1487129346
H  H121  1  0.17352000  0.00541000  0.29126000  1.0 0.1304187674
H  H122  1  0.40597000  0.01724000  0.18095000  1.0 0.1487129346
H  H123  1  0.54603000  0.04253000  0.22770000  1.0 0.1397362608
H  H124  1  0.56417000  0.90720000  0.33076000  1.0 0.1397362608
H  H125  1  0.42411000  0.88191000  0.28401000  1.0 0.1304187674
H  H126  1  0.81580000  0.61883000  0.26944000  1.0 0.1187626328
H  H127  1  0.95078000  0.61981000  0.33057000  1.0 0.1487129346
H  H128  1  0.19447000  0.65297000  0.28803000  1.0 0.1397362608
H  H129  1  0.79607000  0.81469000  0.27904000  1.0 0.1304187674
H  H130  1  0.31597000  0.00138000  0.86274000  1.0 0.1304187674
H  H131  1  0.24261000  0.95992000  0.95650000  1.0 0.1187626328
H  H132  1  0.90716000  0.14507000  0.88861000  1.0 0.1487129346
H  H133  1  0.92168000  0.58577000  0.93029000  1.0 0.1487129346
H  H134  1  0.08684000  0.46133000  0.92371000  1.0 0.1304187674
H  H135  1  0.04788000  0.36978000  0.77619000  1.0 0.1397362608
H  H136  1  0.10692000  0.98149000  0.89884000  1.0 0.1487129346
H  H137  1  0.02272000  0.62996000  0.00050000  1.0 0.1187626328
H  H138  1  0.07028000  0.25693000  0.76173000  1.0 0.1304187674
H  H139  1  0.03864000  0.01444000  0.77216000  1.0 0.1304187674
H  H140  1  0.00676000  0.98603000  0.80817000  1.0 0.1304187674
H  H141  1  0.46142000  0.45513000  0.88505000  1.0 0.1397362608
H  H142  1  0.18818000  0.02781000  0.80302000  1.0 0.1487129346
H  H143  1  0.36500000  0.76101000  0.05823000  1.0 0.1487129346
H  H144  1  0.18314000  0.50649000  0.99667000  1.0 0.1123735074
H  H145  1  0.32632000  0.83595000  0.90967000  1.0 0.1187626328
H  H146  1  0.40248000  0.86926000  0.04888000  1.0 0.1397362608
H  H147  1  0.88263000  0.25343000  0.90197000  1.0 0.1487129346
H  H148  1  0.27750000  0.65750000  0.01874000  1.0 0.1304187674
H  H149  1  0.23263000  0.65060000  0.96041000  1.0 0.1304187674
H  H150  1  0.87333000  0.49816000  0.86482000  1.0 0.1304187674
H  H151  1  0.92891000  0.52660000  0.84256000  1.0 0.1304187674
H  H152  1  0.28430000  0.72769000  0.91493000  1.0 0.1397362608
H  H153  1  0.35646000  0.52761000  0.88013000  1.0 0.1304187674
H  H154  1  0.89448000  0.45926000  0.17054000  1.0 0.1397362608
H  H155  1  0.06737000  0.32293000  0.15816000  1.0 0.1397362608
H  H156  1  0.16786000  0.08263000  0.37084000  1.0 0.1707675337
H  H157  1  0.22819000  0.13180000  0.41445000  1.0 0.2019074067
H  H158  1  0.25998000  0.05873000  0.40730000  1.0 0.1817881047
H  H159  1  0.94410000  0.26209000  0.09391000  1.0 0.1304187674
H  H160  1  0.92783000  0.18554000  0.10600000  1.0 0.1304187674
H  H161  1  0.73986000  0.20051000  0.25017000  1.0 0.1487129346
H  H162  1  0.71704000  0.47462000  0.31775000  1.0 0.1487129346
H  H163  1  0.69477000  0.39996000  0.32895000  1.0 0.1487129346
H  H164  1  0.82648000  0.50541000  0.20874000  1.0 0.1304187674
H  H165  1  0.59403000  0.51724000  0.31905000  1.0 0.1397362608
H  H166  1  0.45397000  0.54253000  0.27230000  1.0 0.1397362608
H  H167  1  0.43583000  0.40720000  0.16924000  1.0 0.1397362608
H  H168  1  0.57589000  0.38191000  0.21599000  1.0 0.1187626328
H  H169  1  0.18420000  0.11883000  0.23056000  1.0 0.1187626328
H  H170  1  0.04922000  0.11981000  0.16943000  1.0 0.1487129346
H  H171  1  0.80553000  0.15297000  0.21197000  1.0 0.1397362608
H  H172  1  0.20393000  0.31469000  0.22096000  1.0 0.1304187674
W  W1  1  0.14802000  0.20953000  0.48354000  1.0 2.4109330057
W  W2  1  0.34428000  0.11183000  0.54583000  1.0 2.3822636842
W  W3  1  0.25804000  0.19422000  0.61854000  1.0 2.4109330057
W  W4  1  0.42310000  0.21253000  0.48940000  1.0 2.3869496266
W  W5  1  0.23137000  0.30818000  0.42909000  1.0 2.3822636842
W  W6  1  0.52223000  0.19487000  0.61129000  1.0 2.3822636842
W  W7  1  0.15260000  0.38125000  0.49452000  1.0 2.4503705381
W  W8  1  0.26124000  0.36509000  0.62853000  1.0 2.4109330057
W  W9  1  0.43948000  0.27763000  0.68440000  1.0 2.4203993899
W  W10  1  0.52777000  0.38554000  0.62313000  1.0 2.4109330057
W  W11  1  0.35074000  0.47382000  0.56719000  1.0 2.4028119802
W  W12  1  0.85198000  0.70953000  0.01646000  1.0 2.4109330057
W  W13  1  0.65572000  0.61183000  0.95417000  1.0 2.3822636842
W  W14  1  0.74196000  0.69422000  0.88146000  1.0 2.4109330057
W  W15  1  0.57690000  0.71253000  0.01060000  1.0 2.3869496266
W  W16  1  0.76863000  0.80818000  0.07091000  1.0 2.3822636842
W  W17  1  0.47777000  0.69487000  0.88871000  1.0 2.3822636842
W  W18  1  0.84740000  0.88125000  0.00548000  1.0 2.4503705381
W  W19  1  0.73876000  0.86509000  0.87147000  1.0 2.4028119802
W  W20  1  0.56052000  0.77763000  0.81560000  1.0 2.4203993899
W  W21  1  0.47223000  0.88554000  0.87687000  1.0 2.4109330057
W  W22  1  0.64926000  0.97382000  0.93281000  1.0 2.4028119802
W  W23  1  0.85198000  0.79047000  0.51646000  1.0 2.4109330057
W  W24  1  0.65572000  0.88817000  0.45417000  1.0 2.3822636842
W  W25  1  0.74196000  0.80578000  0.38146000  1.0 2.4203993899
W  W26  1  0.57690000  0.78747000  0.51060000  1.0 2.3869496266
W  W27  1  0.76863000  0.69182000  0.57091000  1.0 2.3869496266
W  W28  1  0.47777000  0.80513000  0.38871000  1.0 2.3822636842
W  W29  1  0.84740000  0.61875000  0.50548000  1.0 2.4503705381
W  W30  1  0.73876000  0.63491000  0.37147000  1.0 2.4109330057
W  W31  1  0.56052000  0.72237000  0.31560000  1.0 2.4203993899
W  W32  1  0.47223000  0.61446000  0.37687000  1.0 2.4109330057
W  W33  1  0.64926000  0.52618000  0.43281000  1.0 2.4028119802
W  W34  1  0.14802000  0.29047000  0.98354000  1.0 2.4109330057
W  W35  1  0.34428000  0.38817000  0.04583000  1.0 2.3822636842
W  W36  1  0.25804000  0.30578000  0.11854000  1.0 2.4203993899
W  W37  1  0.42310000  0.28747000  0.98940000  1.0 2.3869496266
W  W38  1  0.23137000  0.19182000  0.92909000  1.0 2.3869496266
W  W39  1  0.52223000  0.30513000  0.11129000  1.0 2.3822636842
W  W40  1  0.15260000  0.11875000  0.99452000  1.0 2.4503705381
W  W41  1  0.26124000  0.13491000  0.12853000  1.0 2.4109330057
W  W42  1  0.43948000  0.22237000  0.18440000  1.0 2.4203993899
W  W43  1  0.52777000  0.11446000  0.12313000  1.0 2.4203993899
W  W44  1  0.35074000  0.02618000  0.06719000  1.0 2.4028119802
C  C1  1  0.98080000  0.40270000  0.33960000  1.0 0.4329852006
C  C2  1  0.04060000  0.35800000  0.28990000  1.0 0.4512082665
C  C3  1  0.27250000  0.50280000  0.37040000  1.0 0.1007941338
C  C4  1  0.23100000  0.52720000  0.42450000  1.0 0.0853544056
C  C5  1  0.13240000  0.49550000  0.34360000  1.0 0.1602873906
C  C6  1  0.98240000  0.27660000  0.32700000  1.0 0.0309566868
C  C7  1  0.96330000  0.33250000  0.34830000  1.0 -0.076460977
C  C8  1  0.99230000  0.15520000  0.31530000  1.0 -0.0497875946
C  C9  1  0.96880000  0.20930000  0.33690000  1.0 0.0309566868
C  C10  1  0.92370000  0.31840000  0.37520000  1.0 -0.0601063716
C  C11  1  0.40210000  0.96100000  0.45240000  1.0 -0.0704651859
C  C12  1  0.97600000  0.93150000  0.44280000  1.0 -0.1799601839
C  C13  1  0.99050000  0.98020000  0.41670000  1.0 0.1487129346
C  C14  1  0.07130000  0.00410000  0.43910000  1.0 -0.1704505033
C  C15  1  0.03050000  0.16710000  0.28890000  1.0 -0.0601063716
C  C16  1  0.14950000  0.51440000  0.39040000  1.0 -0.160635337
C  C17  1  0.03530000  0.90710000  0.48550000  1.0 0.0785045858
C  C18  1  0.02010000  0.28650000  0.29830000  1.0 -0.0422533428
C  C19  1  0.53070000  0.02090000  0.50080000  1.0 0.0473012432
C  C20  1  0.92650000  0.19650000  0.36470000  1.0 -0.0497875946
C  C21  1  0.04370000  0.23400000  0.28060000  1.0 -0.0601063716
C  C22  1  0.04410000  0.48050000  0.30510000  1.0 -0.1513807968
C  C23  1  0.46360000  0.02820000  0.41420000  1.0 -0.0497875946
C  C24  1  0.19670000  0.48760000  0.33390000  1.0 -0.1704505033
C  C25  1  0.35460000  0.72410000  0.52680000  1.0 -0.1799601839
C  C26  1  0.12810000  0.97780000  0.48320000  1.0 0.0785045858
C  C27  1  0.31350000  0.76850000  0.48610000  1.0 0.1602873906
C  C28  1  0.41010000  0.90520000  0.54050000  1.0 0.4574608981
C  C29  1  0.33430000  0.68030000  0.44030000  1.0 0.0785045858
C  C30  1  0.33600000  0.91700000  0.44920000  1.0 0.4380933336
C  C31  1  0.37930000  0.66050000  0.52150000  1.0 0.1304187674
C  C32  1  0.90850000  0.25330000  0.38250000  1.0 -0.0601063716
C  C33  1  0.28580000  0.83940000  0.48980000  1.0 -0.1513807968
C  C34  1  0.92840000  0.00470000  0.36730000  1.0 -0.160635337
C  C35  1  0.97740000  0.08270000  0.32670000  1.0 0.4329852006
C  C36  1  0.91370000  0.12350000  0.37390000  1.0 0.4380933336
C  C37  1  0.52790000  0.04680000  0.45840000  1.0 -0.0497875946
C  C38  1  0.30760000  0.74400000  0.44320000  1.0 -0.1799601839
C  C39  1  0.40040000  0.98490000  0.41120000  1.0 -0.0601063716
C  C40  1  0.79440000  0.08480000  0.72660000  1.0 -0.0497875946
C  C41  1  0.86760000  0.07010000  0.68260000  1.0 -0.0422533428
C  C42  1  0.86800000  0.14130000  0.67590000  1.0 -0.0704651859
C  C43  1  0.90470000  0.16840000  0.64730000  1.0 0.4380933336
C  C44  1  0.08860000  0.22030000  0.67280000  1.0 -0.1704505033
C  C45  1  0.22490000  0.40200000  0.89040000  1.0 -0.5417237849
C  C46  1  0.04070000  0.27640000  0.65710000  1.0 0.1397362608
C  C47  1  0.95100000  0.26930000  0.62050000  1.0 -0.1287674354
C  C48  1  0.72970000  0.16940000  0.77460000  1.0 0.4380933336
C  C49  1  0.79890000  0.15810000  0.72380000  1.0 0.0309566868
C  C50  1  0.74710000  0.05300000  0.74930000  1.0 0.4512082665
C  C51  1  0.76690000  0.27040000  0.73800000  1.0 -0.0601063716
C  C52  1  0.68730000  0.06830000  0.80240000  1.0 -0.1235856087
C  C53  1  0.83420000  0.18410000  0.69730000  1.0 0.0400256446
C  C54  1  0.82920000  0.04290000  0.70620000  1.0 -0.0704651859
C  C55  1  0.25190000  0.37170000  0.85930000  1.0 0.4180377229
C  C56  1  0.59810000  0.05280000  0.77190000  1.0 0.1304187674
C  C57  1  0.56190000  0.00510000  0.78860000  1.0 -0.160635337
C  C58  1  0.47870000  0.99010000  0.76090000  1.0 0.0400256446
C  C59  1  0.46800000  0.07050000  0.69970000  1.0 0.0400256446
C  C60  1  0.55110000  0.08550000  0.72740000  1.0 -0.1704505033
C  C61  1  0.88040000  0.28620000  0.66960000  1.0 0.4016160845
C  C62  1  0.15980000  0.33820000  0.71710000  1.0 0.1123735074
C  C63  1  0.83890000  0.25640000  0.69300000  1.0 -0.0930671123
C  C64  1  0.07880000  0.33840000  0.67970000  1.0 -0.1704505033
C  C65  1  0.76680000  0.20170000  0.74510000  1.0 -0.0267448536
C  C66  1  0.80340000  0.29860000  0.71430000  1.0 -0.0704651859
C  C67  1  0.17110000  0.22550000  0.71150000  1.0 0.1123735074
C  C68  1  0.01920000  0.90270000  0.16040000  1.0 0.4329852006
C  C69  1  0.95940000  0.85800000  0.21010000  1.0 0.4512082665
C  C70  1  0.72750000  0.00280000  0.12960000  1.0 0.1007941338
C  C71  1  0.76900000  0.02720000  0.07550000  1.0 0.0853544056
C  C72  1  0.86760000  0.99550000  0.15640000  1.0 0.1602873906
C  C73  1  0.01760000  0.77660000  0.17300000  1.0 0.0309566868
C  C74  1  0.03670000  0.83250000  0.15170000  1.0 -0.076460977
C  C75  1  0.00770000  0.65520000  0.18470000  1.0 -0.0497875946
C  C76  1  0.03120000  0.70930000  0.16310000  1.0 0.0309566868
C  C77  1  0.07630000  0.81840000  0.12480000  1.0 -0.0601063716
C  C78  1  0.59790000  0.46100000  0.04760000  1.0 -0.0704651859
C  C79  1  0.02400000  0.43150000  0.05720000  1.0 -0.1799601839
C  C80  1  0.00950000  0.48020000  0.08330000  1.0 0.1487129346
C  C81  1  0.92870000  0.50410000  0.06090000  1.0 -0.1704505033
C  C82  1  0.96950000  0.66710000  0.21110000  1.0 -0.0601063716
C  C83  1  0.85050000  0.01440000  0.10960000  1.0 -0.160635337
C  C84  1  0.96470000  0.40710000  0.01450000  1.0 0.0785045858
C  C85  1  0.97990000  0.78650000  0.20170000  1.0 -0.0422533428
C  C86  1  0.46930000  0.52090000  0.99920000  1.0 0.0473012432
C  C87  1  0.07350000  0.69650000  0.13530000  1.0 -0.0497875946
C  C88  1  0.95630000  0.73400000  0.21940000  1.0 -0.0601063716
C  C89  1  0.95590000  0.98050000  0.19490000  1.0 -0.1513807968
C  C90  1  0.53640000  0.52820000  0.08580000  1.0 -0.0497875946
C  C91  1  0.80330000  0.98760000  0.16610000  1.0 -0.1704505033
C  C92  1  0.64540000  0.22410000  0.97320000  1.0 -0.1799601839
C  C93  1  0.87190000  0.47780000  0.01680000  1.0 0.0785045858
C  C94  1  0.68650000  0.26850000  0.01390000  1.0 0.1602873906
C  C95  1  0.58990000  0.40520000  0.95950000  1.0 0.4574608981
C  C96  1  0.66570000  0.18030000  0.05970000  1.0 0.0785045858
C  C97  1  0.66400000  0.41700000  0.05080000  1.0 0.4380933336
C  C98  1  0.62070000  0.16050000  0.97850000  1.0 0.1304187674
C  C99  1  0.09150000  0.75330000  0.11750000  1.0 -0.0601063716
C  C100  1  0.71420000  0.33940000  0.01020000  1.0 -0.1513807968
C  C101  1  0.07160000  0.50470000  0.13270000  1.0 -0.160635337
C  C102  1  0.02260000  0.58270000  0.17330000  1.0 0.4329852006
C  C103  1  0.08630000  0.62350000  0.12610000  1.0 0.4380933336
C  C104  1  0.47210000  0.54680000  0.04160000  1.0 -0.0497875946
C  C105  1  0.69240000  0.24400000  0.05680000  1.0 -0.1799601839
C  C106  1  0.59960000  0.48490000  0.08880000  1.0 -0.0601063716
C  C107  1  0.20560000  0.58480000  0.77340000  1.0 -0.0497875946
C  C108  1  0.13240000  0.57010000  0.81740000  1.0 -0.0422533428
C  C109  1  0.13200000  0.64130000  0.82410000  1.0 -0.0704651859
C  C110  1  0.09530000  0.66840000  0.85270000  1.0 0.4380933336
C  C111  1  0.91140000  0.72030000  0.82720000  1.0 -0.1704505033
C  C112  1  0.77510000  0.90200000  0.60960000  1.0 -0.5417237849
C  C113  1  0.95930000  0.77640000  0.84290000  1.0 0.1397362608
C  C114  1  0.04900000  0.76930000  0.87950000  1.0 -0.1287674354
C  C115  1  0.27030000  0.66940000  0.72540000  1.0 0.4380933336
C  C116  1  0.20110000  0.65810000  0.77620000  1.0 0.0309566868
C  C117  1  0.25290000  0.55300000  0.75070000  1.0 0.4512082665
C  C118  1  0.23310000  0.77040000  0.76200000  1.0 -0.0601063716
C  C119  1  0.31270000  0.56830000  0.69760000  1.0 -0.1235856087
C  C120  1  0.16580000  0.68410000  0.80270000  1.0 0.0400256446
C  C121  1  0.17080000  0.54290000  0.79380000  1.0 -0.0704651859
C  C122  1  0.74810000  0.87170000  0.64070000  1.0 0.4180377229
C  C123  1  0.40190000  0.55280000  0.72810000  1.0 0.1304187674
C  C124  1  0.43810000  0.50510000  0.71140000  1.0 -0.160635337
C  C125  1  0.52130000  0.49010000  0.73910000  1.0 0.0400256446
C  C126  1  0.53200000  0.57050000  0.80030000  1.0 0.0400256446
C  C127  1  0.44890000  0.58550000  0.77260000  1.0 -0.1704505033
C  C128  1  0.11960000  0.78620000  0.83040000  1.0 0.4016160845
C  C129  1  0.84020000  0.83820000  0.78290000  1.0 0.1123735074
C  C130  1  0.16110000  0.75640000  0.80700000  1.0 -0.0930671123
C  C131  1  0.92120000  0.83840000  0.82030000  1.0 -0.1704505033
C  C132  1  0.23320000  0.70170000  0.75490000  1.0 -0.0267448536
C  C133  1  0.19660000  0.79860000  0.78570000  1.0 -0.0704651859
C  C134  1  0.82890000  0.72550000  0.78850000  1.0 0.1123735074
C  C135  1  0.01920000  0.59730000  0.66040000  1.0 0.4329852006
C  C136  1  0.95940000  0.64200000  0.71010000  1.0 0.4512082665
C  C137  1  0.72750000  0.49720000  0.62960000  1.0 0.1007941338
C  C138  1  0.76900000  0.47280000  0.57550000  1.0 0.0853544056
C  C139  1  0.86760000  0.50450000  0.65640000  1.0 0.1602873906
C  C140  1  0.01760000  0.72340000  0.67300000  1.0 0.0309566868
C  C141  1  0.03670000  0.66750000  0.65170000  1.0 -0.076460977
C  C142  1  0.00770000  0.84480000  0.68470000  1.0 -0.0497875946
C  C143  1  0.03120000  0.79070000  0.66310000  1.0 0.0309566868
C  C144  1  0.07630000  0.68160000  0.62480000  1.0 -0.0601063716
C  C145  1  0.59790000  0.03900000  0.54760000  1.0 -0.0704651859
C  C146  1  0.02400000  0.06850000  0.55720000  1.0 -0.1799601839
C  C147  1  0.00950000  0.01980000  0.58330000  1.0 0.1487129346
C  C148  1  0.92870000  0.99590000  0.56090000  1.0 -0.1704505033
C  C149  1  0.96950000  0.83290000  0.71110000  1.0 -0.0601063716
C  C150  1  0.85050000  0.48560000  0.60960000  1.0 -0.160635337
C  C151  1  0.96470000  0.09290000  0.51450000  1.0 0.0785045858
C  C152  1  0.97990000  0.71350000  0.70170000  1.0 -0.0422533428
C  C153  1  0.46930000  0.97910000  0.49920000  1.0 0.0473012432
C  C154  1  0.07350000  0.80350000  0.63530000  1.0 -0.0497875946
C  C155  1  0.95630000  0.76600000  0.71940000  1.0 -0.0601063716
C  C156  1  0.95590000  0.51950000  0.69490000  1.0 -0.1513807968
C  C157  1  0.53640000  0.97180000  0.58580000  1.0 -0.0497875946
C  C158  1  0.80330000  0.51240000  0.66610000  1.0 -0.1704505033
C  C159  1  0.64540000  0.27590000  0.47320000  1.0 -0.1799601839
C  C160  1  0.87190000  0.02220000  0.51680000  1.0 0.0785045858
C  C161  1  0.68650000  0.23150000  0.51390000  1.0 0.1602873906
C  C162  1  0.58990000  0.09480000  0.45950000  1.0 0.4574608981
C  C163  1  0.66570000  0.31970000  0.55970000  1.0 0.0785045858
C  C164  1  0.66400000  0.08300000  0.55080000  1.0 0.4380933336
C  C165  1  0.62070000  0.33950000  0.47850000  1.0 0.1304187674
C  C166  1  0.09150000  0.74670000  0.61750000  1.0 -0.0601063716
C  C167  1  0.71420000  0.16060000  0.51020000  1.0 -0.1513807968
C  C168  1  0.07160000  0.99530000  0.63270000  1.0 -0.160635337
C  C169  1  0.02260000  0.91730000  0.67330000  1.0 0.4329852006
C  C170  1  0.08630000  0.87650000  0.62610000  1.0 0.4380933336
C  C171  1  0.47210000  0.95320000  0.54160000  1.0 -0.0497875946
C  C172  1  0.69240000  0.25600000  0.55680000  1.0 -0.1799601839
C  C173  1  0.59960000  0.01510000  0.58880000  1.0 -0.0601063716
C  C174  1  0.20560000  0.91520000  0.27340000  1.0 -0.0497875946
C  C175  1  0.13240000  0.92990000  0.31740000  1.0 -0.0422533428
C  C176  1  0.13200000  0.85870000  0.32410000  1.0 -0.0704651859
C  C177  1  0.09530000  0.83160000  0.35270000  1.0 0.4380933336
C  C178  1  0.91140000  0.77970000  0.32720000  1.0 -0.1704505033
C  C179  1  0.77510000  0.59800000  0.10960000  1.0 -0.5417237849
C  C180  1  0.95930000  0.72360000  0.34290000  1.0 0.1397362608
C  C181  1  0.04900000  0.73070000  0.37950000  1.0 -0.1287674354
C  C182  1  0.27030000  0.83060000  0.22540000  1.0 0.4380933336
C  C183  1  0.20110000  0.84190000  0.27620000  1.0 0.0309566868
C  C184  1  0.25290000  0.94700000  0.25070000  1.0 0.4512082665
C  C185  1  0.23310000  0.72960000  0.26200000  1.0 -0.0601063716
C  C186  1  0.31270000  0.93170000  0.19760000  1.0 -0.1235856087
C  C187  1  0.16580000  0.81590000  0.30270000  1.0 0.0400256446
C  C188  1  0.17080000  0.95710000  0.29380000  1.0 -0.0704651859
C  C189  1  0.74810000  0.62830000  0.14070000  1.0 0.4180377229
C  C190  1  0.40190000  0.94720000  0.22810000  1.0 0.1304187674
C  C191  1  0.43810000  0.99490000  0.21140000  1.0 -0.160635337
C  C192  1  0.52130000  0.00990000  0.23910000  1.0 0.0400256446
C  C193  1  0.53200000  0.92950000  0.30030000  1.0 0.0400256446
C  C194  1  0.44890000  0.91450000  0.27260000  1.0 -0.1704505033
C  C195  1  0.11960000  0.71380000  0.33040000  1.0 0.4016160845
C  C196  1  0.84020000  0.66180000  0.28290000  1.0 0.1123735074
C  C197  1  0.16110000  0.74360000  0.30700000  1.0 -0.0930671123
C  C198  1  0.92120000  0.66160000  0.32030000  1.0 -0.1704505033
C  C199  1  0.23320000  0.79830000  0.25490000  1.0 -0.0267448536
C  C200  1  0.19660000  0.70140000  0.28570000  1.0 -0.0704651859
C  C201  1  0.82890000  0.77450000  0.28850000  1.0 0.1123735074
C  C202  1  0.98080000  0.09730000  0.83960000  1.0 0.4329852006
C  C203  1  0.04060000  0.14200000  0.78990000  1.0 0.4512082665
C  C204  1  0.27250000  0.99720000  0.87040000  1.0 0.1007941338
C  C205  1  0.23100000  0.97280000  0.92450000  1.0 0.0853544056
C  C206  1  0.13240000  0.00450000  0.84360000  1.0 0.1602873906
C  C207  1  0.98240000  0.22340000  0.82700000  1.0 0.0400256446
C  C208  1  0.96330000  0.16750000  0.84830000  1.0 -0.076460977
C  C209  1  0.99230000  0.34480000  0.81530000  1.0 -0.0497875946
C  C210  1  0.96880000  0.29070000  0.83690000  1.0 0.0309566868
C  C211  1  0.92370000  0.18160000  0.87520000  1.0 -0.0601063716
C  C212  1  0.40210000  0.53900000  0.95240000  1.0 -0.0704651859
C  C213  1  0.97600000  0.56850000  0.94280000  1.0 -0.1799601839
C  C214  1  0.99050000  0.51980000  0.91670000  1.0 0.1487129346
C  C215  1  0.07130000  0.49590000  0.93910000  1.0 -0.1704505033
C  C216  1  0.03050000  0.33290000  0.78890000  1.0 -0.0601063716
C  C217  1  0.14950000  0.98560000  0.89040000  1.0 -0.160635337
C  C218  1  0.03530000  0.59290000  0.98550000  1.0 0.0785045858
C  C219  1  0.02010000  0.21350000  0.79830000  1.0 -0.0422533428
C  C220  1  0.53070000  0.47910000  0.00080000  1.0 0.0473012432
C  C221  1  0.92650000  0.30350000  0.86470000  1.0 -0.0497875946
C  C222  1  0.04370000  0.26600000  0.78060000  1.0 -0.0601063716
C  C223  1  0.04410000  0.01950000  0.80510000  1.0 -0.1513807968
C  C224  1  0.46360000  0.47180000  0.91420000  1.0 -0.0497875946
C  C225  1  0.19670000  0.01240000  0.83390000  1.0 -0.160635337
C  C226  1  0.35460000  0.77590000  0.02680000  1.0 -0.1799601839
C  C227  1  0.12810000  0.52220000  0.98320000  1.0 0.0785045858
C  C228  1  0.31350000  0.73150000  0.98610000  1.0 0.1602873906
C  C229  1  0.41010000  0.59480000  0.04050000  1.0 0.4574608981
C  C230  1  0.33430000  0.81970000  0.94030000  1.0 0.0785045858
C  C231  1  0.33600000  0.58300000  0.94920000  1.0 0.4380933336
C  C232  1  0.37930000  0.83950000  0.02150000  1.0 0.1304187674
C  C233  1  0.90850000  0.24670000  0.88250000  1.0 -0.0601063716
C  C234  1  0.28580000  0.66060000  0.98980000  1.0 -0.1513807968
C  C235  1  0.92840000  0.49530000  0.86730000  1.0 -0.160635337
C  C236  1  0.97740000  0.41730000  0.82670000  1.0 0.4329852006
C  C237  1  0.91370000  0.37650000  0.87390000  1.0 0.4380933336
C  C238  1  0.52790000  0.45320000  0.95840000  1.0 -0.0497875946
C  C239  1  0.30760000  0.75600000  0.94320000  1.0 -0.1799601839
C  C240  1  0.40040000  0.51510000  0.91120000  1.0 -0.0601063716
C  C241  1  0.79440000  0.41520000  0.22660000  1.0 -0.0497875946
C  C242  1  0.86760000  0.42990000  0.18260000  1.0 -0.0422533428
C  C243  1  0.86800000  0.35870000  0.17590000  1.0 -0.0704651859
C  C244  1  0.90470000  0.33160000  0.14730000  1.0 0.4380933336
C  C245  1  0.08860000  0.27970000  0.17280000  1.0 -0.1704505033
C  C246  1  0.22490000  0.09800000  0.39040000  1.0 -0.5417237849
C  C247  1  0.04070000  0.22360000  0.15710000  1.0 0.1397362608
C  C248  1  0.95100000  0.23070000  0.12050000  1.0 -0.1287674354
C  C249  1  0.72970000  0.33060000  0.27460000  1.0 0.4380933336
C  C250  1  0.79890000  0.34190000  0.22380000  1.0 0.0309566868
C  C251  1  0.74710000  0.44700000  0.24930000  1.0 0.4512082665
C  C252  1  0.76690000  0.22960000  0.23800000  1.0 -0.0601063716
C  C253  1  0.68730000  0.43170000  0.30240000  1.0 -0.1235856087
C  C254  1  0.83420000  0.31590000  0.19730000  1.0 0.0400256446
C  C255  1  0.82920000  0.45710000  0.20620000  1.0 -0.0704651859
C  C256  1  0.25190000  0.12830000  0.35930000  1.0 0.4180377229
C  C257  1  0.59810000  0.44720000  0.27190000  1.0 0.1304187674
C  C258  1  0.56190000  0.49490000  0.28860000  1.0 -0.160635337
C  C259  1  0.47870000  0.50990000  0.26090000  1.0 0.0400256446
C  C260  1  0.46800000  0.42950000  0.19970000  1.0 0.0400256446
C  C261  1  0.55110000  0.41450000  0.22740000  1.0 -0.1704505033
C  C262  1  0.88040000  0.21380000  0.16960000  1.0 0.4016160845
C  C263  1  0.15980000  0.16180000  0.21710000  1.0 0.1123735074
C  C264  1  0.83890000  0.24360000  0.19300000  1.0 -0.0930671123
C  C265  1  0.07880000  0.16160000  0.17970000  1.0 -0.1704505033
C  C266  1  0.76680000  0.29830000  0.24510000  1.0 -0.0267448536
C  C267  1  0.80340000  0.20140000  0.21430000  1.0 -0.0704651859
C  C268  1  0.17110000  0.27450000  0.21150000  1.0 0.1123735074
N  N1  1  0.02020000  0.41090000  0.31080000  1.0 -0.1704505033
N  N2  1  0.37240000  0.63900000  0.48020000  1.0 -0.223573801
N  N3  1  0.34820000  0.89050000  0.49400000  1.0 -0.1704505033
N  N4  1  0.11140000  0.93280000  0.50770000  1.0 -0.160635337
N  N5  1  0.94120000  0.07600000  0.35530000  1.0 -0.1799601839
N  N6  1  0.29420000  0.52280000  0.41540000  1.0 -0.2402696674
N  N7  1  0.43180000  0.02280000  0.71640000  1.0 -0.0704651859
N  N8  1  0.27460000  0.34550000  0.83500000  1.0 -0.436750275
N  N9  1  0.90810000  0.24190000  0.64570000  1.0 -0.1799601839
N  N10  1  0.72260000  0.09800000  0.77530000  1.0 -0.1704505033
N  N11  1  0.20470000  0.28350000  0.73500000  1.0 -0.2805455224
N  N12  1  0.97980000  0.91090000  0.18920000  1.0 -0.1704505033
N  N13  1  0.62760000  0.13900000  0.01980000  1.0 -0.223573801
N  N14  1  0.65180000  0.39050000  0.00600000  1.0 -0.1704505033
N  N15  1  0.88860000  0.43280000  0.99230000  1.0 -0.160635337
N  N16  1  0.05880000  0.57600000  0.14470000  1.0 -0.1799601839
N  N17  1  0.70580000  0.02280000  0.08460000  1.0 -0.2402696674
N  N18  1  0.56820000  0.52280000  0.78360000  1.0 -0.0704651859
N  N19  1  0.72540000  0.84550000  0.66500000  1.0 -0.436750275
N  N20  1  0.09190000  0.74190000  0.85430000  1.0 -0.1799601839
N  N21  1  0.27740000  0.59800000  0.72470000  1.0 -0.1704505033
N  N22  1  0.79530000  0.78350000  0.76500000  1.0 -0.2805455224
N  N23  1  0.97980000  0.58910000  0.68920000  1.0 -0.1704505033
N  N24  1  0.62760000  0.36100000  0.51980000  1.0 -0.223573801
N  N25  1  0.65180000  0.10950000  0.50600000  1.0 -0.1704505033
N  N26  1  0.88860000  0.06720000  0.49230000  1.0 -0.160635337
N  N27  1  0.05880000  0.92400000  0.64470000  1.0 -0.1799601839
N  N28  1  0.70580000  0.47720000  0.58460000  1.0 -0.2402696674
N  N29  1  0.56820000  0.97720000  0.28360000  1.0 -0.0704651859
N  N30  1  0.72540000  0.65450000  0.16500000  1.0 -0.436750275
N  N31  1  0.09190000  0.75810000  0.35430000  1.0 -0.1799601839
N  N32  1  0.27740000  0.90200000  0.22470000  1.0 -0.1704505033
N  N33  1  0.79530000  0.71650000  0.26500000  1.0 -0.2805455224
N  N34  1  0.02020000  0.08910000  0.81080000  1.0 -0.1704505033
N  N35  1  0.37240000  0.86100000  0.98020000  1.0 -0.223573801
N  N36  1  0.34820000  0.60950000  0.99400000  1.0 -0.1704505033
N  N37  1  0.11140000  0.56720000  0.00770000  1.0 -0.160635337
N  N38  1  0.94120000  0.42400000  0.85530000  1.0 -0.1799601839
N  N39  1  0.29420000  0.97720000  0.91540000  1.0 -0.2402696674
N  N40  1  0.43180000  0.47720000  0.21640000  1.0 -0.0704651859
N  N41  1  0.27460000  0.15450000  0.33500000  1.0 -0.436750275
N  N42  1  0.90810000  0.25810000  0.14570000  1.0 -0.1799601839
N  N43  1  0.72260000  0.40200000  0.27530000  1.0 -0.1704505033
N  N44  1  0.20470000  0.21650000  0.23500000  1.0 -0.2805455224
O  O1  1  0.31930000  0.42800000  0.61280000  1.0 -0.8807247301
O  O2  1  0.15240000  0.36890000  0.43540000  1.0 -0.8499003877
O  O3  1  0.46530000  0.44670000  0.46980000  1.0 -0.7688659997
O  O4  1  0.15220000  0.23510000  0.42720000  1.0 -0.8499003877
O  O5  1  0.24390000  0.44200000  0.51870000  1.0 -0.8676712687
O  O6  1  0.91310000  0.49830000  0.42440000  1.0 -0.3437924058
O  O7  1  0.38330000  0.48680000  0.52150000  1.0 -0.8499003877
O  O8  1  0.05480000  0.58880000  0.49050000  1.0 -0.5738305272
O  O9  1  0.17890000  0.20800000  0.55260000  1.0 -0.8899419875
O  O10  1  0.46380000  0.46600000  0.61900000  1.0 -0.8595037255
O  O11  1  0.31670000  0.13840000  0.59640000  1.0 -0.8899419875
O  O12  1  0.30990000  0.23570000  0.44830000  1.0 -0.8899419875
O  O13  1  0.37800000  0.12320000  0.49920000  1.0 -0.8394231519
O  O14  1  0.54490000  0.28970000  0.61540000  1.0 -0.8807247301
O  O15  1  0.48280000  0.34700000  0.66550000  1.0 -0.8676712687
O  O16  1  0.35780000  0.20740000  0.67870000  1.0 -0.8394231519
O  O17  1  0.21780000  0.27640000  0.63330000  1.0 -0.8499003877
O  O18  1  0.09350000  0.29600000  0.48210000  1.0 -0.8499003877
O  O19  1  0.48330000  0.21490000  0.65810000  1.0 -0.8807247301
O  O20  1  0.53480000  0.41160000  0.56890000  1.0 -0.8595037255
O  O21  1  0.07280000  0.43670000  0.48040000  1.0 -0.6877055213
O  O22  1  0.18250000  0.36420000  0.56190000  1.0 -0.8394231519
O  O23  1  0.45630000  0.11240000  0.59690000  1.0 -0.8595037255
O  O24  1  0.35940000  0.34290000  0.68630000  1.0 -0.8066685916
O  O25  1  0.52020000  0.18640000  0.55140000  1.0 -0.8499003877
O  O26  1  0.23880000  0.14650000  0.50220000  1.0 -0.8899419875
O  O27  1  0.45290000  0.29970000  0.49720000  1.0 -0.7951679946
O  O28  1  0.25070000  0.29810000  0.50910000  1.0 -1.0801042081
O  O29  1  0.30730000  0.37240000  0.45190000  1.0 -0.7819334687
O  O30  1  0.33120000  0.55500000  0.57820000  1.0 -0.6492629469
O  O31  1  0.61570000  0.16090000  0.64980000  1.0 -0.6392015041
O  O32  1  0.19480000  0.31130000  0.36690000  1.0 -0.5973858229
O  O33  1  0.96130000  0.45250000  0.35630000  1.0 -0.3786462537
O  O34  1  0.06960000  0.37270000  0.26440000  1.0 -0.3613077299
O  O35  1  0.50510000  0.27130000  0.74640000  1.0 -0.5973858229
O  O36  1  0.45060000  0.18420000  0.44720000  1.0 -0.5973858229
O  O37  1  0.21230000  0.41690000  0.65120000  1.0 -0.5973858229
O  O38  1  0.38980000  0.22780000  0.55290000  1.0 -1.0721907438
O  O39  1  0.62030000  0.41070000  0.66970000  1.0 -0.6877055213
O  O40  1  0.32410000  0.02820000  0.54280000  1.0 -0.6294229151
O  O41  1  0.21250000  0.13480000  0.63660000  1.0 -0.6119577856
O  O42  1  0.39220000  0.36340000  0.56210000  1.0 -1.0246967793
O  O43  1  0.41240000  0.88060000  0.57660000  1.0 -0.3786462537
O  O44  1  0.06470000  0.15630000  0.46040000  1.0 -0.6743349404
O  O45  1  0.99720000  0.03350000  0.31070000  1.0 -0.4316958649
O  O46  1  0.87980000  0.11490000  0.39970000  1.0 -0.436750275
O  O47  1  0.27990000  0.89930000  0.41190000  1.0 -0.3922172606
O  O48  1  0.33120000  0.28460000  0.60550000  1.0 -1.0630426725
O  O49  1  0.36860000  0.20840000  0.76770000  1.0 -0.270269324
O  O50  1  0.43580000  0.28370000  0.85870000  1.0 -0.2402696674
O  O51  1  0.29060000  0.19360000  0.82480000  1.0 -0.4139593108
O  O52  1  0.35800000  0.36670000  0.77160000  1.0 -0.2907189326
O  O53  1  0.69970000  0.20550000  0.79420000  1.0 -0.4139593108
O  O54  1  0.92830000  0.13360000  0.62550000  1.0 -0.3922172606
O  O55  1  0.89450000  0.34780000  0.66940000  1.0 -0.436750275
O  O56  1  0.73320000  0.99230000  0.74820000  1.0 -0.3613077299
O  O57  1  0.26610000  0.91620000  0.58950000  1.0 0.2386341373
O  O58  1  0.27500000  0.00150000  0.66030000  1.0 0.1007941338
O  O59  1  0.68070000  0.92800000  0.88720000  1.0 -0.8807247301
O  O60  1  0.84760000  0.86890000  0.06460000  1.0 -0.8499003877
O  O61  1  0.53470000  0.94670000  0.03020000  1.0 -0.7688659997
O  O62  1  0.84780000  0.73510000  0.07280000  1.0 -0.8595037255
O  O63  1  0.75610000  0.94200000  0.98130000  1.0 -0.8676712687
O  O64  1  0.08690000  0.99830000  0.07560000  1.0 -0.3505441965
O  O65  1  0.61670000  0.98680000  0.97850000  1.0 -0.8499003877
O  O66  1  0.94520000  0.08880000  0.00950000  1.0 -0.5639029563
O  O67  1  0.82110000  0.70800000  0.94740000  1.0 -0.8899419875
O  O68  1  0.53620000  0.96600000  0.88100000  1.0 -0.8676712687
O  O69  1  0.68330000  0.63840000  0.90360000  1.0 -0.8899419875
O  O70  1  0.69010000  0.73570000  0.05170000  1.0 -0.8899419875
O  O71  1  0.62200000  0.62320000  0.00080000  1.0 -0.8394231519
O  O72  1  0.45510000  0.78970000  0.88460000  1.0 -0.8807247301
O  O73  1  0.51720000  0.84700000  0.83450000  1.0 -0.8676712687
O  O74  1  0.64220000  0.70740000  0.82130000  1.0 -0.8394231519
O  O75  1  0.78220000  0.77640000  0.86670000  1.0 -0.8499003877
O  O76  1  0.90650000  0.79600000  0.01790000  1.0 -0.8499003877
O  O77  1  0.51670000  0.71490000  0.84190000  1.0 -0.8807247301
O  O78  1  0.46520000  0.91160000  0.93110000  1.0 -0.8595037255
O  O79  1  0.92720000  0.93670000  0.01960000  1.0 -0.6877055213
O  O80  1  0.81750000  0.86420000  0.93810000  1.0 -0.8394231519
O  O81  1  0.54370000  0.61240000  0.90310000  1.0 -0.8595037255
O  O82  1  0.64060000  0.84290000  0.81370000  1.0 -0.8066685916
O  O83  1  0.47980000  0.68640000  0.94860000  1.0 -0.8499003877
O  O84  1  0.76120000  0.64650000  0.99780000  1.0 -0.8899419875
O  O85  1  0.54710000  0.79970000  0.00280000  1.0 -0.7941892267
O  O86  1  0.74930000  0.79810000  0.99090000  1.0 -1.0801042081
O  O87  1  0.69270000  0.87240000  0.04810000  1.0 -0.7819334687
O  O88  1  0.66880000  0.05500000  0.92180000  1.0 -0.6492629469
O  O89  1  0.38430000  0.66090000  0.85020000  1.0 -0.6392015041
O  O90  1  0.80520000  0.81130000  0.13310000  1.0 -0.5946011067
O  O91  1  0.03870000  0.95250000  0.14370000  1.0 -0.3786462537
O  O92  1  0.93040000  0.87270000  0.23560000  1.0 -0.3613077299
O  O93  1  0.49490000  0.77130000  0.75360000  1.0 -0.5973858229
O  O94  1  0.54940000  0.68420000  0.05280000  1.0 -0.5973858229
O  O95  1  0.78770000  0.91690000  0.84880000  1.0 -0.5973858229
O  O96  1  0.61020000  0.72780000  0.94710000  1.0 -1.0721907438
O  O97  1  0.37970000  0.91070000  0.83030000  1.0 -0.6877055213
O  O98  1  0.67590000  0.52820000  0.95720000  1.0 -0.6294229151
O  O99  1  0.78750000  0.63480000  0.86340000  1.0 -0.6119577856
O  O100  1  0.60780000  0.86340000  0.93790000  1.0 -1.0246967793
O  O101  1  0.58760000  0.38060000  0.92340000  1.0 -0.3786462537
O  O102  1  0.93530000  0.65630000  0.03960000  1.0 -0.6743349404
O  O103  1  0.00280000  0.53350000  0.18930000  1.0 -0.4316958649
O  O104  1  0.12020000  0.61490000  0.10030000  1.0 -0.436750275
O  O105  1  0.72010000  0.39930000  0.08810000  1.0 -0.3922172606
O  O106  1  0.66880000  0.78460000  0.89450000  1.0 -1.0630426725
O  O107  1  0.63140000  0.70840000  0.73230000  1.0 -0.270269324
O  O108  1  0.56420000  0.78370000  0.64130000  1.0 -0.2402696674
O  O109  1  0.70940000  0.69360000  0.67520000  1.0 -0.4139593108
O  O110  1  0.64200000  0.86670000  0.72840000  1.0 -0.2907189326
O  O111  1  0.30030000  0.70550000  0.70580000  1.0 -0.4139593108
O  O112  1  0.07170000  0.63360000  0.87450000  1.0 -0.3922172606
O  O113  1  0.10550000  0.84780000  0.83060000  1.0 -0.4316958649
O  O114  1  0.26680000  0.49230000  0.75180000  1.0 -0.3613077299
O  O115  1  0.73390000  0.41620000  0.91050000  1.0 0.2386341373
O  O116  1  0.72500000  0.50150000  0.83970000  1.0 0.1007941338
O  O117  1  0.68070000  0.57200000  0.38720000  1.0 -0.8807247301
O  O118  1  0.84760000  0.63110000  0.56460000  1.0 -0.8499003877
O  O119  1  0.53470000  0.55330000  0.53020000  1.0 -0.7688659997
O  O120  1  0.84780000  0.76490000  0.57280000  1.0 -0.8595037255
O  O121  1  0.75610000  0.55800000  0.48130000  1.0 -0.8676712687
O  O122  1  0.08690000  0.50170000  0.57560000  1.0 -0.3437924058
O  O123  1  0.61670000  0.51320000  0.47850000  1.0 -0.8499003877
O  O124  1  0.94520000  0.41120000  0.50950000  1.0 -0.5738305272
O  O125  1  0.82110000  0.79200000  0.44740000  1.0 -0.8899419875
O  O126  1  0.53620000  0.53400000  0.38100000  1.0 -0.8676712687
O  O127  1  0.68330000  0.86160000  0.40360000  1.0 -0.8899419875
O  O128  1  0.69010000  0.76430000  0.55170000  1.0 -0.8899419875
O  O129  1  0.62200000  0.87680000  0.50080000  1.0 -0.8394231519
O  O130  1  0.45510000  0.71030000  0.38460000  1.0 -0.8807247301
O  O131  1  0.51720000  0.65300000  0.33450000  1.0 -0.8676712687
O  O132  1  0.64220000  0.79260000  0.32130000  1.0 -0.8394231519
O  O133  1  0.78220000  0.72360000  0.36670000  1.0 -0.8499003877
O  O134  1  0.90650000  0.70400000  0.51790000  1.0 -0.8499003877
O  O135  1  0.51670000  0.78510000  0.34190000  1.0 -0.8807247301
O  O136  1  0.46520000  0.58840000  0.43110000  1.0 -0.8595037255
O  O137  1  0.92720000  0.56330000  0.51960000  1.0 -0.6877055213
O  O138  1  0.81750000  0.63580000  0.43810000  1.0 -0.8394231519
O  O139  1  0.54370000  0.88760000  0.40310000  1.0 -0.8595037255
O  O140  1  0.64060000  0.65710000  0.31370000  1.0 -0.8066685916
O  O141  1  0.47980000  0.81360000  0.44860000  1.0 -0.8499003877
O  O142  1  0.76120000  0.85350000  0.49780000  1.0 -0.8899419875
O  O143  1  0.54710000  0.70030000  0.50280000  1.0 -0.7941892267
O  O144  1  0.74930000  0.70190000  0.49090000  1.0 -1.0801042081
O  O145  1  0.69270000  0.62760000  0.54810000  1.0 -0.7819334687
O  O146  1  0.66880000  0.44500000  0.42180000  1.0 -0.6492629469
O  O147  1  0.38430000  0.83910000  0.35020000  1.0 -0.6392015041
O  O148  1  0.80520000  0.68870000  0.63310000  1.0 -0.5973858229
O  O149  1  0.03870000  0.54750000  0.64370000  1.0 -0.3786462537
O  O150  1  0.93040000  0.62730000  0.73560000  1.0 -0.3613077299
O  O151  1  0.49490000  0.72870000  0.25360000  1.0 -0.5973858229
O  O152  1  0.54940000  0.81580000  0.55280000  1.0 -0.5973858229
O  O153  1  0.78770000  0.58310000  0.34880000  1.0 -0.5973858229
O  O154  1  0.61020000  0.77220000  0.44710000  1.0 -1.0721907438
O  O155  1  0.37970000  0.58930000  0.33030000  1.0 -0.6877055213
O  O156  1  0.67590000  0.97180000  0.45720000  1.0 -0.6294229151
O  O157  1  0.78750000  0.86520000  0.36340000  1.0 -0.6119577856
O  O158  1  0.60780000  0.63660000  0.43790000  1.0 -1.0246967793
O  O159  1  0.58760000  0.11940000  0.42340000  1.0 -0.3747873724
O  O160  1  0.93530000  0.84370000  0.53960000  1.0 -0.6743349404
O  O161  1  0.00280000  0.96650000  0.68930000  1.0 -0.4316958649
O  O162  1  0.12020000  0.88510000  0.60030000  1.0 -0.436750275
O  O163  1  0.72010000  0.10070000  0.58810000  1.0 -0.3922172606
O  O164  1  0.66880000  0.71540000  0.39450000  1.0 -1.0721907438
O  O165  1  0.63140000  0.79160000  0.23230000  1.0 -0.270269324
O  O166  1  0.56420000  0.71630000  0.14130000  1.0 -0.2402696674
O  O167  1  0.70940000  0.80640000  0.17520000  1.0 -0.4196350992
O  O168  1  0.64200000  0.63330000  0.22840000  1.0 -0.2907189326
O  O169  1  0.30030000  0.79450000  0.20580000  1.0 -0.4139593108
O  O170  1  0.07170000  0.86640000  0.37450000  1.0 -0.3922172606
O  O171  1  0.10550000  0.65220000  0.33060000  1.0 -0.4316958649
O  O172  1  0.26680000  0.00770000  0.25180000  1.0 -0.3613077299
O  O173  1  0.73390000  0.08380000  0.41050000  1.0 0.2386341373
O  O174  1  0.72500000  0.99850000  0.33970000  1.0 0.1007941338
O  O175  1  0.31930000  0.07200000  0.11280000  1.0 -0.8807247301
O  O176  1  0.15240000  0.13110000  0.93540000  1.0 -0.8499003877
O  O177  1  0.46530000  0.05330000  0.96980000  1.0 -0.7688659997
O  O178  1  0.15220000  0.26490000  0.92720000  1.0 -0.8499003877
O  O179  1  0.24390000  0.05800000  0.01870000  1.0 -0.8676712687
O  O180  1  0.91310000  0.00170000  0.92440000  1.0 -0.3505441965
O  O181  1  0.38330000  0.01320000  0.02150000  1.0 -0.8499003877
O  O182  1  0.05480000  0.91120000  0.99050000  1.0 -0.5639029563
O  O183  1  0.17890000  0.29200000  0.05260000  1.0 -0.8899419875
O  O184  1  0.46380000  0.03400000  0.11900000  1.0 -0.8676712687
O  O185  1  0.31670000  0.36160000  0.09640000  1.0 -0.8899419875
O  O186  1  0.30990000  0.26430000  0.94830000  1.0 -0.8899419875
O  O187  1  0.37800000  0.37680000  0.99920000  1.0 -0.8394231519
O  O188  1  0.54490000  0.21030000  0.11540000  1.0 -0.8807247301
O  O189  1  0.48280000  0.15300000  0.16550000  1.0 -0.8676712687
O  O190  1  0.35780000  0.29260000  0.17870000  1.0 -0.8394231519
O  O191  1  0.21780000  0.22360000  0.13330000  1.0 -0.8499003877
O  O192  1  0.09350000  0.20400000  0.98210000  1.0 -0.8499003877
O  O193  1  0.48330000  0.28510000  0.15810000  1.0 -0.8807247301
O  O194  1  0.53480000  0.08840000  0.06890000  1.0 -0.8595037255
O  O195  1  0.07280000  0.06330000  0.98040000  1.0 -0.6877055213
O  O196  1  0.18250000  0.13580000  0.06190000  1.0 -0.8394231519
O  O197  1  0.45630000  0.38760000  0.09690000  1.0 -0.8595037255
O  O198  1  0.35940000  0.15710000  0.18630000  1.0 -0.8066685916
O  O199  1  0.52020000  0.31360000  0.05140000  1.0 -0.8499003877
O  O200  1  0.23880000  0.35350000  0.00220000  1.0 -0.8899419875
O  O201  1  0.45290000  0.20030000  0.99720000  1.0 -0.7951679946
O  O202  1  0.25070000  0.20190000  0.00910000  1.0 -1.0801042081
O  O203  1  0.30730000  0.12760000  0.95190000  1.0 -0.7819334687
O  O204  1  0.33120000  0.94500000  0.07820000  1.0 -0.6492629469
O  O205  1  0.61570000  0.33910000  0.14980000  1.0 -0.6392015041
O  O206  1  0.19480000  0.18870000  0.86690000  1.0 -0.5946011067
O  O207  1  0.96130000  0.04750000  0.85630000  1.0 -0.3786462537
O  O208  1  0.06960000  0.12730000  0.76440000  1.0 -0.3613077299
O  O209  1  0.50510000  0.22870000  0.24640000  1.0 -0.5973858229
O  O210  1  0.45060000  0.31580000  0.94720000  1.0 -0.5973858229
O  O211  1  0.21230000  0.08310000  0.15120000  1.0 -0.5973858229
O  O212  1  0.38980000  0.27220000  0.05290000  1.0 -1.0801042081
O  O213  1  0.62030000  0.08930000  0.16970000  1.0 -0.6877055213
O  O214  1  0.32410000  0.47180000  0.04280000  1.0 -0.6294229151
O  O215  1  0.21250000  0.36520000  0.13660000  1.0 -0.6119577856
O  O216  1  0.39220000  0.13660000  0.06210000  1.0 -1.0250801564
O  O217  1  0.41240000  0.61940000  0.07660000  1.0 -0.3786462537
O  O218  1  0.06470000  0.34370000  0.96040000  1.0 -0.6743349404
O  O219  1  0.99720000  0.46650000  0.81070000  1.0 -0.4316958649
O  O220  1  0.87980000  0.38510000  0.89970000  1.0 -0.436750275
O  O221  1  0.27990000  0.60070000  0.91190000  1.0 -0.3922172606
O  O222  1  0.33120000  0.21540000  0.10550000  1.0 -1.0630426725
O  O223  1  0.36860000  0.29160000  0.26770000  1.0 -0.270269324
O  O224  1  0.43580000  0.21630000  0.35870000  1.0 -0.2402696674
O  O225  1  0.29060000  0.30640000  0.32480000  1.0 -0.4139593108
O  O226  1  0.35800000  0.13330000  0.27160000  1.0 -0.2907189326
O  O227  1  0.69970000  0.29450000  0.29420000  1.0 -0.4139593108
O  O228  1  0.92830000  0.36640000  0.12550000  1.0 -0.3922172606
O  O229  1  0.89450000  0.15220000  0.16940000  1.0 -0.4316958649
O  O230  1  0.73320000  0.50770000  0.24820000  1.0 -0.3613077299
O  O231  1  0.26610000  0.58380000  0.08950000  1.0 0.2464099406
O  O232  1  0.27500000  0.49850000  0.16030000  1.0 0.1007941338
