# DDEC6 charges by PACMAN v1.1 (https://github.com/mtap-research/PACMAN-charge/)
data_QAXQUB_ion_pacman
_symmetry_space_group_name_H-M   'P 1'
_cell_length_a   17.20230000
_cell_length_b   17.20230000
_cell_length_c   13.30860000
_cell_angle_alpha   90.00000000
_cell_angle_beta   90.00000000
_cell_angle_gamma   90.00000000
_symmetry_Int_Tables_number   1
_chemical_formula_structural   Fe5P8H20C4N4(O17F2)2
_chemical_formula_sum   'Fe20 P32 H80 C16 N16 O136 F16'
_cell_volume   3938.26927083
_cell_formula_units_Z   4
loop_
 _symmetry_equiv_pos_site_id
 _symmetry_equiv_pos_as_xyz
  1  'x, y, z'
loop_
 _atom_site_type_symbol
 _atom_site_label
 _atom_site_symmetry_multiplicity
 _atom_site_fract_x
 _atom_site_fract_y
 _atom_site_fract_z
 _atom_site_occupancy
 _atom_site_charge
Fe  Fe1  1  0.50000000  0.50000000  0.00000000  1.0 1.4014658193
Fe  Fe2  1  0.00000000  0.00000000  0.50000000  1.0 1.4014658193
Fe  Fe3  1  0.50000000  0.50000000  0.50000000  1.0 1.3912274102
Fe  Fe4  1  0.00000000  0.00000000  0.00000000  1.0 1.3912274102
Fe  Fe5  1  0.31790000  0.69320000  0.74920000  1.0 1.5375071774
Fe  Fe6  1  0.30680000  0.31790000  0.25080000  1.0 1.5375071774
Fe  Fe7  1  0.18210000  0.19320000  0.75080000  1.0 1.5375071774
Fe  Fe8  1  0.68210000  0.30680000  0.74920000  1.0 1.5375071774
Fe  Fe9  1  0.80680000  0.18210000  0.24920000  1.0 1.5375071774
Fe  Fe10  1  0.69320000  0.68210000  0.25080000  1.0 1.5375071774
Fe  Fe11  1  0.81790000  0.80680000  0.75080000  1.0 1.5375071774
Fe  Fe12  1  0.19320000  0.81790000  0.24920000  1.0 1.5375071774
Fe  Fe13  1  0.25400000  0.75310000  0.99930000  1.0 1.590972052
Fe  Fe14  1  0.24690000  0.25400000  0.00070000  1.0 1.590972052
Fe  Fe15  1  0.24600000  0.25310000  0.50070000  1.0 1.590972052
Fe  Fe16  1  0.74600000  0.24690000  0.99930000  1.0 1.590972052
Fe  Fe17  1  0.74690000  0.24600000  0.49930000  1.0 1.590972052
Fe  Fe18  1  0.75310000  0.74600000  0.00070000  1.0 1.590972052
Fe  Fe19  1  0.75400000  0.74690000  0.50070000  1.0 1.590972052
Fe  Fe20  1  0.25310000  0.75400000  0.49930000  1.0 1.590972052
P  P1  1  0.41960000  0.67420000  0.95120000  1.0 1.4984583641
P  P2  1  0.32580000  0.41960000  0.04880000  1.0 1.4984583641
P  P3  1  0.08040000  0.17420000  0.54880000  1.0 1.4984583641
P  P4  1  0.58040000  0.32580000  0.95120000  1.0 1.4984583641
P  P5  1  0.82580000  0.08040000  0.45120000  1.0 1.4984583641
P  P6  1  0.67420000  0.58040000  0.04880000  1.0 1.4984583641
P  P7  1  0.91960000  0.82580000  0.54880000  1.0 1.4984583641
P  P8  1  0.17420000  0.91960000  0.45120000  1.0 1.4984583641
P  P9  1  0.40820000  0.82320000  0.61510000  1.0 1.452588142
P  P10  1  0.17680000  0.40820000  0.38490000  1.0 1.452588142
P  P11  1  0.09180000  0.32320000  0.88490000  1.0 1.452588142
P  P12  1  0.59180000  0.17680000  0.61510000  1.0 1.452588142
P  P13  1  0.67680000  0.09180000  0.11510000  1.0 1.452588142
P  P14  1  0.82320000  0.59180000  0.38490000  1.0 1.452588142
P  P15  1  0.90820000  0.67680000  0.88490000  1.0 1.452588142
P  P16  1  0.32320000  0.90820000  0.11510000  1.0 1.452588142
P  P17  1  0.18330000  0.60440000  0.87620000  1.0 1.4594670395
P  P18  1  0.39560000  0.18330000  0.12380000  1.0 1.4594670395
P  P19  1  0.31670000  0.10440000  0.62380000  1.0 1.4594670395
P  P20  1  0.81670000  0.39560000  0.87620000  1.0 1.4594670395
P  P21  1  0.89560000  0.31670000  0.37620000  1.0 1.4594670395
P  P22  1  0.60440000  0.81670000  0.12380000  1.0 1.4594670395
P  P23  1  0.68330000  0.89560000  0.62380000  1.0 1.4594670395
P  P24  1  0.10440000  0.68330000  0.37620000  1.0 1.4594670395
P  P25  1  0.33430000  0.59200000  0.54940000  1.0 1.4984583641
P  P26  1  0.40800000  0.33430000  0.45060000  1.0 1.4984583641
P  P27  1  0.16570000  0.09200000  0.95060000  1.0 1.4984583641
P  P28  1  0.66570000  0.40800000  0.54940000  1.0 1.4984583641
P  P29  1  0.90800000  0.16570000  0.04940000  1.0 1.4984583641
P  P30  1  0.59200000  0.66570000  0.45060000  1.0 1.4984583641
P  P31  1  0.83430000  0.90800000  0.95060000  1.0 1.4984583641
P  P32  1  0.09200000  0.83430000  0.04940000  1.0 1.4984583641
H  H1  1  0.14800000  0.03500000  0.15200000  1.0 0.2801058258
H  H2  1  0.10000000  0.01300000  0.23800000  1.0 0.2869547541
H  H3  1  0.98900000  0.18600000  0.26900000  1.0 0.2801058258
H  H4  1  0.00300000  0.10500000  0.24700000  1.0 0.2801058258
H  H5  1  0.02500000  0.13700000  0.34400000  1.0 0.2801058258
H  H6  1  0.16200000  0.10100000  0.33800000  1.0 0.1230633468
H  H7  1  0.21200000  0.12600000  0.24500000  1.0 0.1253419231
H  H8  1  0.09700000  0.17200000  0.16600000  1.0 0.1230633468
H  H9  1  0.11500000  0.21700000  0.26500000  1.0 0.1230633468
H  H10  1  0.18300000  0.99700000  0.23800000  1.0 0.2801058258
H  H11  1  0.03500000  0.85200000  0.84800000  1.0 0.2801058258
H  H12  1  0.01300000  0.90000000  0.76200000  1.0 0.2869547541
H  H13  1  0.18600000  0.01100000  0.73100000  1.0 0.2801058258
H  H14  1  0.10500000  0.99700000  0.75300000  1.0 0.2801058258
H  H15  1  0.13700000  0.97500000  0.65600000  1.0 0.2801058258
H  H16  1  0.10100000  0.83800000  0.66200000  1.0 0.1230633468
H  H17  1  0.12600000  0.78800000  0.75500000  1.0 0.1253419231
H  H18  1  0.17200000  0.90300000  0.83400000  1.0 0.1230633468
H  H19  1  0.21700000  0.88500000  0.73500000  1.0 0.1230633468
H  H20  1  0.99700000  0.81700000  0.76200000  1.0 0.2801058258
H  H21  1  0.64800000  0.46500000  0.34800000  1.0 0.2801058258
H  H22  1  0.60000000  0.48700000  0.26200000  1.0 0.2869547541
H  H23  1  0.48900000  0.31400000  0.23100000  1.0 0.2801058258
H  H24  1  0.50300000  0.39500000  0.25300000  1.0 0.2801058258
H  H25  1  0.52500000  0.36300000  0.15600000  1.0 0.2801058258
H  H26  1  0.66200000  0.39900000  0.16200000  1.0 0.1230633468
H  H27  1  0.71200000  0.37400000  0.25500000  1.0 0.1253419231
H  H28  1  0.59700000  0.32800000  0.33400000  1.0 0.1230633468
H  H29  1  0.61500000  0.28300000  0.23500000  1.0 0.1230633468
H  H30  1  0.68300000  0.50300000  0.26200000  1.0 0.2801058258
H  H31  1  0.85200000  0.96500000  0.15200000  1.0 0.2801058258
H  H32  1  0.90000000  0.98700000  0.23800000  1.0 0.2869547541
H  H33  1  0.01100000  0.81400000  0.26900000  1.0 0.2801058258
H  H34  1  0.99700000  0.89500000  0.24700000  1.0 0.2801058258
H  H35  1  0.97500000  0.86300000  0.34400000  1.0 0.2801058258
H  H36  1  0.83800000  0.89900000  0.33800000  1.0 0.1230633468
H  H37  1  0.78800000  0.87400000  0.24500000  1.0 0.1253419231
H  H38  1  0.90300000  0.82800000  0.16600000  1.0 0.1230633468
H  H39  1  0.88500000  0.78300000  0.26500000  1.0 0.1230633468
H  H40  1  0.81700000  0.00300000  0.23800000  1.0 0.2801058258
H  H41  1  0.46500000  0.35200000  0.65200000  1.0 0.2801058258
H  H42  1  0.48700000  0.40000000  0.73800000  1.0 0.2869547541
H  H43  1  0.31400000  0.51100000  0.76900000  1.0 0.2801058258
H  H44  1  0.39500000  0.49700000  0.74700000  1.0 0.2801058258
H  H45  1  0.36300000  0.47500000  0.84400000  1.0 0.2801058258
H  H46  1  0.39900000  0.33800000  0.83800000  1.0 0.1230633468
H  H47  1  0.37400000  0.28800000  0.74500000  1.0 0.1253419231
H  H48  1  0.32800000  0.40300000  0.66600000  1.0 0.1230633468
H  H49  1  0.28300000  0.38500000  0.76500000  1.0 0.1230633468
H  H50  1  0.50300000  0.31700000  0.73800000  1.0 0.2801058258
H  H51  1  0.96500000  0.14800000  0.84800000  1.0 0.2801058258
H  H52  1  0.98700000  0.10000000  0.76200000  1.0 0.2869547541
H  H53  1  0.81400000  0.98900000  0.73100000  1.0 0.2801058258
H  H54  1  0.89500000  0.00300000  0.75300000  1.0 0.2801058258
H  H55  1  0.86300000  0.02500000  0.65600000  1.0 0.2801058258
H  H56  1  0.89900000  0.16200000  0.66200000  1.0 0.1230633468
H  H57  1  0.87400000  0.21200000  0.75500000  1.0 0.1253419231
H  H58  1  0.82800000  0.09700000  0.83400000  1.0 0.1230633468
H  H59  1  0.78300000  0.11500000  0.73500000  1.0 0.1230633468
H  H60  1  0.00300000  0.18300000  0.76200000  1.0 0.2801058258
H  H61  1  0.35200000  0.53500000  0.34800000  1.0 0.2801058258
H  H62  1  0.40000000  0.51300000  0.26200000  1.0 0.2869547541
H  H63  1  0.51100000  0.68600000  0.23100000  1.0 0.2801058258
H  H64  1  0.49700000  0.60500000  0.25300000  1.0 0.2801058258
H  H65  1  0.47500000  0.63700000  0.15600000  1.0 0.2801058258
H  H66  1  0.33800000  0.60100000  0.16200000  1.0 0.1230633468
H  H67  1  0.28800000  0.62600000  0.25500000  1.0 0.1253419231
H  H68  1  0.40300000  0.67200000  0.33400000  1.0 0.1230633468
H  H69  1  0.38500000  0.71700000  0.23500000  1.0 0.1230633468
H  H70  1  0.31700000  0.49700000  0.26200000  1.0 0.2801058258
H  H71  1  0.53500000  0.64800000  0.65200000  1.0 0.2801058258
H  H72  1  0.51300000  0.60000000  0.73800000  1.0 0.2869547541
H  H73  1  0.68600000  0.48900000  0.76900000  1.0 0.2801058258
H  H74  1  0.60500000  0.50300000  0.74700000  1.0 0.2801058258
H  H75  1  0.63700000  0.52500000  0.84400000  1.0 0.2801058258
H  H76  1  0.60100000  0.66200000  0.83800000  1.0 0.1230633468
H  H77  1  0.62600000  0.71200000  0.74500000  1.0 0.1253419231
H  H78  1  0.67200000  0.59700000  0.66600000  1.0 0.1230633468
H  H79  1  0.71700000  0.61500000  0.76500000  1.0 0.1230633468
H  H80  1  0.49700000  0.68300000  0.73800000  1.0 0.2801058258
C  C1  1  0.16090000  0.10730000  0.26590000  1.0 0.0025813163
C  C2  1  0.09970000  0.16740000  0.23870000  1.0 0.0025813163
C  C3  1  0.10730000  0.83910000  0.73410000  1.0 0.0025813163
C  C4  1  0.16740000  0.90030000  0.76130000  1.0 0.0025813163
C  C5  1  0.66090000  0.39270000  0.23410000  1.0 0.0025813163
C  C6  1  0.59970000  0.33260000  0.26130000  1.0 0.0025813163
C  C7  1  0.83910000  0.89270000  0.26590000  1.0 0.0025813163
C  C8  1  0.90030000  0.83260000  0.23870000  1.0 0.0025813163
C  C9  1  0.39270000  0.33910000  0.76590000  1.0 0.0025813163
C  C10  1  0.33260000  0.40030000  0.73870000  1.0 0.0025813163
C  C11  1  0.89270000  0.16090000  0.73410000  1.0 0.0025813163
C  C12  1  0.83260000  0.09970000  0.76130000  1.0 0.0025813163
C  C13  1  0.33910000  0.60730000  0.23410000  1.0 0.0025813163
C  C14  1  0.40030000  0.66740000  0.26130000  1.0 0.0025813163
C  C15  1  0.60730000  0.66090000  0.76590000  1.0 0.0025813163
C  C16  1  0.66740000  0.59970000  0.73870000  1.0 0.0025813163
N  N1  1  0.14640000  0.03010000  0.21870000  1.0 -0.4228165301
N  N2  1  0.02120000  0.14680000  0.27880000  1.0 -0.4228165301
N  N3  1  0.03010000  0.85360000  0.78130000  1.0 -0.4228165301
N  N4  1  0.14680000  0.97880000  0.72120000  1.0 -0.4228165301
N  N5  1  0.64640000  0.46990000  0.28130000  1.0 -0.4228165301
N  N6  1  0.52120000  0.35320000  0.22120000  1.0 -0.4228165301
N  N7  1  0.85360000  0.96990000  0.21870000  1.0 -0.4228165301
N  N8  1  0.97880000  0.85320000  0.27880000  1.0 -0.4228165301
N  N9  1  0.46990000  0.35360000  0.71870000  1.0 -0.4228165301
N  N10  1  0.35320000  0.47880000  0.77880000  1.0 -0.4228165301
N  N11  1  0.96990000  0.14640000  0.78130000  1.0 -0.4228165301
N  N12  1  0.85320000  0.02120000  0.72120000  1.0 -0.4228165301
N  N13  1  0.35360000  0.53010000  0.28130000  1.0 -0.4228165301
N  N14  1  0.47880000  0.64680000  0.22120000  1.0 -0.4228165301
N  N15  1  0.53010000  0.64640000  0.71870000  1.0 -0.4228165301
N  N16  1  0.64680000  0.52120000  0.77880000  1.0 -0.4228165301
O  O1  1  0.50000000  0.50000000  0.14310000  1.0 -0.4627332171
O  O2  1  0.50000000  0.50000000  0.85690000  1.0 -0.4627332171
O  O3  1  0.00000000  0.00000000  0.35690000  1.0 -0.4627332171
O  O4  1  0.00000000  0.00000000  0.64310000  1.0 -0.4627332171
O  O5  1  0.50000000  0.50000000  0.64450000  1.0 -0.4321197013
O  O6  1  0.50000000  0.50000000  0.35550000  1.0 -0.4321197013
O  O7  1  0.00000000  0.00000000  0.85550000  1.0 -0.4321197013
O  O8  1  0.00000000  0.00000000  0.14450000  1.0 -0.4321197013
O  O9  1  0.35330000  0.69880000  0.01910000  1.0 -0.722312509
O  O10  1  0.30120000  0.35330000  0.98090000  1.0 -0.722312509
O  O11  1  0.14670000  0.19880000  0.48090000  1.0 -0.722312509
O  O12  1  0.64670000  0.30120000  0.01910000  1.0 -0.722312509
O  O13  1  0.80120000  0.14670000  0.51910000  1.0 -0.722312509
O  O14  1  0.69880000  0.64670000  0.98090000  1.0 -0.722312509
O  O15  1  0.85330000  0.80120000  0.48090000  1.0 -0.722312509
O  O16  1  0.19880000  0.85330000  0.51910000  1.0 -0.722312509
O  O17  1  0.46790000  0.61320000  0.00380000  1.0 -0.6565973301
O  O18  1  0.38680000  0.46790000  0.99620000  1.0 -0.6565973301
O  O19  1  0.03210000  0.11320000  0.49620000  1.0 -0.6565973301
O  O20  1  0.53210000  0.38680000  0.00380000  1.0 -0.6565973301
O  O21  1  0.88680000  0.03210000  0.50380000  1.0 -0.6565973301
O  O22  1  0.61320000  0.53210000  0.99620000  1.0 -0.6565973301
O  O23  1  0.96790000  0.88680000  0.49620000  1.0 -0.6565973301
O  O24  1  0.11320000  0.96790000  0.50380000  1.0 -0.6565973301
O  O25  1  0.39140000  0.54150000  0.49310000  1.0 -0.6449698349
O  O26  1  0.45850000  0.39140000  0.50690000  1.0 -0.6449698349
O  O27  1  0.10860000  0.04150000  0.00690000  1.0 -0.6449698349
O  O28  1  0.60860000  0.45850000  0.49310000  1.0 -0.6449698349
O  O29  1  0.95850000  0.10860000  0.99310000  1.0 -0.6449698349
O  O30  1  0.54150000  0.60860000  0.50690000  1.0 -0.6454806467
O  O31  1  0.89140000  0.95850000  0.00690000  1.0 -0.6454806467
O  O32  1  0.04150000  0.89140000  0.99310000  1.0 -0.6454806467
O  O33  1  0.19960000  0.65230000  0.96880000  1.0 -0.6880709221
O  O34  1  0.34770000  0.19960000  0.03120000  1.0 -0.6880709221
O  O35  1  0.30040000  0.15230000  0.53120000  1.0 -0.6880709221
O  O36  1  0.80040000  0.34770000  0.96880000  1.0 -0.6880709221
O  O37  1  0.84770000  0.30040000  0.46880000  1.0 -0.6880709221
O  O38  1  0.65230000  0.80040000  0.03120000  1.0 -0.6880709221
O  O39  1  0.69960000  0.84770000  0.53120000  1.0 -0.6880709221
O  O40  1  0.15230000  0.69960000  0.46880000  1.0 -0.6880709221
O  O41  1  0.36420000  0.62280000  0.64900000  1.0 -0.6804007169
O  O42  1  0.37720000  0.36420000  0.35100000  1.0 -0.6804007169
O  O43  1  0.13580000  0.12280000  0.85100000  1.0 -0.6804007169
O  O44  1  0.63580000  0.37720000  0.64900000  1.0 -0.6804007169
O  O45  1  0.87720000  0.13580000  0.14900000  1.0 -0.6804007169
O  O46  1  0.62280000  0.63580000  0.35100000  1.0 -0.6804007169
O  O47  1  0.86420000  0.87720000  0.85100000  1.0 -0.6804007169
O  O48  1  0.12280000  0.86420000  0.14900000  1.0 -0.6804007169
O  O49  1  0.24190000  0.61410000  0.79220000  1.0 -0.7316610952
O  O50  1  0.38590000  0.24190000  0.20780000  1.0 -0.7316610952
O  O51  1  0.25810000  0.11410000  0.70780000  1.0 -0.7316610952
O  O52  1  0.75810000  0.38590000  0.79220000  1.0 -0.7316610952
O  O53  1  0.88590000  0.25810000  0.29220000  1.0 -0.7316610952
O  O54  1  0.61410000  0.75810000  0.20780000  1.0 -0.7316610952
O  O55  1  0.74190000  0.88590000  0.70780000  1.0 -0.7316610952
O  O56  1  0.11410000  0.74190000  0.29220000  1.0 -0.7316610952
O  O57  1  0.26280000  0.53890000  0.57890000  1.0 -0.4858743091
O  O58  1  0.46110000  0.26280000  0.42110000  1.0 -0.4858743091
O  O59  1  0.23720000  0.03890000  0.92110000  1.0 -0.4858743091
O  O60  1  0.73720000  0.46110000  0.57890000  1.0 -0.4858743091
O  O61  1  0.96110000  0.23720000  0.07890000  1.0 -0.4858743091
O  O62  1  0.53890000  0.73720000  0.42110000  1.0 -0.4858743091
O  O63  1  0.76280000  0.96110000  0.92110000  1.0 -0.4827937237
O  O64  1  0.03890000  0.76280000  0.07890000  1.0 -0.4858743091
O  O65  1  0.39360000  0.64990000  0.84630000  1.0 -0.6804007169
O  O66  1  0.35010000  0.39360000  0.15370000  1.0 -0.6804007169
O  O67  1  0.10640000  0.14990000  0.65370000  1.0 -0.6804007169
O  O68  1  0.60640000  0.35010000  0.84630000  1.0 -0.6804007169
O  O69  1  0.85010000  0.10640000  0.34630000  1.0 -0.6804007169
O  O70  1  0.64990000  0.60640000  0.15370000  1.0 -0.6804007169
O  O71  1  0.89360000  0.85010000  0.65370000  1.0 -0.6804007169
O  O72  1  0.14990000  0.89360000  0.34630000  1.0 -0.6804007169
O  O73  1  0.38700000  0.78020000  0.70920000  1.0 -0.722312509
O  O74  1  0.21980000  0.38700000  0.29080000  1.0 -0.722312509
O  O75  1  0.11300000  0.28020000  0.79080000  1.0 -0.722312509
O  O76  1  0.61300000  0.21980000  0.70920000  1.0 -0.722312509
O  O77  1  0.71980000  0.11300000  0.20920000  1.0 -0.722312509
O  O78  1  0.78020000  0.61300000  0.29080000  1.0 -0.722312509
O  O79  1  0.88700000  0.71980000  0.79080000  1.0 -0.722312509
O  O80  1  0.28020000  0.88700000  0.20920000  1.0 -0.722312509
O  O81  1  0.17930000  0.51850000  0.90680000  1.0 -0.4228165301
O  O82  1  0.48150000  0.17930000  0.09320000  1.0 -0.4228165301
O  O83  1  0.32070000  0.01850000  0.59320000  1.0 -0.4228165301
O  O84  1  0.82070000  0.48150000  0.90680000  1.0 -0.4228165301
O  O85  1  0.98150000  0.32070000  0.40680000  1.0 -0.4228165301
O  O86  1  0.51850000  0.82070000  0.09320000  1.0 -0.4228165301
O  O87  1  0.67930000  0.98150000  0.59320000  1.0 -0.4228165301
O  O88  1  0.01850000  0.67930000  0.40680000  1.0 -0.4228165301
O  O89  1  0.30520000  0.65500000  0.47890000  1.0 -0.7026356672
O  O90  1  0.34500000  0.30520000  0.52110000  1.0 -0.7026356672
O  O91  1  0.19480000  0.15500000  0.02110000  1.0 -0.7026356672
O  O92  1  0.69480000  0.34500000  0.47890000  1.0 -0.7026356672
O  O93  1  0.84500000  0.19480000  0.97890000  1.0 -0.7026356672
O  O94  1  0.65500000  0.69480000  0.52110000  1.0 -0.7026356672
O  O95  1  0.80520000  0.84500000  0.02110000  1.0 -0.7026356672
O  O96  1  0.15500000  0.80520000  0.97890000  1.0 -0.7026356672
O  O97  1  0.10280000  0.62820000  0.82990000  1.0 -0.4827937237
O  O98  1  0.37180000  0.10280000  0.17010000  1.0 -0.4827937237
O  O99  1  0.39720000  0.12820000  0.67010000  1.0 -0.4827937237
O  O100  1  0.89720000  0.37180000  0.82990000  1.0 -0.4827937237
O  O101  1  0.87180000  0.39720000  0.32990000  1.0 -0.4827937237
O  O102  1  0.62820000  0.89720000  0.17010000  1.0 -0.4827937237
O  O103  1  0.60280000  0.87180000  0.67010000  1.0 -0.4827937237
O  O104  1  0.12820000  0.60280000  0.32990000  1.0 -0.4827937237
O  O105  1  0.47400000  0.74750000  0.93080000  1.0 -0.4827937237
O  O106  1  0.25250000  0.47400000  0.06920000  1.0 -0.4827937237
O  O107  1  0.02600000  0.24750000  0.56920000  1.0 -0.4827937237
O  O108  1  0.52600000  0.25250000  0.93080000  1.0 -0.4827937237
O  O109  1  0.75250000  0.02600000  0.43080000  1.0 -0.4827937237
O  O110  1  0.74750000  0.52600000  0.06920000  1.0 -0.4827937237
O  O111  1  0.97400000  0.75250000  0.56920000  1.0 -0.4827937237
O  O112  1  0.24750000  0.97400000  0.43080000  1.0 -0.4827937237
O  O113  1  0.35490000  0.80720000  0.52560000  1.0 -0.6880709221
O  O114  1  0.19280000  0.35490000  0.47440000  1.0 -0.6880709221
O  O115  1  0.14510000  0.30720000  0.97440000  1.0 -0.6880709221
O  O116  1  0.64510000  0.19280000  0.52560000  1.0 -0.6880709221
O  O117  1  0.69280000  0.14510000  0.02560000  1.0 -0.6880709221
O  O118  1  0.80720000  0.64510000  0.47440000  1.0 -0.6880709221
O  O119  1  0.85490000  0.69280000  0.97440000  1.0 -0.6880709221
O  O120  1  0.30720000  0.85490000  0.02560000  1.0 -0.6880709221
O  O121  1  0.41020000  0.91040000  0.63940000  1.0 -0.4627332171
O  O122  1  0.08960000  0.41020000  0.36060000  1.0 -0.4706919117
O  O123  1  0.08980000  0.41040000  0.86060000  1.0 -0.4706919117
O  O124  1  0.58980000  0.08960000  0.63940000  1.0 -0.4627332171
O  O125  1  0.58960000  0.08980000  0.13940000  1.0 -0.4627332171
O  O126  1  0.91040000  0.58980000  0.36060000  1.0 -0.4627332171
O  O127  1  0.91020000  0.58960000  0.86060000  1.0 -0.4627332171
O  O128  1  0.41040000  0.91020000  0.13940000  1.0 -0.4627332171
O  O129  1  0.49150000  0.80310000  0.58660000  1.0 -0.4321197013
O  O130  1  0.19690000  0.49150000  0.41340000  1.0 -0.4321197013
O  O131  1  0.00850000  0.30310000  0.91340000  1.0 -0.4321197013
O  O132  1  0.50850000  0.19690000  0.58660000  1.0 -0.4321197013
O  O133  1  0.69690000  0.00850000  0.08660000  1.0 -0.4321197013
O  O134  1  0.80310000  0.50850000  0.41340000  1.0 -0.4321197013
O  O135  1  0.99150000  0.69690000  0.91340000  1.0 -0.4321197013
O  O136  1  0.30310000  0.99150000  0.08660000  1.0 -0.4321197013
F  F1  1  0.24220000  0.73060000  0.64620000  1.0 -0.4706919117
F  F2  1  0.26940000  0.24220000  0.35380000  1.0 -0.4706919117
F  F3  1  0.25780000  0.23060000  0.85380000  1.0 -0.4706919117
F  F4  1  0.75780000  0.26940000  0.64620000  1.0 -0.4706919117
F  F5  1  0.76940000  0.25780000  0.14620000  1.0 -0.4706919117
F  F6  1  0.73060000  0.75780000  0.35380000  1.0 -0.4706919117
F  F7  1  0.74220000  0.76940000  0.85380000  1.0 -0.4706919117
F  F8  1  0.23060000  0.74220000  0.14620000  1.0 -0.4706919117
F  F9  1  0.27620000  0.76440000  0.85310000  1.0 -0.4706919117
F  F10  1  0.23560000  0.27620000  0.14690000  1.0 -0.4706919117
F  F11  1  0.22380000  0.26440000  0.64690000  1.0 -0.4706919117
F  F12  1  0.72380000  0.23560000  0.85310000  1.0 -0.4706919117
F  F13  1  0.73560000  0.22380000  0.35310000  1.0 -0.4706919117
F  F14  1  0.76440000  0.72380000  0.14690000  1.0 -0.4706919117
F  F15  1  0.77620000  0.73560000  0.64690000  1.0 -0.4706919117
F  F16  1  0.26440000  0.77620000  0.35310000  1.0 -0.4706919117
