# DDEC6 charges by PACMAN v1.1 (https://github.com/mtap-research/PACMAN-charge/)
data_QAYBOL_ASR_pacman
_symmetry_space_group_name_H-M   'P 1'
_cell_length_a   24.84870000
_cell_length_b   24.84870000
_cell_length_c   24.84870000
_cell_angle_alpha   60.00000000
_cell_angle_beta   60.00000000
_cell_angle_gamma   60.00000000
_symmetry_Int_Tables_number   1
_chemical_formula_structural   Zr3H49C15(N9O13)2
_chemical_formula_sum   'Zr24 H392 C120 N144 O208'
_cell_volume   10849.15766717
_cell_formula_units_Z   8
loop_
 _symmetry_equiv_pos_site_id
 _symmetry_equiv_pos_as_xyz
  1  'x, y, z'
loop_
 _atom_site_type_symbol
 _atom_site_label
 _atom_site_symmetry_multiplicity
 _atom_site_fract_x
 _atom_site_fract_y
 _atom_site_fract_z
 _atom_site_occupancy
 _atom_site_charge
Zr  Zr1  1  0.64806000  0.50796000  0.64806000  1.0 1.978703673
Zr  Zr2  1  0.19592000  0.64806000  0.50796000  1.0 1.978703673
Zr  Zr3  1  0.64806000  0.19592000  0.64806000  1.0 1.978703673
Zr  Zr4  1  0.50796000  0.64806000  0.19592000  1.0 1.978703673
Zr  Zr5  1  0.50796000  0.64806000  0.64806000  1.0 1.978703673
Zr  Zr6  1  0.64806000  0.50796000  0.19592000  1.0 1.978703673
Zr  Zr7  1  0.19592000  0.64806000  0.64806000  1.0 1.978703673
Zr  Zr8  1  0.64806000  0.19592000  0.50796000  1.0 1.978703673
Zr  Zr9  1  0.64806000  0.64806000  0.50796000  1.0 1.978703673
Zr  Zr10  1  0.50796000  0.19592000  0.64806000  1.0 1.978703673
Zr  Zr11  1  0.64806000  0.64806000  0.19592000  1.0 1.978703673
Zr  Zr12  1  0.19592000  0.50796000  0.64806000  1.0 1.978703673
Zr  Zr13  1  0.05408000  0.74204000  0.60194000  1.0 1.978703673
Zr  Zr14  1  0.60194000  0.60194000  0.74204000  1.0 1.978703673
Zr  Zr15  1  0.74204000  0.05408000  0.60194000  1.0 1.978703673
Zr  Zr16  1  0.60194000  0.60194000  0.05408000  1.0 1.978703673
Zr  Zr17  1  0.05408000  0.60194000  0.60194000  1.0 1.978703673
Zr  Zr18  1  0.60194000  0.74204000  0.05408000  1.0 1.978703673
Zr  Zr19  1  0.74204000  0.60194000  0.60194000  1.0 1.978703673
Zr  Zr20  1  0.60194000  0.05408000  0.74204000  1.0 1.978703673
Zr  Zr21  1  0.05408000  0.60194000  0.74204000  1.0 1.978703673
Zr  Zr22  1  0.60194000  0.05408000  0.60194000  1.0 1.978703673
Zr  Zr23  1  0.74204000  0.60194000  0.05408000  1.0 1.978703673
Zr  Zr24  1  0.60194000  0.74204000  0.60194000  1.0 1.978703673
H  H1  1  0.68531000  0.39407000  0.73357000  1.0 0.1960666962
H  H2  1  0.68810000  0.33009000  0.86231000  1.0 0.1067577582
H  H3  1  0.69400000  0.32134000  0.84050000  1.0 0.082894617
H  H4  1  0.64406000  0.29588000  0.89438000  1.0 0.082894617
H  H5  1  0.56336000  0.35316000  0.88578000  1.0 0.1203857663
H  H6  1  0.59160000  0.31678000  0.90474000  1.0 0.0740156004
H  H7  1  0.58011000  0.36189000  0.84571000  1.0 0.1261411492
H  H8  1  0.18705000  0.73357000  0.39407000  1.0 0.1960666962
H  H9  1  0.11951000  0.86232000  0.33009000  1.0 0.1067577582
H  H10  1  0.14416000  0.84050000  0.32134000  1.0 0.082894617
H  H11  1  0.16568000  0.89438000  0.29588000  1.0 0.082894617
H  H12  1  0.19770000  0.88578000  0.35316000  1.0 0.1203857663
H  H13  1  0.18688000  0.90474000  0.31678000  1.0 0.0740156004
H  H14  1  0.21229000  0.84571000  0.36189000  1.0 0.1261411492
H  H15  1  0.73357000  0.18705000  0.68531000  1.0 0.1960666962
H  H16  1  0.86231000  0.11951000  0.68810000  1.0 0.1067577582
H  H17  1  0.84050000  0.14416000  0.69400000  1.0 0.082894617
H  H18  1  0.89438000  0.16568000  0.64406000  1.0 0.082894617
H  H19  1  0.88578000  0.19770000  0.56336000  1.0 0.1203857663
H  H20  1  0.90474000  0.18688000  0.59160000  1.0 0.0740156004
H  H21  1  0.84571000  0.21229000  0.58011000  1.0 0.1261411492
H  H22  1  0.39407000  0.68531000  0.18705000  1.0 0.1960666962
H  H23  1  0.33009000  0.68809000  0.11951000  1.0 0.1067577582
H  H24  1  0.32134000  0.69400000  0.14416000  1.0 0.082894617
H  H25  1  0.29588000  0.64406000  0.16568000  1.0 0.082894617
H  H26  1  0.35316000  0.56336000  0.19770000  1.0 0.1203857663
H  H27  1  0.31678000  0.59160000  0.18688000  1.0 0.0740156004
H  H28  1  0.36189000  0.58011000  0.21229000  1.0 0.1261411492
H  H29  1  0.39407000  0.73357000  0.68531000  1.0 0.1960666962
H  H30  1  0.33009000  0.86232000  0.68810000  1.0 0.1067577582
H  H31  1  0.32134000  0.84050000  0.69400000  1.0 0.082894617
H  H32  1  0.29588000  0.89438000  0.64406000  1.0 0.082894617
H  H33  1  0.35316000  0.88578000  0.56336000  1.0 0.1203857663
H  H34  1  0.31678000  0.90474000  0.59160000  1.0 0.0740156004
H  H35  1  0.36189000  0.84571000  0.58011000  1.0 0.1261411492
H  H36  1  0.73357000  0.39407000  0.18705000  1.0 0.1960666962
H  H37  1  0.86231000  0.33009000  0.11951000  1.0 0.1067577582
H  H38  1  0.84050000  0.32134000  0.14416000  1.0 0.082894617
H  H39  1  0.89438000  0.29588000  0.16568000  1.0 0.082894617
H  H40  1  0.88578000  0.35316000  0.19770000  1.0 0.1203857663
H  H41  1  0.90474000  0.31678000  0.18688000  1.0 0.0740156004
H  H42  1  0.84571000  0.36189000  0.21229000  1.0 0.1261411492
H  H43  1  0.18705000  0.68531000  0.73357000  1.0 0.1960666962
H  H44  1  0.11951000  0.68809000  0.86231000  1.0 0.1067577582
H  H45  1  0.14416000  0.69400000  0.84050000  1.0 0.082894617
H  H46  1  0.16568000  0.64406000  0.89438000  1.0 0.082894617
H  H47  1  0.19770000  0.56336000  0.88578000  1.0 0.1203857663
H  H48  1  0.18688000  0.59160000  0.90474000  1.0 0.0740156004
H  H49  1  0.21229000  0.58011000  0.84571000  1.0 0.1261411492
H  H50  1  0.68531000  0.18705000  0.39407000  1.0 0.1960666962
H  H51  1  0.68810000  0.11950000  0.33009000  1.0 0.1067577582
H  H52  1  0.69400000  0.14416000  0.32134000  1.0 0.082894617
H  H53  1  0.64406000  0.16568000  0.29588000  1.0 0.082894617
H  H54  1  0.56336000  0.19770000  0.35316000  1.0 0.1203857663
H  H55  1  0.59160000  0.18688000  0.31678000  1.0 0.0740156004
H  H56  1  0.58011000  0.21229000  0.36189000  1.0 0.1261411492
H  H57  1  0.73357000  0.68531000  0.39407000  1.0 0.1960666962
H  H58  1  0.86231000  0.68809000  0.33009000  1.0 0.1067577582
H  H59  1  0.84050000  0.69400000  0.32134000  1.0 0.082894617
H  H60  1  0.89438000  0.64406000  0.29588000  1.0 0.082894617
H  H61  1  0.88578000  0.56336000  0.35316000  1.0 0.1203857663
H  H62  1  0.90474000  0.59160000  0.31678000  1.0 0.0740156004
H  H63  1  0.84571000  0.58011000  0.36189000  1.0 0.1261411492
H  H64  1  0.39407000  0.18705000  0.73357000  1.0 0.1960666962
H  H65  1  0.33009000  0.11951000  0.86231000  1.0 0.1067577582
H  H66  1  0.32134000  0.14416000  0.84050000  1.0 0.082894617
H  H67  1  0.29588000  0.16568000  0.89438000  1.0 0.082894617
H  H68  1  0.35316000  0.19770000  0.88578000  1.0 0.1203857663
H  H69  1  0.31678000  0.18688000  0.90474000  1.0 0.0740156004
H  H70  1  0.36189000  0.21229000  0.84571000  1.0 0.1261411492
H  H71  1  0.68531000  0.73357000  0.18705000  1.0 0.1960666962
H  H72  1  0.68810000  0.86232000  0.11951000  1.0 0.1067577582
H  H73  1  0.69400000  0.84050000  0.14416000  1.0 0.082894617
H  H74  1  0.64406000  0.89438000  0.16568000  1.0 0.082894617
H  H75  1  0.56336000  0.88578000  0.19770000  1.0 0.1203857663
H  H76  1  0.59160000  0.90474000  0.18688000  1.0 0.0740156004
H  H77  1  0.58011000  0.84571000  0.21229000  1.0 0.1261411492
H  H78  1  0.18705000  0.39407000  0.68531000  1.0 0.1960666962
H  H79  1  0.11951000  0.33009000  0.68810000  1.0 0.1067577582
H  H80  1  0.14416000  0.32134000  0.69400000  1.0 0.082894617
H  H81  1  0.16568000  0.29588000  0.64406000  1.0 0.082894617
H  H82  1  0.19770000  0.35316000  0.56336000  1.0 0.1203857663
H  H83  1  0.18688000  0.31678000  0.59160000  1.0 0.0740156004
H  H84  1  0.21229000  0.36189000  0.58011000  1.0 0.1261411492
H  H85  1  0.06295000  0.85593000  0.51643000  1.0 0.1960666962
H  H86  1  0.13050000  0.91992000  0.38769000  1.0 0.1067577582
H  H87  1  0.10584000  0.92866000  0.40950000  1.0 0.082894617
H  H88  1  0.08432000  0.95412000  0.35562000  1.0 0.082894617
H  H89  1  0.05230000  0.89684000  0.36422000  1.0 0.1203857663
H  H90  1  0.06312000  0.93322000  0.34526000  1.0 0.0740156004
H  H91  1  0.03771000  0.88811000  0.40429000  1.0 0.1261411492
H  H92  1  0.56469000  0.51643000  0.85593000  1.0 0.1960666962
H  H93  1  0.56190000  0.38769000  0.91991000  1.0 0.1067577582
H  H94  1  0.55600000  0.40950000  0.92866000  1.0 0.082894617
H  H95  1  0.60594000  0.35562000  0.95412000  1.0 0.082894617
H  H96  1  0.68664000  0.36422000  0.89684000  1.0 0.1203857663
H  H97  1  0.65840000  0.34526000  0.93322000  1.0 0.0740156004
H  H98  1  0.66989000  0.40429000  0.88811000  1.0 0.1261411492
H  H99  1  0.85593000  0.06295000  0.56469000  1.0 0.1960666962
H  H100  1  0.91991000  0.13049000  0.56190000  1.0 0.1067577582
H  H101  1  0.92866000  0.10584000  0.55600000  1.0 0.082894617
H  H102  1  0.95412000  0.08432000  0.60594000  1.0 0.082894617
H  H103  1  0.89684000  0.05230000  0.68664000  1.0 0.1203857663
H  H104  1  0.93322000  0.06312000  0.65840000  1.0 0.0740156004
H  H105  1  0.88811000  0.03771000  0.66989000  1.0 0.1261411492
H  H106  1  0.51643000  0.56469000  0.06295000  1.0 0.1960666962
H  H107  1  0.38769000  0.56190000  0.13049000  1.0 0.1067577582
H  H108  1  0.40950000  0.55600000  0.10584000  1.0 0.082894617
H  H109  1  0.35562000  0.60594000  0.08432000  1.0 0.082894617
H  H110  1  0.36422000  0.68664000  0.05230000  1.0 0.1203857663
H  H111  1  0.34526000  0.65840000  0.06312000  1.0 0.0740156004
H  H112  1  0.40429000  0.66989000  0.03771000  1.0 0.1261411492
H  H113  1  0.06295000  0.51643000  0.56469000  1.0 0.1960666962
H  H114  1  0.13050000  0.38768000  0.56190000  1.0 0.1067577582
H  H115  1  0.10584000  0.40950000  0.55600000  1.0 0.082894617
H  H116  1  0.08432000  0.35562000  0.60594000  1.0 0.082894617
H  H117  1  0.05230000  0.36422000  0.68664000  1.0 0.1203857663
H  H118  1  0.06312000  0.34526000  0.65840000  1.0 0.0740156004
H  H119  1  0.03771000  0.40429000  0.66989000  1.0 0.1261411492
H  H120  1  0.56469000  0.85593000  0.06295000  1.0 0.1960666962
H  H121  1  0.56190000  0.91992000  0.13049000  1.0 0.1067577582
H  H122  1  0.55600000  0.92866000  0.10584000  1.0 0.082894617
H  H123  1  0.60594000  0.95412000  0.08432000  1.0 0.082894617
H  H124  1  0.68664000  0.89684000  0.05230000  1.0 0.1203857663
H  H125  1  0.65840000  0.93322000  0.06312000  1.0 0.0740156004
H  H126  1  0.66989000  0.88811000  0.03771000  1.0 0.1261411492
H  H127  1  0.85593000  0.56469000  0.51643000  1.0 0.1960666962
H  H128  1  0.91991000  0.56190000  0.38769000  1.0 0.1067577582
H  H129  1  0.92866000  0.55600000  0.40950000  1.0 0.082894617
H  H130  1  0.95412000  0.60594000  0.35562000  1.0 0.082894617
H  H131  1  0.89684000  0.68664000  0.36422000  1.0 0.1203857663
H  H132  1  0.93322000  0.65840000  0.34526000  1.0 0.0740156004
H  H133  1  0.88811000  0.66989000  0.40429000  1.0 0.1261411492
H  H134  1  0.51643000  0.06295000  0.85593000  1.0 0.1960666962
H  H135  1  0.38769000  0.13049000  0.91991000  1.0 0.1067577582
H  H136  1  0.40950000  0.10584000  0.92866000  1.0 0.082894617
H  H137  1  0.35562000  0.08432000  0.95412000  1.0 0.082894617
H  H138  1  0.36422000  0.05230000  0.89684000  1.0 0.1203857663
H  H139  1  0.34526000  0.06312000  0.93322000  1.0 0.0740156004
H  H140  1  0.40429000  0.03771000  0.88811000  1.0 0.1261411492
H  H141  1  0.06295000  0.56469000  0.85593000  1.0 0.1960666962
H  H142  1  0.13050000  0.56190000  0.91991000  1.0 0.1067577582
H  H143  1  0.10584000  0.55600000  0.92866000  1.0 0.082894617
H  H144  1  0.08432000  0.60594000  0.95412000  1.0 0.082894617
H  H145  1  0.05230000  0.68664000  0.89684000  1.0 0.1203857663
H  H146  1  0.06312000  0.65840000  0.93322000  1.0 0.0740156004
H  H147  1  0.03771000  0.66989000  0.88811000  1.0 0.1261411492
H  H148  1  0.56469000  0.06295000  0.51643000  1.0 0.1960666962
H  H149  1  0.56190000  0.13049000  0.38769000  1.0 0.1067577582
H  H150  1  0.55600000  0.10584000  0.40950000  1.0 0.082894617
H  H151  1  0.60594000  0.08432000  0.35562000  1.0 0.082894617
H  H152  1  0.68664000  0.05230000  0.36422000  1.0 0.1203857663
H  H153  1  0.65840000  0.06312000  0.34526000  1.0 0.0740156004
H  H154  1  0.66989000  0.03771000  0.40429000  1.0 0.1261411492
H  H155  1  0.85593000  0.51643000  0.06295000  1.0 0.1960666962
H  H156  1  0.91991000  0.38769000  0.13049000  1.0 0.1067577582
H  H157  1  0.92866000  0.40950000  0.10584000  1.0 0.082894617
H  H158  1  0.95412000  0.35562000  0.08432000  1.0 0.082894617
H  H159  1  0.89684000  0.36422000  0.05230000  1.0 0.1203857663
H  H160  1  0.93322000  0.34526000  0.06312000  1.0 0.0740156004
H  H161  1  0.88811000  0.40429000  0.03771000  1.0 0.1261411492
H  H162  1  0.51643000  0.85593000  0.56469000  1.0 0.1960666962
H  H163  1  0.38769000  0.91992000  0.56190000  1.0 0.1067577582
H  H164  1  0.40950000  0.92866000  0.55600000  1.0 0.082894617
H  H165  1  0.35562000  0.95412000  0.60594000  1.0 0.082894617
H  H166  1  0.36422000  0.89684000  0.68664000  1.0 0.1203857663
H  H167  1  0.34526000  0.93322000  0.65840000  1.0 0.0740156004
H  H168  1  0.40429000  0.88811000  0.66989000  1.0 0.1261411492
H  H169  1  0.56469000  0.85593000  0.51643000  1.0 0.1960666962
H  H170  1  0.56190000  0.91992000  0.38769000  1.0 0.1067577582
H  H171  1  0.55600000  0.92866000  0.40950000  1.0 0.082894617
H  H172  1  0.60594000  0.95412000  0.35562000  1.0 0.082894617
H  H173  1  0.68664000  0.89684000  0.36422000  1.0 0.1203857663
H  H174  1  0.65840000  0.93322000  0.34526000  1.0 0.0740156004
H  H175  1  0.66989000  0.88811000  0.40429000  1.0 0.1261411492
H  H176  1  0.06295000  0.51643000  0.85593000  1.0 0.1960666962
H  H177  1  0.13050000  0.38769000  0.91991000  1.0 0.1067577582
H  H178  1  0.10584000  0.40950000  0.92866000  1.0 0.082894617
H  H179  1  0.08432000  0.35562000  0.95412000  1.0 0.082894617
H  H180  1  0.05230000  0.36422000  0.89684000  1.0 0.1203857663
H  H181  1  0.06312000  0.34526000  0.93322000  1.0 0.0740156004
H  H182  1  0.03771000  0.40429000  0.88811000  1.0 0.1261411492
H  H183  1  0.51643000  0.06295000  0.56469000  1.0 0.1960666962
H  H184  1  0.38769000  0.13049000  0.56190000  1.0 0.1067577582
H  H185  1  0.40950000  0.10584000  0.55600000  1.0 0.082894617
H  H186  1  0.35562000  0.08432000  0.60594000  1.0 0.082894617
H  H187  1  0.36422000  0.05230000  0.68664000  1.0 0.1203857663
H  H188  1  0.34526000  0.06312000  0.65840000  1.0 0.0740156004
H  H189  1  0.40429000  0.03771000  0.66989000  1.0 0.1261411492
H  H190  1  0.85593000  0.56469000  0.06295000  1.0 0.1960666962
H  H191  1  0.91991000  0.56190000  0.13049000  1.0 0.1067577582
H  H192  1  0.92866000  0.55600000  0.10584000  1.0 0.082894617
H  H193  1  0.95412000  0.60594000  0.08432000  1.0 0.082894617
H  H194  1  0.89684000  0.68664000  0.05230000  1.0 0.1203857663
H  H195  1  0.93322000  0.65840000  0.06312000  1.0 0.0740156004
H  H196  1  0.88811000  0.66989000  0.03771000  1.0 0.1261411492
H  H197  1  0.85593000  0.51643000  0.56469000  1.0 0.1960666962
H  H198  1  0.91991000  0.38768000  0.56190000  1.0 0.1067577582
H  H199  1  0.92866000  0.40950000  0.55600000  1.0 0.082894617
H  H200  1  0.95412000  0.35562000  0.60594000  1.0 0.082894617
H  H201  1  0.89684000  0.36422000  0.68664000  1.0 0.1203857663
H  H202  1  0.93322000  0.34526000  0.65840000  1.0 0.0740156004
H  H203  1  0.88811000  0.40429000  0.66989000  1.0 0.1261411492
H  H204  1  0.51643000  0.85593000  0.06295000  1.0 0.1960666962
H  H205  1  0.38769000  0.91992000  0.13049000  1.0 0.1067577582
H  H206  1  0.40950000  0.92866000  0.10584000  1.0 0.082894617
H  H207  1  0.35562000  0.95412000  0.08432000  1.0 0.082894617
H  H208  1  0.36422000  0.89684000  0.05230000  1.0 0.1203857663
H  H209  1  0.34526000  0.93322000  0.06312000  1.0 0.0740156004
H  H210  1  0.40429000  0.88811000  0.03771000  1.0 0.1261411492
H  H211  1  0.06295000  0.56469000  0.51643000  1.0 0.1960666962
H  H212  1  0.13049000  0.56190000  0.38769000  1.0 0.1067577582
H  H213  1  0.10584000  0.55600000  0.40950000  1.0 0.082894617
H  H214  1  0.08432000  0.60594000  0.35562000  1.0 0.082894617
H  H215  1  0.05230000  0.68664000  0.36422000  1.0 0.1203857663
H  H216  1  0.06312000  0.65840000  0.34526000  1.0 0.0740156004
H  H217  1  0.03771000  0.66989000  0.40429000  1.0 0.1261411492
H  H218  1  0.56469000  0.06295000  0.85593000  1.0 0.1960666962
H  H219  1  0.56190000  0.13049000  0.91991000  1.0 0.1067577582
H  H220  1  0.55600000  0.10584000  0.92866000  1.0 0.082894617
H  H221  1  0.60594000  0.08432000  0.95412000  1.0 0.082894617
H  H222  1  0.68664000  0.05230000  0.89684000  1.0 0.1203857663
H  H223  1  0.65840000  0.06312000  0.93322000  1.0 0.0740156004
H  H224  1  0.66989000  0.03771000  0.88811000  1.0 0.1261411492
H  H225  1  0.51643000  0.56469000  0.85593000  1.0 0.1960666962
H  H226  1  0.38769000  0.56190000  0.91991000  1.0 0.1067577582
H  H227  1  0.40950000  0.55600000  0.92866000  1.0 0.082894617
H  H228  1  0.35562000  0.60594000  0.95412000  1.0 0.082894617
H  H229  1  0.36422000  0.68664000  0.89684000  1.0 0.1203857663
H  H230  1  0.34526000  0.65840000  0.93322000  1.0 0.0740156004
H  H231  1  0.40429000  0.66989000  0.88811000  1.0 0.1261411492
H  H232  1  0.85593000  0.06295000  0.51643000  1.0 0.1960666962
H  H233  1  0.91991000  0.13049000  0.38769000  1.0 0.1067577582
H  H234  1  0.92866000  0.10584000  0.40950000  1.0 0.082894617
H  H235  1  0.95412000  0.08432000  0.35562000  1.0 0.082894617
H  H236  1  0.89684000  0.05230000  0.36422000  1.0 0.1203857663
H  H237  1  0.93322000  0.06312000  0.34526000  1.0 0.0740156004
H  H238  1  0.88811000  0.03771000  0.40429000  1.0 0.1261411492
H  H239  1  0.56469000  0.51643000  0.06295000  1.0 0.1960666962
H  H240  1  0.56190000  0.38769000  0.13049000  1.0 0.1067577582
H  H241  1  0.55600000  0.40950000  0.10584000  1.0 0.082894617
H  H242  1  0.60594000  0.35562000  0.08432000  1.0 0.082894617
H  H243  1  0.68664000  0.36422000  0.05230000  1.0 0.1203857663
H  H244  1  0.65840000  0.34526000  0.06312000  1.0 0.0740156004
H  H245  1  0.66989000  0.40429000  0.03771000  1.0 0.1261411492
H  H246  1  0.06295000  0.85593000  0.56469000  1.0 0.1960666962
H  H247  1  0.13050000  0.91992000  0.56190000  1.0 0.1067577582
H  H248  1  0.10584000  0.92866000  0.55600000  1.0 0.082894617
H  H249  1  0.08432000  0.95412000  0.60594000  1.0 0.082894617
H  H250  1  0.05230000  0.89684000  0.68664000  1.0 0.1203857663
H  H251  1  0.06312000  0.93322000  0.65840000  1.0 0.0740156004
H  H252  1  0.03771000  0.88811000  0.66989000  1.0 0.1261411492
H  H253  1  0.18705000  0.39407000  0.73357000  1.0 0.1960666962
H  H254  1  0.11951000  0.33009000  0.86231000  1.0 0.1067577582
H  H255  1  0.14416000  0.32134000  0.84050000  1.0 0.082894617
H  H256  1  0.16568000  0.29588000  0.89438000  1.0 0.082894617
H  H257  1  0.19770000  0.35316000  0.88578000  1.0 0.1203857663
H  H258  1  0.18688000  0.31678000  0.90474000  1.0 0.0740156004
H  H259  1  0.21229000  0.36189000  0.84571000  1.0 0.1261411492
H  H260  1  0.68531000  0.73357000  0.39407000  1.0 0.1960666962
H  H261  1  0.68810000  0.86232000  0.33009000  1.0 0.1067577582
H  H262  1  0.69400000  0.84050000  0.32134000  1.0 0.082894617
H  H263  1  0.64406000  0.89438000  0.29588000  1.0 0.082894617
H  H264  1  0.56336000  0.88578000  0.35316000  1.0 0.1203857663
H  H265  1  0.59160000  0.90474000  0.31678000  1.0 0.0740156004
H  H266  1  0.58011000  0.84571000  0.36189000  1.0 0.1261411492
H  H267  1  0.39407000  0.18705000  0.68531000  1.0 0.1960666962
H  H268  1  0.33009000  0.11951000  0.68810000  1.0 0.1067577582
H  H269  1  0.32134000  0.14416000  0.69400000  1.0 0.082894617
H  H270  1  0.29588000  0.16568000  0.64406000  1.0 0.082894617
H  H271  1  0.35316000  0.19770000  0.56336000  1.0 0.1203857663
H  H272  1  0.31678000  0.18688000  0.59160000  1.0 0.0740156004
H  H273  1  0.36189000  0.21229000  0.58011000  1.0 0.1261411492
H  H274  1  0.73357000  0.68531000  0.18705000  1.0 0.1960666962
H  H275  1  0.86231000  0.68809000  0.11951000  1.0 0.1067577582
H  H276  1  0.84050000  0.69400000  0.14416000  1.0 0.082894617
H  H277  1  0.89438000  0.64406000  0.16568000  1.0 0.082894617
H  H278  1  0.88578000  0.56336000  0.19770000  1.0 0.1203857663
H  H279  1  0.90474000  0.59160000  0.18688000  1.0 0.0740156004
H  H280  1  0.84571000  0.58011000  0.21229000  1.0 0.1261411492
H  H281  1  0.18705000  0.73357000  0.68531000  1.0 0.1960666962
H  H282  1  0.11951000  0.86232000  0.68810000  1.0 0.1067577582
H  H283  1  0.14416000  0.84050000  0.69400000  1.0 0.082894617
H  H284  1  0.16568000  0.89438000  0.64406000  1.0 0.082894617
H  H285  1  0.19770000  0.88578000  0.56336000  1.0 0.1203857663
H  H286  1  0.18688000  0.90474000  0.59160000  1.0 0.0740156004
H  H287  1  0.21229000  0.84571000  0.58011000  1.0 0.1261411492
H  H288  1  0.68531000  0.39407000  0.18705000  1.0 0.1960666962
H  H289  1  0.68810000  0.33009000  0.11951000  1.0 0.1067577582
H  H290  1  0.69400000  0.32134000  0.14416000  1.0 0.082894617
H  H291  1  0.64406000  0.29588000  0.16568000  1.0 0.082894617
H  H292  1  0.56336000  0.35316000  0.19770000  1.0 0.1203857663
H  H293  1  0.59160000  0.31678000  0.18688000  1.0 0.0740156004
H  H294  1  0.58011000  0.36189000  0.21229000  1.0 0.1261411492
H  H295  1  0.39407000  0.68531000  0.73357000  1.0 0.1960666962
H  H296  1  0.33009000  0.68809000  0.86231000  1.0 0.1067577582
H  H297  1  0.32134000  0.69400000  0.84050000  1.0 0.082894617
H  H298  1  0.29588000  0.64406000  0.89438000  1.0 0.082894617
H  H299  1  0.35316000  0.56336000  0.88578000  1.0 0.1203857663
H  H300  1  0.31678000  0.59160000  0.90474000  1.0 0.0740156004
H  H301  1  0.36189000  0.58011000  0.84571000  1.0 0.1261411492
H  H302  1  0.73357000  0.18705000  0.39407000  1.0 0.1960666962
H  H303  1  0.86231000  0.11950000  0.33009000  1.0 0.1067577582
H  H304  1  0.84050000  0.14416000  0.32134000  1.0 0.082894617
H  H305  1  0.89438000  0.16568000  0.29588000  1.0 0.082894617
H  H306  1  0.88578000  0.19770000  0.35316000  1.0 0.1203857663
H  H307  1  0.90474000  0.18688000  0.31678000  1.0 0.0740156004
H  H308  1  0.84571000  0.21229000  0.36189000  1.0 0.1261411492
H  H309  1  0.18705000  0.68531000  0.39407000  1.0 0.1960666962
H  H310  1  0.11951000  0.68809000  0.33009000  1.0 0.1067577582
H  H311  1  0.14416000  0.69400000  0.32134000  1.0 0.082894617
H  H312  1  0.16568000  0.64406000  0.29588000  1.0 0.082894617
H  H313  1  0.19770000  0.56336000  0.35316000  1.0 0.1203857663
H  H314  1  0.18688000  0.59160000  0.31678000  1.0 0.0740156004
H  H315  1  0.21229000  0.58011000  0.36189000  1.0 0.1261411492
H  H316  1  0.68531000  0.18705000  0.73357000  1.0 0.1960666962
H  H317  1  0.68810000  0.11951000  0.86231000  1.0 0.1067577582
H  H318  1  0.69400000  0.14416000  0.84050000  1.0 0.082894617
H  H319  1  0.64406000  0.16568000  0.89438000  1.0 0.082894617
H  H320  1  0.56336000  0.19770000  0.88578000  1.0 0.1203857663
H  H321  1  0.59160000  0.18688000  0.90474000  1.0 0.0740156004
H  H322  1  0.58011000  0.21229000  0.84571000  1.0 0.1261411492
H  H323  1  0.39407000  0.73357000  0.18705000  1.0 0.1960666962
H  H324  1  0.33009000  0.86232000  0.11951000  1.0 0.1067577582
H  H325  1  0.32134000  0.84050000  0.14416000  1.0 0.082894617
H  H326  1  0.29588000  0.89438000  0.16568000  1.0 0.082894617
H  H327  1  0.35316000  0.88578000  0.19770000  1.0 0.1203857663
H  H328  1  0.31678000  0.90474000  0.18688000  1.0 0.0740156004
H  H329  1  0.36189000  0.84571000  0.21229000  1.0 0.1261411492
H  H330  1  0.73357000  0.39407000  0.68531000  1.0 0.1960666962
H  H331  1  0.86232000  0.33009000  0.68810000  1.0 0.1067577582
H  H332  1  0.84050000  0.32134000  0.69400000  1.0 0.082894617
H  H333  1  0.89438000  0.29588000  0.64406000  1.0 0.082894617
H  H334  1  0.88578000  0.35316000  0.56336000  1.0 0.1203857663
H  H335  1  0.90474000  0.31678000  0.59160000  1.0 0.0740156004
H  H336  1  0.84571000  0.36189000  0.58011000  1.0 0.1261411492
H  H337  1  0.56962000  0.56962000  0.56962000  1.0 0.3319922931
H  H338  1  0.29114000  0.56962000  0.56962000  1.0 0.3319922931
H  H339  1  0.56962000  0.29114000  0.56962000  1.0 0.3319922931
H  H340  1  0.56962000  0.56962000  0.29114000  1.0 0.3319922931
H  H341  1  0.95886000  0.68038000  0.68038000  1.0 0.3319922931
H  H342  1  0.68038000  0.68038000  0.68038000  1.0 0.3319922931
H  H343  1  0.68038000  0.95886000  0.68038000  1.0 0.3319922931
H  H344  1  0.68038000  0.68038000  0.95886000  1.0 0.3319922931
H  H345  1  0.71863000  0.48933000  0.71863000  1.0 0.3319922931
H  H346  1  0.07341000  0.71863000  0.48933000  1.0 0.3319922931
H  H347  1  0.71863000  0.07341000  0.71863000  1.0 0.3319922931
H  H348  1  0.48933000  0.71863000  0.07341000  1.0 0.3319922931
H  H349  1  0.48933000  0.71863000  0.71863000  1.0 0.3319922931
H  H350  1  0.71863000  0.48933000  0.07341000  1.0 0.3319922931
H  H351  1  0.07341000  0.71863000  0.71863000  1.0 0.3319922931
H  H352  1  0.71863000  0.07341000  0.48933000  1.0 0.3319922931
H  H353  1  0.71863000  0.71863000  0.48933000  1.0 0.3319922931
H  H354  1  0.48933000  0.07341000  0.71863000  1.0 0.3319922931
H  H355  1  0.71863000  0.71863000  0.07341000  1.0 0.3319922931
H  H356  1  0.07341000  0.48933000  0.71863000  1.0 0.3319922931
H  H357  1  0.17659000  0.76067000  0.53137000  1.0 0.3319922931
H  H358  1  0.53137000  0.53137000  0.76067000  1.0 0.3319922931
H  H359  1  0.76067000  0.17659000  0.53137000  1.0 0.3319922931
H  H360  1  0.53137000  0.53137000  0.17659000  1.0 0.3319922931
H  H361  1  0.17659000  0.53137000  0.53137000  1.0 0.3319922931
H  H362  1  0.53137000  0.76067000  0.17659000  1.0 0.3319922931
H  H363  1  0.76067000  0.53137000  0.53137000  1.0 0.3319922931
H  H364  1  0.53137000  0.17659000  0.76067000  1.0 0.3319922931
H  H365  1  0.17659000  0.53137000  0.76067000  1.0 0.3319922931
H  H366  1  0.53137000  0.17659000  0.53137000  1.0 0.3319922931
H  H367  1  0.76067000  0.53137000  0.17659000  1.0 0.3319922931
H  H368  1  0.53137000  0.76067000  0.53137000  1.0 0.3319922931
H  H369  1  0.68216000  0.54800000  0.38492000  1.0 0.1203857663
H  H370  1  0.38492000  0.38492000  0.54800000  1.0 0.1203857663
H  H371  1  0.38492000  0.38492000  0.68216000  1.0 0.1203857663
H  H372  1  0.54800000  0.68216000  0.38492000  1.0 0.1203857663
H  H373  1  0.54800000  0.38492000  0.68216000  1.0 0.1203857663
H  H374  1  0.38492000  0.54800000  0.38492000  1.0 0.1203857663
H  H375  1  0.38492000  0.68216000  0.38492000  1.0 0.1203857663
H  H376  1  0.68216000  0.38492000  0.54800000  1.0 0.1203857663
H  H377  1  0.38492000  0.68216000  0.54800000  1.0 0.1203857663
H  H378  1  0.54800000  0.38492000  0.38492000  1.0 0.1203857663
H  H379  1  0.68216000  0.38492000  0.38492000  1.0 0.1203857663
H  H380  1  0.38492000  0.54800000  0.68216000  1.0 0.1203857663
H  H381  1  0.86508000  0.70200000  0.86508000  1.0 0.1203857663
H  H382  1  0.56784000  0.86508000  0.70200000  1.0 0.1203857663
H  H383  1  0.70200000  0.86508000  0.56784000  1.0 0.1203857663
H  H384  1  0.86508000  0.56784000  0.86508000  1.0 0.1203857663
H  H385  1  0.86508000  0.86508000  0.56784000  1.0 0.1203857663
H  H386  1  0.56784000  0.70200000  0.86508000  1.0 0.1203857663
H  H387  1  0.70200000  0.56784000  0.86508000  1.0 0.1203857663
H  H388  1  0.86508000  0.86508000  0.70200000  1.0 0.1203857663
H  H389  1  0.86508000  0.56784000  0.70200000  1.0 0.1203857663
H  H390  1  0.56784000  0.86508000  0.86508000  1.0 0.1203857663
H  H391  1  0.70200000  0.86508000  0.86508000  1.0 0.1203857663
H  H392  1  0.86508000  0.70200000  0.56784000  1.0 0.1203857663
C  C1  1  0.68263000  0.47143000  0.47143000  1.0 -0.0247437625
C  C2  1  0.67825000  0.50731000  0.50731000  1.0 0.4084207053
C  C3  1  0.37451000  0.47143000  0.47143000  1.0 -0.0247437625
C  C4  1  0.30713000  0.50731000  0.50731000  1.0 0.4084207053
C  C5  1  0.47143000  0.37451000  0.68263000  1.0 -0.0247437625
C  C6  1  0.50731000  0.30713000  0.67825000  1.0 0.4084207053
C  C7  1  0.47143000  0.68263000  0.37451000  1.0 -0.0247437625
C  C8  1  0.50731000  0.67825000  0.30713000  1.0 0.4084207053
C  C9  1  0.47143000  0.47143000  0.68263000  1.0 -0.0247437625
C  C10  1  0.50731000  0.50731000  0.67825000  1.0 0.4084207053
C  C11  1  0.47143000  0.47143000  0.37451000  1.0 -0.0247437625
C  C12  1  0.50731000  0.50731000  0.30713000  1.0 0.4084207053
C  C13  1  0.37451000  0.68263000  0.47143000  1.0 -0.0247437625
C  C14  1  0.30713000  0.67825000  0.50731000  1.0 0.4084207053
C  C15  1  0.68263000  0.37451000  0.47143000  1.0 -0.0247437625
C  C16  1  0.67825000  0.30713000  0.50731000  1.0 0.4084207053
C  C17  1  0.47143000  0.68263000  0.47143000  1.0 -0.0247437625
C  C18  1  0.50731000  0.67825000  0.50731000  1.0 0.4084207053
C  C19  1  0.47143000  0.37451000  0.47143000  1.0 -0.0247437625
C  C20  1  0.50731000  0.30713000  0.50731000  1.0 0.4084207053
C  C21  1  0.68263000  0.47143000  0.37451000  1.0 -0.0247437625
C  C22  1  0.67825000  0.50731000  0.30713000  1.0 0.4084207053
C  C23  1  0.37451000  0.47143000  0.68263000  1.0 -0.0247437625
C  C24  1  0.30713000  0.50731000  0.67825000  1.0 0.4084207053
C  C25  1  0.87549000  0.77857000  0.77857000  1.0 -0.0247437625
C  C26  1  0.94287000  0.74269000  0.74269000  1.0 0.4039744142
C  C27  1  0.56737000  0.77857000  0.77857000  1.0 -0.0254473972
C  C28  1  0.57175000  0.74269000  0.74269000  1.0 0.4084207053
C  C29  1  0.77857000  0.87549000  0.56737000  1.0 -0.0247437625
C  C30  1  0.74269000  0.94287000  0.57175000  1.0 0.4084207053
C  C31  1  0.77857000  0.56737000  0.87549000  1.0 -0.0254473972
C  C32  1  0.74269000  0.57175000  0.94287000  1.0 0.4084207053
C  C33  1  0.87549000  0.77857000  0.56737000  1.0 -0.0247437625
C  C34  1  0.94287000  0.74269000  0.57175000  1.0 0.4039744142
C  C35  1  0.56737000  0.77857000  0.87549000  1.0 -0.0254473972
C  C36  1  0.57175000  0.74269000  0.94287000  1.0 0.4084207053
C  C37  1  0.77857000  0.56737000  0.77857000  1.0 -0.0247437625
C  C38  1  0.74269000  0.57175000  0.74269000  1.0 0.4084207053
C  C39  1  0.77857000  0.87549000  0.77857000  1.0 -0.0247437625
C  C40  1  0.74269000  0.94287000  0.74269000  1.0 0.4084207053
C  C41  1  0.87549000  0.56737000  0.77857000  1.0 -0.0247437625
C  C42  1  0.94287000  0.57175000  0.74269000  1.0 0.4084207053
C  C43  1  0.56737000  0.87549000  0.77857000  1.0 -0.0254473972
C  C44  1  0.57175000  0.94287000  0.74269000  1.0 0.4084207053
C  C45  1  0.77857000  0.77857000  0.87549000  1.0 -0.0247437625
C  C46  1  0.74269000  0.74269000  0.94287000  1.0 0.4084207053
C  C47  1  0.77857000  0.77857000  0.56737000  1.0 -0.0247437625
C  C48  1  0.74269000  0.74269000  0.57175000  1.0 0.4084207053
C  C49  1  0.68244000  0.50376000  0.40690000  1.0 -0.1226701616
C  C50  1  0.40690000  0.40690000  0.50376000  1.0 -0.1226701616
C  C51  1  0.40690000  0.40690000  0.68244000  1.0 -0.1226701616
C  C52  1  0.50376000  0.68244000  0.40690000  1.0 -0.1226701616
C  C53  1  0.50376000  0.40690000  0.68244000  1.0 -0.1226701616
C  C54  1  0.40690000  0.50376000  0.40690000  1.0 -0.1226701616
C  C55  1  0.40690000  0.68244000  0.40690000  1.0 -0.1226701616
C  C56  1  0.68244000  0.40690000  0.50376000  1.0 -0.1226701616
C  C57  1  0.40690000  0.68244000  0.50376000  1.0 -0.1226701616
C  C58  1  0.50376000  0.40690000  0.40690000  1.0 -0.1226701616
C  C59  1  0.68244000  0.40690000  0.40690000  1.0 -0.1226701616
C  C60  1  0.40690000  0.50376000  0.68244000  1.0 -0.1226701616
C  C61  1  0.84310000  0.74624000  0.84310000  1.0 -0.1226701616
C  C62  1  0.56756000  0.84310000  0.74624000  1.0 -0.1226701616
C  C63  1  0.74624000  0.84310000  0.56756000  1.0 -0.1226701616
C  C64  1  0.84310000  0.56756000  0.84310000  1.0 -0.1226701616
C  C65  1  0.84310000  0.84310000  0.56756000  1.0 -0.1226701616
C  C66  1  0.56756000  0.74624000  0.84310000  1.0 -0.1226701616
C  C67  1  0.74624000  0.56756000  0.84310000  1.0 -0.1226701616
C  C68  1  0.84310000  0.84310000  0.74624000  1.0 -0.1226701616
C  C69  1  0.84310000  0.56756000  0.74624000  1.0 -0.1226701616
C  C70  1  0.56756000  0.84310000  0.84310000  1.0 -0.1226701616
C  C71  1  0.74624000  0.84310000  0.84310000  1.0 -0.1226701616
C  C72  1  0.84310000  0.74624000  0.56756000  1.0 -0.1226701616
C  C73  1  0.62500000  0.38620000  0.86380000  1.0 0.2326185781
C  C74  1  0.62500000  0.44628000  0.80372000  1.0 0.0614990632
C  C75  1  0.12500000  0.86380000  0.38620000  1.0 0.2326185781
C  C76  1  0.12500000  0.80372000  0.44628000  1.0 0.0614990632
C  C77  1  0.86380000  0.12500000  0.62500000  1.0 0.2326185781
C  C78  1  0.80372000  0.12500000  0.62500000  1.0 0.0614990632
C  C79  1  0.38620000  0.62500000  0.12500000  1.0 0.2326185781
C  C80  1  0.44628000  0.62500000  0.12500000  1.0 0.0614990632
C  C81  1  0.38620000  0.86380000  0.62500000  1.0 0.2326185781
C  C82  1  0.44628000  0.80372000  0.62500000  1.0 0.0614990632
C  C83  1  0.86380000  0.38620000  0.12500000  1.0 0.2326185781
C  C84  1  0.80372000  0.44628000  0.12500000  1.0 0.0614990632
C  C85  1  0.12500000  0.62500000  0.86380000  1.0 0.2326185781
C  C86  1  0.12500000  0.62500000  0.80372000  1.0 0.0614990632
C  C87  1  0.62500000  0.12500000  0.38620000  1.0 0.2326185781
C  C88  1  0.62500000  0.12500000  0.44628000  1.0 0.0614990632
C  C89  1  0.86380000  0.62500000  0.38620000  1.0 0.2326185781
C  C90  1  0.80372000  0.62500000  0.44628000  1.0 0.0614990632
C  C91  1  0.38620000  0.12500000  0.86380000  1.0 0.2326185781
C  C92  1  0.44628000  0.12500000  0.80372000  1.0 0.0614990632
C  C93  1  0.62500000  0.86380000  0.12500000  1.0 0.2326185781
C  C94  1  0.62500000  0.80372000  0.12500000  1.0 0.0614990632
C  C95  1  0.12500000  0.38620000  0.62500000  1.0 0.2326185781
C  C96  1  0.12500000  0.44628000  0.62500000  1.0 0.0614990632
C  C97  1  0.62500000  0.86380000  0.38620000  1.0 0.2326185781
C  C98  1  0.62500000  0.80372000  0.44628000  1.0 0.0614990632
C  C99  1  0.12500000  0.38620000  0.86380000  1.0 0.2326185781
C  C100  1  0.12500000  0.44628000  0.80372000  1.0 0.0614990632
C  C101  1  0.38620000  0.12500000  0.62500000  1.0 0.2326185781
C  C102  1  0.44628000  0.12500000  0.62500000  1.0 0.0614990632
C  C103  1  0.86380000  0.62500000  0.12500000  1.0 0.2326185781
C  C104  1  0.80372000  0.62500000  0.12500000  1.0 0.0614990632
C  C105  1  0.86380000  0.38620000  0.62500000  1.0 0.2326185781
C  C106  1  0.80372000  0.44628000  0.62500000  1.0 0.0614990632
C  C107  1  0.38620000  0.86380000  0.12500000  1.0 0.2326185781
C  C108  1  0.44628000  0.80372000  0.12500000  1.0 0.0614990632
C  C109  1  0.12500000  0.62500000  0.38620000  1.0 0.2326185781
C  C110  1  0.12500000  0.62500000  0.44628000  1.0 0.0614990632
C  C111  1  0.62500000  0.12500000  0.86380000  1.0 0.2326185781
C  C112  1  0.62500000  0.12500000  0.80372000  1.0 0.0614990632
C  C113  1  0.38620000  0.62500000  0.86380000  1.0 0.2326185781
C  C114  1  0.44628000  0.62500000  0.80372000  1.0 0.0614990632
C  C115  1  0.86380000  0.12500000  0.38620000  1.0 0.2326185781
C  C116  1  0.80372000  0.12500000  0.44628000  1.0 0.0614990632
C  C117  1  0.62500000  0.38620000  0.12500000  1.0 0.2326185781
C  C118  1  0.62500000  0.44628000  0.12500000  1.0 0.0614990632
C  C119  1  0.12500000  0.86380000  0.62500000  1.0 0.2326185781
C  C120  1  0.12500000  0.80372000  0.62500000  1.0 0.0614990632
N  N1  1  0.60970000  0.33910000  0.86450000  1.0 -0.1736950676
N  N2  1  0.55840000  0.39220000  0.88360000  1.0 -0.3091016421
N  N3  1  0.65170000  0.32770000  0.85670000  1.0 -0.2243969736
N  N4  1  0.18670000  0.86450000  0.33910000  1.0 -0.1736950676
N  N5  1  0.16580000  0.88360000  0.39220000  1.0 -0.3091016421
N  N6  1  0.16390000  0.85670000  0.32770000  1.0 -0.2259099343
N  N7  1  0.86450000  0.18670000  0.60970000  1.0 -0.1736950676
N  N8  1  0.88360000  0.16580000  0.55840000  1.0 -0.3091016421
N  N9  1  0.85670000  0.16390000  0.65170000  1.0 -0.2243969736
N  N10  1  0.33910000  0.60970000  0.18670000  1.0 -0.1736950676
N  N11  1  0.39220000  0.55840000  0.16580000  1.0 -0.3091016421
N  N12  1  0.32770000  0.65170000  0.16390000  1.0 -0.2243969736
N  N13  1  0.33910000  0.86450000  0.60970000  1.0 -0.1736950676
N  N14  1  0.39220000  0.88360000  0.55840000  1.0 -0.3091016421
N  N15  1  0.32770000  0.85670000  0.65170000  1.0 -0.2259099343
N  N16  1  0.86450000  0.33910000  0.18670000  1.0 -0.1736950676
N  N17  1  0.88360000  0.39220000  0.16580000  1.0 -0.3091016421
N  N18  1  0.85670000  0.32770000  0.16390000  1.0 -0.2243969736
N  N19  1  0.18670000  0.60970000  0.86450000  1.0 -0.1736950676
N  N20  1  0.16580000  0.55840000  0.88360000  1.0 -0.3091016421
N  N21  1  0.16390000  0.65170000  0.85670000  1.0 -0.2259099343
N  N22  1  0.60970000  0.18670000  0.33910000  1.0 -0.1736950676
N  N23  1  0.55840000  0.16580000  0.39220000  1.0 -0.3091016421
N  N24  1  0.65170000  0.16390000  0.32770000  1.0 -0.2243969736
N  N25  1  0.86450000  0.60970000  0.33910000  1.0 -0.1736950676
N  N26  1  0.88360000  0.55840000  0.39220000  1.0 -0.3091016421
N  N27  1  0.85670000  0.65170000  0.32770000  1.0 -0.2243969736
N  N28  1  0.33910000  0.18670000  0.86450000  1.0 -0.1736950676
N  N29  1  0.39220000  0.16580000  0.88360000  1.0 -0.3091016421
N  N30  1  0.32770000  0.16390000  0.85670000  1.0 -0.2243969736
N  N31  1  0.60970000  0.86450000  0.18670000  1.0 -0.1736950676
N  N32  1  0.55840000  0.88360000  0.16580000  1.0 -0.3091016421
N  N33  1  0.65170000  0.85670000  0.16390000  1.0 -0.2259099343
N  N34  1  0.18670000  0.33910000  0.60970000  1.0 -0.1736950676
N  N35  1  0.16580000  0.39220000  0.55840000  1.0 -0.3091016421
N  N36  1  0.16390000  0.32770000  0.65170000  1.0 -0.2259099343
N  N37  1  0.06330000  0.91090000  0.38550000  1.0 -0.1736950676
N  N38  1  0.08420000  0.85780000  0.36640000  1.0 -0.3091016421
N  N39  1  0.08610000  0.92230000  0.39330000  1.0 -0.2259099343
N  N40  1  0.64030000  0.38550000  0.91090000  1.0 -0.1736950676
N  N41  1  0.69160000  0.36640000  0.85780000  1.0 -0.3091016421
N  N42  1  0.59830000  0.39330000  0.92230000  1.0 -0.2259099343
N  N43  1  0.91090000  0.06330000  0.64030000  1.0 -0.1736950676
N  N44  1  0.85780000  0.08420000  0.69160000  1.0 -0.3091016421
N  N45  1  0.92230000  0.08610000  0.59830000  1.0 -0.2243969736
N  N46  1  0.38550000  0.64030000  0.06330000  1.0 -0.1736950676
N  N47  1  0.36640000  0.69160000  0.08420000  1.0 -0.3091016421
N  N48  1  0.39330000  0.59830000  0.08610000  1.0 -0.2243969736
N  N49  1  0.06330000  0.38550000  0.64030000  1.0 -0.1736950676
N  N50  1  0.08420000  0.36640000  0.69160000  1.0 -0.3091016421
N  N51  1  0.08610000  0.39330000  0.59830000  1.0 -0.2259099343
N  N52  1  0.64030000  0.91090000  0.06330000  1.0 -0.1736950676
N  N53  1  0.69160000  0.85780000  0.08420000  1.0 -0.3091016421
N  N54  1  0.59830000  0.92230000  0.08610000  1.0 -0.2259099343
N  N55  1  0.91090000  0.64030000  0.38550000  1.0 -0.1736950676
N  N56  1  0.85780000  0.69160000  0.36640000  1.0 -0.3091016421
N  N57  1  0.92230000  0.59830000  0.39330000  1.0 -0.2259099343
N  N58  1  0.38550000  0.06330000  0.91090000  1.0 -0.1736950676
N  N59  1  0.36640000  0.08420000  0.85780000  1.0 -0.3091016421
N  N60  1  0.39330000  0.08610000  0.92230000  1.0 -0.2243969736
N  N61  1  0.06330000  0.64030000  0.91090000  1.0 -0.1736950676
N  N62  1  0.08420000  0.69160000  0.85780000  1.0 -0.3091016421
N  N63  1  0.08610000  0.59830000  0.92230000  1.0 -0.2243969736
N  N64  1  0.64030000  0.06330000  0.38550000  1.0 -0.1736950676
N  N65  1  0.69160000  0.08420000  0.36640000  1.0 -0.3091016421
N  N66  1  0.59830000  0.08610000  0.39330000  1.0 -0.2259099343
N  N67  1  0.91090000  0.38550000  0.06330000  1.0 -0.1736950676
N  N68  1  0.85780000  0.36640000  0.08420000  1.0 -0.3091016421
N  N69  1  0.92230000  0.39330000  0.08610000  1.0 -0.2243969736
N  N70  1  0.38550000  0.91090000  0.64030000  1.0 -0.1736950676
N  N71  1  0.36640000  0.85780000  0.69160000  1.0 -0.3091016421
N  N72  1  0.39330000  0.92230000  0.59830000  1.0 -0.2243969736
N  N73  1  0.64030000  0.91090000  0.38550000  1.0 -0.1736950676
N  N74  1  0.69160000  0.85780000  0.36640000  1.0 -0.3091016421
N  N75  1  0.59830000  0.92230000  0.39330000  1.0 -0.2259099343
N  N76  1  0.06330000  0.38550000  0.91090000  1.0 -0.1736950676
N  N77  1  0.08420000  0.36640000  0.85780000  1.0 -0.3091016421
N  N78  1  0.08610000  0.39330000  0.92230000  1.0 -0.2243969736
N  N79  1  0.38550000  0.06330000  0.64030000  1.0 -0.1736950676
N  N80  1  0.36640000  0.08420000  0.69160000  1.0 -0.3091016421
N  N81  1  0.39330000  0.08610000  0.59830000  1.0 -0.2259099343
N  N82  1  0.91090000  0.64030000  0.06330000  1.0 -0.1736950676
N  N83  1  0.85780000  0.69160000  0.08420000  1.0 -0.3091016421
N  N84  1  0.92230000  0.59830000  0.08610000  1.0 -0.2259099343
N  N85  1  0.91090000  0.38550000  0.64030000  1.0 -0.1736950676
N  N86  1  0.85780000  0.36640000  0.69160000  1.0 -0.3091016421
N  N87  1  0.92230000  0.39330000  0.59830000  1.0 -0.2259099343
N  N88  1  0.38550000  0.91090000  0.06330000  1.0 -0.1736950676
N  N89  1  0.36640000  0.85780000  0.08420000  1.0 -0.3091016421
N  N90  1  0.39330000  0.92230000  0.08610000  1.0 -0.2259099343
N  N91  1  0.06330000  0.64030000  0.38550000  1.0 -0.1736950676
N  N92  1  0.08420000  0.69160000  0.36640000  1.0 -0.3091016421
N  N93  1  0.08610000  0.59830000  0.39330000  1.0 -0.2259099343
N  N94  1  0.64030000  0.06330000  0.91090000  1.0 -0.1736950676
N  N95  1  0.69160000  0.08420000  0.85780000  1.0 -0.3091016421
N  N96  1  0.59830000  0.08610000  0.92230000  1.0 -0.2243969736
N  N97  1  0.38550000  0.64030000  0.91090000  1.0 -0.1736950676
N  N98  1  0.36640000  0.69160000  0.85780000  1.0 -0.3091016421
N  N99  1  0.39330000  0.59830000  0.92230000  1.0 -0.2259099343
N  N100  1  0.91090000  0.06330000  0.38550000  1.0 -0.1736950676
N  N101  1  0.85780000  0.08420000  0.36640000  1.0 -0.3091016421
N  N102  1  0.92230000  0.08610000  0.39330000  1.0 -0.2259099343
N  N103  1  0.64030000  0.38550000  0.06330000  1.0 -0.1736950676
N  N104  1  0.69160000  0.36640000  0.08420000  1.0 -0.3091016421
N  N105  1  0.59830000  0.39330000  0.08610000  1.0 -0.2243969736
N  N106  1  0.06330000  0.91090000  0.64030000  1.0 -0.1736950676
N  N107  1  0.08420000  0.85780000  0.69160000  1.0 -0.3091016421
N  N108  1  0.08610000  0.92230000  0.59830000  1.0 -0.2243969736
N  N109  1  0.18670000  0.33910000  0.86450000  1.0 -0.1736950676
N  N110  1  0.16580000  0.39220000  0.88360000  1.0 -0.3091016421
N  N111  1  0.16390000  0.32770000  0.85670000  1.0 -0.2243969736
N  N112  1  0.60970000  0.86450000  0.33910000  1.0 -0.1736950676
N  N113  1  0.55840000  0.88360000  0.39220000  1.0 -0.3091016421
N  N114  1  0.65170000  0.85670000  0.32770000  1.0 -0.2259099343
N  N115  1  0.33910000  0.18670000  0.60970000  1.0 -0.1736950676
N  N116  1  0.39220000  0.16580000  0.55840000  1.0 -0.3091016421
N  N117  1  0.32770000  0.16390000  0.65170000  1.0 -0.2259099343
N  N118  1  0.86450000  0.60970000  0.18670000  1.0 -0.1736950676
N  N119  1  0.88360000  0.55840000  0.16580000  1.0 -0.3091016421
N  N120  1  0.85670000  0.65170000  0.16390000  1.0 -0.2259099343
N  N121  1  0.18670000  0.86450000  0.60970000  1.0 -0.1736950676
N  N122  1  0.16580000  0.88360000  0.55840000  1.0 -0.3091016421
N  N123  1  0.16390000  0.85670000  0.65170000  1.0 -0.2259099343
N  N124  1  0.60970000  0.33910000  0.18670000  1.0 -0.1736950676
N  N125  1  0.55840000  0.39220000  0.16580000  1.0 -0.3091016421
N  N126  1  0.65170000  0.32770000  0.16390000  1.0 -0.2243969736
N  N127  1  0.33910000  0.60970000  0.86450000  1.0 -0.1736950676
N  N128  1  0.39220000  0.55840000  0.88360000  1.0 -0.3091016421
N  N129  1  0.32770000  0.65170000  0.85670000  1.0 -0.2243969736
N  N130  1  0.86450000  0.18670000  0.33910000  1.0 -0.1736950676
N  N131  1  0.88360000  0.16580000  0.39220000  1.0 -0.3091016421
N  N132  1  0.85670000  0.16390000  0.32770000  1.0 -0.2243969736
N  N133  1  0.18670000  0.60970000  0.33910000  1.0 -0.1736950676
N  N134  1  0.16580000  0.55840000  0.39220000  1.0 -0.3091016421
N  N135  1  0.16390000  0.65170000  0.32770000  1.0 -0.2243969736
N  N136  1  0.60970000  0.18670000  0.86450000  1.0 -0.1736950676
N  N137  1  0.55840000  0.16580000  0.88360000  1.0 -0.3091016421
N  N138  1  0.65170000  0.16390000  0.85670000  1.0 -0.2259099343
N  N139  1  0.33910000  0.86450000  0.18670000  1.0 -0.1736950676
N  N140  1  0.39220000  0.88360000  0.16580000  1.0 -0.3091016421
N  N141  1  0.32770000  0.85670000  0.16390000  1.0 -0.2259099343
N  N142  1  0.86450000  0.33910000  0.60970000  1.0 -0.1736950676
N  N143  1  0.88360000  0.39220000  0.55840000  1.0 -0.3091016421
N  N144  1  0.85670000  0.32770000  0.65170000  1.0 -0.2259099343
O  O1  1  0.67565000  0.47629000  0.56663000  1.0 -0.6284812227
O  O2  1  0.63620000  0.43840000  0.75380000  1.0 -0.1870404808
O  O3  1  0.64730000  0.42210000  0.73810000  1.0 -0.2391085001
O  O4  1  0.28143000  0.56663000  0.47629000  1.0 -0.6284812227
O  O5  1  0.17160000  0.75380000  0.43840000  1.0 -0.1870404808
O  O6  1  0.19250000  0.73810000  0.42210000  1.0 -0.2391085001
O  O7  1  0.56663000  0.28143000  0.67565000  1.0 -0.6284812227
O  O8  1  0.75380000  0.17160000  0.63620000  1.0 -0.1870404808
O  O9  1  0.73810000  0.19250000  0.64730000  1.0 -0.2391085001
O  O10  1  0.47629000  0.67565000  0.28143000  1.0 -0.6284812227
O  O11  1  0.43840000  0.63620000  0.17160000  1.0 -0.1870404808
O  O12  1  0.42210000  0.64730000  0.19250000  1.0 -0.2391085001
O  O13  1  0.47629000  0.56663000  0.67565000  1.0 -0.6284812227
O  O14  1  0.43840000  0.75380000  0.63620000  1.0 -0.1870404808
O  O15  1  0.42210000  0.73810000  0.64730000  1.0 -0.2391085001
O  O16  1  0.56663000  0.47629000  0.28143000  1.0 -0.6284812227
O  O17  1  0.75380000  0.43840000  0.17160000  1.0 -0.1870404808
O  O18  1  0.73810000  0.42210000  0.19250000  1.0 -0.2391085001
O  O19  1  0.28143000  0.67565000  0.56663000  1.0 -0.6284812227
O  O20  1  0.17160000  0.63620000  0.75380000  1.0 -0.1870404808
O  O21  1  0.19250000  0.64730000  0.73810000  1.0 -0.2391085001
O  O22  1  0.67565000  0.28143000  0.47629000  1.0 -0.6284812227
O  O23  1  0.63620000  0.17160000  0.43840000  1.0 -0.1870404808
O  O24  1  0.64730000  0.19250000  0.42210000  1.0 -0.2391085001
O  O25  1  0.56663000  0.67565000  0.47629000  1.0 -0.6284812227
O  O26  1  0.75380000  0.63620000  0.43840000  1.0 -0.1870404808
O  O27  1  0.73810000  0.64730000  0.42210000  1.0 -0.2391085001
O  O28  1  0.47629000  0.28143000  0.56663000  1.0 -0.6284812227
O  O29  1  0.43840000  0.17160000  0.75380000  1.0 -0.1870404808
O  O30  1  0.42210000  0.19250000  0.73810000  1.0 -0.2391085001
O  O31  1  0.67565000  0.56663000  0.28143000  1.0 -0.6284812227
O  O32  1  0.63620000  0.75380000  0.17160000  1.0 -0.1870404808
O  O33  1  0.64730000  0.73810000  0.19250000  1.0 -0.2391085001
O  O34  1  0.28143000  0.47629000  0.67565000  1.0 -0.6284812227
O  O35  1  0.17160000  0.43840000  0.63620000  1.0 -0.1870404808
O  O36  1  0.19250000  0.42210000  0.64730000  1.0 -0.2391085001
O  O37  1  0.96857000  0.77371000  0.68337000  1.0 -0.6284812227
O  O38  1  0.07840000  0.81160000  0.49620000  1.0 -0.1870404808
O  O39  1  0.05750000  0.82790000  0.51190000  1.0 -0.2391085001
O  O40  1  0.57435000  0.68337000  0.77371000  1.0 -0.6284812227
O  O41  1  0.61380000  0.49620000  0.81160000  1.0 -0.1870404808
O  O42  1  0.60270000  0.51190000  0.82790000  1.0 -0.2391085001
O  O43  1  0.77371000  0.96857000  0.57435000  1.0 -0.6284812227
O  O44  1  0.81160000  0.07840000  0.61380000  1.0 -0.1870404808
O  O45  1  0.82790000  0.05750000  0.60270000  1.0 -0.2391085001
O  O46  1  0.68337000  0.57435000  0.96857000  1.0 -0.6284812227
O  O47  1  0.49620000  0.61380000  0.07840000  1.0 -0.1870404808
O  O48  1  0.51190000  0.60270000  0.05750000  1.0 -0.2391085001
O  O49  1  0.96857000  0.68337000  0.57435000  1.0 -0.6284812227
O  O50  1  0.07840000  0.49620000  0.61380000  1.0 -0.1870404808
O  O51  1  0.05750000  0.51190000  0.60270000  1.0 -0.2391085001
O  O52  1  0.57435000  0.77371000  0.96857000  1.0 -0.6284812227
O  O53  1  0.61380000  0.81160000  0.07840000  1.0 -0.1870404808
O  O54  1  0.60270000  0.82790000  0.05750000  1.0 -0.2391085001
O  O55  1  0.77371000  0.57435000  0.68337000  1.0 -0.6284812227
O  O56  1  0.81160000  0.61380000  0.49620000  1.0 -0.1870404808
O  O57  1  0.82790000  0.60270000  0.51190000  1.0 -0.2391085001
O  O58  1  0.68337000  0.96857000  0.77371000  1.0 -0.6284812227
O  O59  1  0.49620000  0.07840000  0.81160000  1.0 -0.1870404808
O  O60  1  0.51190000  0.05750000  0.82790000  1.0 -0.2391085001
O  O61  1  0.96857000  0.57435000  0.77371000  1.0 -0.6284812227
O  O62  1  0.07840000  0.61380000  0.81160000  1.0 -0.1870404808
O  O63  1  0.05750000  0.60270000  0.82790000  1.0 -0.2391085001
O  O64  1  0.57435000  0.96857000  0.68337000  1.0 -0.6284812227
O  O65  1  0.61380000  0.07840000  0.49620000  1.0 -0.1870404808
O  O66  1  0.60270000  0.05750000  0.51190000  1.0 -0.2391085001
O  O67  1  0.77371000  0.68337000  0.96857000  1.0 -0.6284812227
O  O68  1  0.81160000  0.49620000  0.07840000  1.0 -0.1870404808
O  O69  1  0.82790000  0.51190000  0.05750000  1.0 -0.2391085001
O  O70  1  0.68337000  0.77371000  0.57435000  1.0 -0.6284812227
O  O71  1  0.49620000  0.81160000  0.61380000  1.0 -0.1870404808
O  O72  1  0.51190000  0.82790000  0.60270000  1.0 -0.2391085001
O  O73  1  0.57435000  0.77371000  0.68337000  1.0 -0.6284812227
O  O74  1  0.61380000  0.81160000  0.49620000  1.0 -0.1870404808
O  O75  1  0.60270000  0.82790000  0.51190000  1.0 -0.2391085001
O  O76  1  0.96857000  0.68337000  0.77371000  1.0 -0.6284812227
O  O77  1  0.07840000  0.49620000  0.81160000  1.0 -0.1870404808
O  O78  1  0.05750000  0.51190000  0.82790000  1.0 -0.2391085001
O  O79  1  0.68337000  0.96857000  0.57435000  1.0 -0.6284812227
O  O80  1  0.49620000  0.07840000  0.61380000  1.0 -0.1870404808
O  O81  1  0.51190000  0.05750000  0.60270000  1.0 -0.2391085001
O  O82  1  0.77371000  0.57435000  0.96857000  1.0 -0.6284812227
O  O83  1  0.81160000  0.61380000  0.07840000  1.0 -0.1870404808
O  O84  1  0.82790000  0.60270000  0.05750000  1.0 -0.2391085001
O  O85  1  0.77371000  0.68337000  0.57435000  1.0 -0.6284812227
O  O86  1  0.81160000  0.49620000  0.61380000  1.0 -0.1870404808
O  O87  1  0.82790000  0.51190000  0.60270000  1.0 -0.2391085001
O  O88  1  0.68337000  0.77371000  0.96857000  1.0 -0.6284812227
O  O89  1  0.49620000  0.81160000  0.07840000  1.0 -0.1870404808
O  O90  1  0.51190000  0.82790000  0.05750000  1.0 -0.2391085001
O  O91  1  0.96857000  0.57435000  0.68337000  1.0 -0.6284812227
O  O92  1  0.07840000  0.61380000  0.49620000  1.0 -0.1870404808
O  O93  1  0.05750000  0.60270000  0.51190000  1.0 -0.2391085001
O  O94  1  0.57435000  0.96857000  0.77371000  1.0 -0.6284812227
O  O95  1  0.61380000  0.07840000  0.81160000  1.0 -0.1870404808
O  O96  1  0.60270000  0.05750000  0.82790000  1.0 -0.2391085001
O  O97  1  0.68337000  0.57435000  0.77371000  1.0 -0.6284812227
O  O98  1  0.49620000  0.61380000  0.81160000  1.0 -0.1870404808
O  O99  1  0.51190000  0.60270000  0.82790000  1.0 -0.2391085001
O  O100  1  0.77371000  0.96857000  0.68337000  1.0 -0.6284812227
O  O101  1  0.81160000  0.07840000  0.49620000  1.0 -0.1870404808
O  O102  1  0.82790000  0.05750000  0.51190000  1.0 -0.2391085001
O  O103  1  0.57435000  0.68337000  0.96857000  1.0 -0.6284812227
O  O104  1  0.61380000  0.49620000  0.07840000  1.0 -0.1870404808
O  O105  1  0.60270000  0.51190000  0.05750000  1.0 -0.2391085001
O  O106  1  0.96857000  0.77371000  0.57435000  1.0 -0.6284812227
O  O107  1  0.07840000  0.81160000  0.61380000  1.0 -0.1870404808
O  O108  1  0.05750000  0.82790000  0.60270000  1.0 -0.2391085001
O  O109  1  0.28143000  0.47629000  0.56663000  1.0 -0.6284812227
O  O110  1  0.17160000  0.43840000  0.75380000  1.0 -0.1870404808
O  O111  1  0.19250000  0.42210000  0.73810000  1.0 -0.2391085001
O  O112  1  0.67565000  0.56663000  0.47629000  1.0 -0.6284812227
O  O113  1  0.63620000  0.75380000  0.43840000  1.0 -0.1870404808
O  O114  1  0.64730000  0.73810000  0.42210000  1.0 -0.2391085001
O  O115  1  0.47629000  0.28143000  0.67565000  1.0 -0.6284812227
O  O116  1  0.43840000  0.17160000  0.63620000  1.0 -0.1870404808
O  O117  1  0.42210000  0.19250000  0.64730000  1.0 -0.2391085001
O  O118  1  0.56663000  0.67565000  0.28143000  1.0 -0.6284812227
O  O119  1  0.75380000  0.63620000  0.17160000  1.0 -0.1870404808
O  O120  1  0.73810000  0.64730000  0.19250000  1.0 -0.2391085001
O  O121  1  0.28143000  0.56663000  0.67565000  1.0 -0.6284812227
O  O122  1  0.17160000  0.75380000  0.63620000  1.0 -0.1870404808
O  O123  1  0.19250000  0.73810000  0.64730000  1.0 -0.2391085001
O  O124  1  0.67565000  0.47629000  0.28143000  1.0 -0.6284812227
O  O125  1  0.63620000  0.43840000  0.17160000  1.0 -0.1870404808
O  O126  1  0.64730000  0.42210000  0.19250000  1.0 -0.2391085001
O  O127  1  0.47629000  0.67565000  0.56663000  1.0 -0.6284812227
O  O128  1  0.43840000  0.63620000  0.75380000  1.0 -0.1870404808
O  O129  1  0.42210000  0.64730000  0.73810000  1.0 -0.2391085001
O  O130  1  0.56663000  0.28143000  0.47629000  1.0 -0.6284812227
O  O131  1  0.75380000  0.17160000  0.43840000  1.0 -0.1870404808
O  O132  1  0.73810000  0.19250000  0.42210000  1.0 -0.2391085001
O  O133  1  0.28143000  0.67565000  0.47629000  1.0 -0.6284812227
O  O134  1  0.17160000  0.63620000  0.43840000  1.0 -0.1870404808
O  O135  1  0.19250000  0.64730000  0.42210000  1.0 -0.2391085001
O  O136  1  0.67565000  0.28143000  0.56663000  1.0 -0.6284812227
O  O137  1  0.63620000  0.17160000  0.75380000  1.0 -0.1870404808
O  O138  1  0.64730000  0.19250000  0.73810000  1.0 -0.2391085001
O  O139  1  0.47629000  0.56663000  0.28143000  1.0 -0.6284812227
O  O140  1  0.43840000  0.75380000  0.17160000  1.0 -0.1870404808
O  O141  1  0.42210000  0.73810000  0.19250000  1.0 -0.2391085001
O  O142  1  0.56663000  0.47629000  0.67565000  1.0 -0.6284812227
O  O143  1  0.75380000  0.43840000  0.63620000  1.0 -0.1870404808
O  O144  1  0.73810000  0.42210000  0.64730000  1.0 -0.2391085001
O  O145  1  0.58610000  0.58610000  0.58610000  1.0 -0.3794570116
O  O146  1  0.59630000  0.59630000  0.59630000  1.0 -0.3715948571
O  O147  1  0.24170000  0.58610000  0.58610000  1.0 -0.3794570116
O  O148  1  0.21110000  0.59630000  0.59630000  1.0 -0.3715948571
O  O149  1  0.58610000  0.24170000  0.58610000  1.0 -0.3794570116
O  O150  1  0.59630000  0.21110000  0.59630000  1.0 -0.3715948571
O  O151  1  0.58610000  0.58610000  0.24170000  1.0 -0.3794570116
O  O152  1  0.59630000  0.59630000  0.21110000  1.0 -0.3715948571
O  O153  1  0.00830000  0.66390000  0.66390000  1.0 -0.3794570116
O  O154  1  0.03890000  0.65370000  0.65370000  1.0 -0.3715948571
O  O155  1  0.66390000  0.66390000  0.66390000  1.0 -0.3794570116
O  O156  1  0.65370000  0.65370000  0.65370000  1.0 -0.3715948571
O  O157  1  0.66390000  0.00830000  0.66390000  1.0 -0.3794570116
O  O158  1  0.65370000  0.03890000  0.65370000  1.0 -0.3715948571
O  O159  1  0.66390000  0.66390000  0.00830000  1.0 -0.3794570116
O  O160  1  0.65370000  0.65370000  0.03890000  1.0 -0.3715948571
O  O161  1  0.69140000  0.52830000  0.69140000  1.0 -0.4287287826
O  O162  1  0.67690000  0.55156000  0.67690000  1.0 -0.4703286449
O  O163  1  0.08890000  0.69140000  0.52830000  1.0 -0.4287287826
O  O164  1  0.09464000  0.67690000  0.55156000  1.0 -0.4703286449
O  O165  1  0.69140000  0.08890000  0.69140000  1.0 -0.4287287826
O  O166  1  0.67690000  0.09464000  0.67690000  1.0 -0.4703286449
O  O167  1  0.52830000  0.69140000  0.08890000  1.0 -0.4287287826
O  O168  1  0.55156000  0.67690000  0.09464000  1.0 -0.4703286449
O  O169  1  0.52830000  0.69140000  0.69140000  1.0 -0.4287287826
O  O170  1  0.55156000  0.67690000  0.67690000  1.0 -0.4703286449
O  O171  1  0.69140000  0.52830000  0.08890000  1.0 -0.4287287826
O  O172  1  0.67690000  0.55156000  0.09464000  1.0 -0.4703286449
O  O173  1  0.08890000  0.69140000  0.69140000  1.0 -0.4287287826
O  O174  1  0.09464000  0.67690000  0.67690000  1.0 -0.4703286449
O  O175  1  0.69140000  0.08890000  0.52830000  1.0 -0.4287287826
O  O176  1  0.67690000  0.09464000  0.55156000  1.0 -0.4703286449
O  O177  1  0.69140000  0.69140000  0.52830000  1.0 -0.4287287826
O  O178  1  0.67690000  0.67690000  0.55156000  1.0 -0.4703286449
O  O179  1  0.52830000  0.08890000  0.69140000  1.0 -0.4287287826
O  O180  1  0.55156000  0.09464000  0.67690000  1.0 -0.4703286449
O  O181  1  0.69140000  0.69140000  0.08890000  1.0 -0.4287287826
O  O182  1  0.67690000  0.67690000  0.09464000  1.0 -0.4703286449
O  O183  1  0.08890000  0.52830000  0.69140000  1.0 -0.4287287826
O  O184  1  0.09464000  0.55156000  0.67690000  1.0 -0.4703286449
O  O185  1  0.16110000  0.72170000  0.55860000  1.0 -0.4287287826
O  O186  1  0.15536000  0.69844000  0.57310000  1.0 -0.4703286449
O  O187  1  0.55860000  0.55860000  0.72170000  1.0 -0.4287287826
O  O188  1  0.57310000  0.57310000  0.69844000  1.0 -0.4703286449
O  O189  1  0.72170000  0.16110000  0.55860000  1.0 -0.4287287826
O  O190  1  0.69844000  0.15536000  0.57310000  1.0 -0.4703286449
O  O191  1  0.55860000  0.55860000  0.16110000  1.0 -0.4287287826
O  O192  1  0.57310000  0.57310000  0.15536000  1.0 -0.4703286449
O  O193  1  0.16110000  0.55860000  0.55860000  1.0 -0.4287287826
O  O194  1  0.15536000  0.57310000  0.57310000  1.0 -0.4703286449
O  O195  1  0.55860000  0.72170000  0.16110000  1.0 -0.4287287826
O  O196  1  0.57310000  0.69844000  0.15536000  1.0 -0.4703286449
O  O197  1  0.72170000  0.55860000  0.55860000  1.0 -0.4287287826
O  O198  1  0.69844000  0.57310000  0.57310000  1.0 -0.4703286449
O  O199  1  0.55860000  0.16110000  0.72170000  1.0 -0.4287287826
O  O200  1  0.57310000  0.15536000  0.69844000  1.0 -0.4703286449
O  O201  1  0.16110000  0.55860000  0.72170000  1.0 -0.4287287826
O  O202  1  0.15536000  0.57310000  0.69844000  1.0 -0.4703286449
O  O203  1  0.55860000  0.16110000  0.55860000  1.0 -0.4287287826
O  O204  1  0.57310000  0.15536000  0.57310000  1.0 -0.4703286449
O  O205  1  0.72170000  0.55860000  0.16110000  1.0 -0.4287287826
O  O206  1  0.69844000  0.57310000  0.15536000  1.0 -0.4703286449
O  O207  1  0.55860000  0.72170000  0.55860000  1.0 -0.4287287826
O  O208  1  0.57310000  0.69844000  0.57310000  1.0 -0.4703286449
