# DDEC6 charges by PACMAN v1.1 (https://github.com/mtap-research/PACMAN-charge/)
data_QECHUE_FSR_pacman
_symmetry_space_group_name_H-M   'P 1'
_cell_length_a   23.58400000
_cell_length_b   20.03200000
_cell_length_c   29.67430000
_cell_angle_alpha   90.00000000
_cell_angle_beta   118.88700000
_cell_angle_gamma   90.00000000
_symmetry_Int_Tables_number   1
_chemical_formula_structural   Zn4Mo12PH18(C23O27)2
_chemical_formula_sum   'Zn16 Mo48 P4 H72 C184 O216'
_cell_volume   12274.82179381
_cell_formula_units_Z   4
loop_
 _symmetry_equiv_pos_site_id
 _symmetry_equiv_pos_as_xyz
  1  'x, y, z'
loop_
 _atom_site_type_symbol
 _atom_site_label
 _atom_site_symmetry_multiplicity
 _atom_site_fract_x
 _atom_site_fract_y
 _atom_site_fract_z
 _atom_site_occupancy
 _atom_site_charge
Zn  Zn1  1  0.23609000  0.78661000  0.66819000  1.0 1.0903590848
Zn  Zn2  1  0.23868000  0.66418000  0.47888000  1.0 1.0903590848
Zn  Zn3  1  0.47829000  0.78696000  0.66054000  1.0 1.0779850115
Zn  Zn4  1  0.25134000  0.95021000  0.50016000  1.0 1.0779850115
Zn  Zn5  1  0.76391000  0.28661000  0.83181000  1.0 1.0903590848
Zn  Zn6  1  0.76132000  0.16418000  0.02112000  1.0 1.0903590848
Zn  Zn7  1  0.52171000  0.28696000  0.83946000  1.0 1.0779850115
Zn  Zn8  1  0.74866000  0.45021000  0.99984000  1.0 1.0779850115
Zn  Zn9  1  0.76391000  0.21339000  0.33181000  1.0 1.0903590848
Zn  Zn10  1  0.76132000  0.33582000  0.52112000  1.0 1.0903590848
Zn  Zn11  1  0.52171000  0.21304000  0.33946000  1.0 1.0779850115
Zn  Zn12  1  0.74866000  0.04979000  0.49984000  1.0 1.0779850115
Zn  Zn13  1  0.23609000  0.71339000  0.16819000  1.0 1.0903590848
Zn  Zn14  1  0.23868000  0.83582000  0.97888000  1.0 1.0903590848
Zn  Zn15  1  0.47829000  0.71304000  0.16054000  1.0 1.0779850115
Zn  Zn16  1  0.25134000  0.54979000  0.00016000  1.0 1.0779850115
Mo  Mo1  1  0.28239000  0.81271000  0.44330000  1.0 2.1412937423
Mo  Mo2  1  0.38208000  0.70318000  0.70171000  1.0 2.0335116168
Mo  Mo3  1  0.14984000  0.81270000  0.44753000  1.0 2.1287005325
Mo  Mo4  1  0.25541000  0.94711000  0.62521000  1.0 1.9546973785
Mo  Mo5  1  0.38832000  0.86093000  0.71297000  1.0 2.0116929789
Mo  Mo6  1  0.41062000  0.89044000  0.54392000  1.0 2.0021270295
Mo  Mo7  1  0.40503000  0.94742000  0.62058000  1.0 1.9756679317
Mo  Mo8  1  0.40414000  0.71240000  0.53096000  1.0 1.971569397
Mo  Mo9  1  0.15328000  0.89069000  0.55164000  1.0 2.0116929789
Mo  Mo10  1  0.39179000  0.64020000  0.59856000  1.0 1.971569397
Mo  Mo11  1  0.24282000  0.63914000  0.60333000  1.0 1.971569397
Mo  Mo12  1  0.14631000  0.71236000  0.53928000  1.0 2.0021270295
Mo  Mo13  1  0.71761000  0.31271000  0.05670000  1.0 2.1412937423
Mo  Mo14  1  0.61792000  0.20318000  0.79829000  1.0 2.0335116168
Mo  Mo15  1  0.85016000  0.31270000  0.05247000  1.0 2.1287005325
Mo  Mo16  1  0.74459000  0.44711000  0.87479000  1.0 1.9546973785
Mo  Mo17  1  0.61168000  0.36093000  0.78703000  1.0 2.0116929789
Mo  Mo18  1  0.58938000  0.39044000  0.95608000  1.0 2.0021270295
Mo  Mo19  1  0.59497000  0.44742000  0.87942000  1.0 1.9756679317
Mo  Mo20  1  0.59586000  0.21240000  0.96904000  1.0 1.971569397
Mo  Mo21  1  0.84672000  0.39069000  0.94836000  1.0 2.0116929789
Mo  Mo22  1  0.60821000  0.14020000  0.90144000  1.0 1.971569397
Mo  Mo23  1  0.75718000  0.13914000  0.89667000  1.0 1.971569397
Mo  Mo24  1  0.85369000  0.21236000  0.96072000  1.0 2.0021270295
Mo  Mo25  1  0.71761000  0.18729000  0.55670000  1.0 2.1412937423
Mo  Mo26  1  0.61792000  0.29682000  0.29829000  1.0 2.0335116168
Mo  Mo27  1  0.85016000  0.18730000  0.55247000  1.0 2.1287005325
Mo  Mo28  1  0.74459000  0.05289000  0.37479000  1.0 1.9546973785
Mo  Mo29  1  0.61168000  0.13907000  0.28703000  1.0 2.0116929789
Mo  Mo30  1  0.58938000  0.10956000  0.45608000  1.0 2.0021270295
Mo  Mo31  1  0.59497000  0.05258000  0.37942000  1.0 1.9756679317
Mo  Mo32  1  0.59586000  0.28760000  0.46904000  1.0 1.971569397
Mo  Mo33  1  0.84672000  0.10931000  0.44836000  1.0 2.0116929789
Mo  Mo34  1  0.60821000  0.35980000  0.40144000  1.0 1.971569397
Mo  Mo35  1  0.75718000  0.36086000  0.39667000  1.0 1.971569397
Mo  Mo36  1  0.85369000  0.28764000  0.46072000  1.0 2.0021270295
Mo  Mo37  1  0.28239000  0.68729000  0.94330000  1.0 2.1412937423
Mo  Mo38  1  0.38208000  0.79682000  0.20171000  1.0 2.0335116168
Mo  Mo39  1  0.14984000  0.68730000  0.94753000  1.0 2.1287005325
Mo  Mo40  1  0.25541000  0.55289000  0.12521000  1.0 1.9546973785
Mo  Mo41  1  0.38832000  0.63907000  0.21297000  1.0 2.0116929789
Mo  Mo42  1  0.41062000  0.60956000  0.04392000  1.0 2.0021270295
Mo  Mo43  1  0.40503000  0.55258000  0.12058000  1.0 1.9756679317
Mo  Mo44  1  0.40414000  0.78760000  0.03096000  1.0 1.971569397
Mo  Mo45  1  0.15328000  0.60931000  0.05164000  1.0 2.0116929789
Mo  Mo46  1  0.39179000  0.85980000  0.09856000  1.0 1.971569397
Mo  Mo47  1  0.24282000  0.86086000  0.10333000  1.0 1.971569397
Mo  Mo48  1  0.14631000  0.78764000  0.03928000  1.0 2.0021270295
P  P1  1  0.30123000  0.79734000  0.57690000  1.0 1.4502963205
P  P2  1  0.69877000  0.29734000  0.92310000  1.0 1.4502963205
P  P3  1  0.69877000  0.20266000  0.42310000  1.0 1.4502963205
P  P4  1  0.30123000  0.70266000  0.07690000  1.0 1.4502963205
H  H1  1  0.15840000  0.75770000  0.77610000  1.0 0.1417263975
H  H2  1  0.09940000  0.76750000  0.81860000  1.0 0.1417263975
H  H3  1  0.95160000  0.84190000  0.69090000  1.0 0.1199674436
H  H4  1  0.00890000  0.82870000  0.64790000  1.0 0.1315307045
H  H5  1  0.05530000  0.84960000  0.85470000  1.0 0.1315307045
H  H6  1  0.88090000  0.87300000  0.84570000  1.0 0.1315307045
H  H7  1  0.89430000  0.79610000  0.72730000  1.0 0.1199674436
H  H8  1  0.79160000  0.85250000  0.68420000  1.0 0.1199674436
H  H9  1  0.68110000  0.83830000  0.63920000  1.0 0.1315307045
H  H10  1  0.68240000  0.78220000  0.76810000  1.0 0.1315307045
H  H11  1  0.79280000  0.79250000  0.81260000  1.0 0.1315307045
H  H12  1  0.12600000  0.52360000  0.36480000  1.0 0.1568128248
H  H13  1  0.11040000  0.32630000  0.34380000  1.0 0.1315307045
H  H14  1  0.25070000  0.40240000  0.47460000  1.0 0.1315307045
H  H15  1  0.15330000  0.23400000  0.36700000  1.0 0.1199674436
H  H16  1  0.17870000  0.12780000  0.39960000  1.0 0.1199674436
H  H17  1  0.29930000  0.20250000  0.53650000  1.0 0.1315307045
H  H18  1  0.27350000  0.30840000  0.50360000  1.0 0.1315307045
H  H19  1  0.84160000  0.25770000  0.72390000  1.0 0.1417263975
H  H20  1  0.90060000  0.26750000  0.68140000  1.0 0.1417263975
H  H21  1  0.04840000  0.34190000  0.80910000  1.0 0.1199674436
H  H22  1  0.99110000  0.32870000  0.85210000  1.0 0.1315307045
H  H23  1  0.94470000  0.34960000  0.64530000  1.0 0.1315307045
H  H24  1  0.11910000  0.37300000  0.65430000  1.0 0.1315307045
H  H25  1  0.10570000  0.29610000  0.77270000  1.0 0.1199674436
H  H26  1  0.20840000  0.35250000  0.81580000  1.0 0.1199674436
H  H27  1  0.31890000  0.33830000  0.86080000  1.0 0.1315307045
H  H28  1  0.31760000  0.28220000  0.73190000  1.0 0.1315307045
H  H29  1  0.20720000  0.29250000  0.68740000  1.0 0.1315307045
H  H30  1  0.87400000  0.02360000  0.13520000  1.0 0.1568128248
H  H31  1  0.88960000  0.82630000  0.15620000  1.0 0.1315307045
H  H32  1  0.74930000  0.90240000  0.02540000  1.0 0.1315307045
H  H33  1  0.84670000  0.73400000  0.13300000  1.0 0.1199674436
H  H34  1  0.82130000  0.62780000  0.10040000  1.0 0.1199674436
H  H35  1  0.70070000  0.70250000  0.96350000  1.0 0.1315307045
H  H36  1  0.72650000  0.80840000  0.99640000  1.0 0.1315307045
H  H37  1  0.84160000  0.24230000  0.22390000  1.0 0.1417263975
H  H38  1  0.90060000  0.23250000  0.18140000  1.0 0.1417263975
H  H39  1  0.04840000  0.15810000  0.30910000  1.0 0.1199674436
H  H40  1  0.99110000  0.17130000  0.35210000  1.0 0.1315307045
H  H41  1  0.94470000  0.15040000  0.14530000  1.0 0.1315307045
H  H42  1  0.11910000  0.12700000  0.15430000  1.0 0.1315307045
H  H43  1  0.10570000  0.20390000  0.27270000  1.0 0.1199674436
H  H44  1  0.20840000  0.14750000  0.31580000  1.0 0.1199674436
H  H45  1  0.31890000  0.16170000  0.36080000  1.0 0.1315307045
H  H46  1  0.31760000  0.21780000  0.23190000  1.0 0.1315307045
H  H47  1  0.20720000  0.20750000  0.18740000  1.0 0.1315307045
H  H48  1  0.87400000  0.47640000  0.63520000  1.0 0.1568128248
H  H49  1  0.88960000  0.67370000  0.65620000  1.0 0.1315307045
H  H50  1  0.74930000  0.59760000  0.52540000  1.0 0.1315307045
H  H51  1  0.84670000  0.76600000  0.63300000  1.0 0.1199674436
H  H52  1  0.82130000  0.87220000  0.60040000  1.0 0.1199674436
H  H53  1  0.70070000  0.79750000  0.46350000  1.0 0.1315307045
H  H54  1  0.72650000  0.69160000  0.49640000  1.0 0.1315307045
H  H55  1  0.15840000  0.74230000  0.27610000  1.0 0.1417263975
H  H56  1  0.09940000  0.73250000  0.31860000  1.0 0.1417263975
H  H57  1  0.95160000  0.65810000  0.19090000  1.0 0.1199674436
H  H58  1  0.00890000  0.67130000  0.14790000  1.0 0.1315307045
H  H59  1  0.05530000  0.65040000  0.35470000  1.0 0.1315307045
H  H60  1  0.88090000  0.62700000  0.34570000  1.0 0.1315307045
H  H61  1  0.89430000  0.70390000  0.22730000  1.0 0.1199674436
H  H62  1  0.79160000  0.64750000  0.18420000  1.0 0.1199674436
H  H63  1  0.68110000  0.66170000  0.13920000  1.0 0.1315307045
H  H64  1  0.68240000  0.71780000  0.26810000  1.0 0.1315307045
H  H65  1  0.79280000  0.70750000  0.31260000  1.0 0.1315307045
H  H66  1  0.12600000  0.97640000  0.86480000  1.0 0.1568128248
H  H67  1  0.11040000  0.17370000  0.84380000  1.0 0.1315307045
H  H68  1  0.25070000  0.09760000  0.97460000  1.0 0.1315307045
H  H69  1  0.15330000  0.26600000  0.86700000  1.0 0.1199674436
H  H70  1  0.17870000  0.37220000  0.89960000  1.0 0.1199674436
H  H71  1  0.29930000  0.29750000  0.03650000  1.0 0.1315307045
H  H72  1  0.27350000  0.19160000  0.00360000  1.0 0.1315307045
C  C1  1  0.12760000  0.78880000  0.67850000  1.0 0.5511962553
C  C2  1  0.09080000  0.79240000  0.70760000  1.0 -0.0006971643
C  C3  1  0.11650000  0.77460000  0.75870000  1.0 -0.063278682
C  C4  1  0.08130000  0.78120000  0.78440000  1.0 -0.1187067958
C  C5  1  0.01960000  0.80790000  0.76010000  1.0 0.09644279
C  C6  1  0.99350000  0.82490000  0.70830000  1.0 -0.1390587422
C  C7  1  0.02780000  0.81730000  0.68250000  1.0 -0.0811909631
C  C8  1  0.98130000  0.82130000  0.78690000  1.0 0.0898935181
C  C9  1  0.01040000  0.84590000  0.83620000  1.0 -0.1094838264
C  C10  1  0.97320000  0.86550000  0.85880000  1.0 0.010535451
C  C11  1  0.90590000  0.85910000  0.83100000  1.0 -0.1306932312
C  C12  1  0.87630000  0.83240000  0.78230000  1.0 0.0898935181
C  C13  1  0.91410000  0.81390000  0.76040000  1.0 -0.1698839883
C  C14  1  0.80450000  0.82430000  0.75320000  1.0 0.0898935181
C  C15  1  0.76990000  0.83760000  0.70140000  1.0 -0.1306932312
C  C16  1  0.70330000  0.82940000  0.67430000  1.0 -0.0748007441
C  C17  1  0.66990000  0.80800000  0.69890000  1.0 -0.0093888798
C  C18  1  0.70430000  0.79560000  0.75070000  1.0 -0.0811909631
C  C19  1  0.77060000  0.80250000  0.77770000  1.0 -0.1187067958
C  C20  1  0.59770000  0.79990000  0.66980000  1.0 0.5377887865
C  C21  1  0.00140000  0.89570000  0.91040000  1.0 0.5342125674
C  C22  1  0.22400000  0.53130000  0.45840000  1.0 0.5703117778
C  C23  1  0.19330000  0.47180000  0.42420000  1.0 0.0175348056
C  C24  1  0.14010000  0.48060000  0.37670000  1.0 -0.1306932312
C  C25  1  0.10700000  0.42670000  0.34630000  1.0 0.0898935181
C  C26  1  0.13130000  0.36300000  0.36440000  1.0 -0.1830685655
C  C27  1  0.18580000  0.35240000  0.41220000  1.0 0.0898935181
C  C28  1  0.21540000  0.40800000  0.44200000  1.0 -0.1390587422
C  C29  1  0.04652000  0.43560000  0.29612000  1.0 0.09644279
C  C30  1  0.04050000  0.49410000  0.26890000  1.0 -0.0266189496
C  C31  1  0.98310000  0.50790000  0.22430000  1.0 -0.0093888798
C  C32  1  0.93160000  0.46330000  0.20690000  1.0 0.0015917456
C  C33  1  0.93760000  0.40490000  0.23410000  1.0 -0.0215846969
C  C34  1  0.99500000  0.39100000  0.27870000  1.0 -0.0266189496
C  C35  1  0.87010000  0.48710000  0.16400000  1.0 0.4015306314
C  C36  1  0.20800000  0.28370000  0.43210000  1.0 0.09644279
C  C37  1  0.18200000  0.22830000  0.40180000  1.0 -0.1521033416
C  C38  1  0.19720000  0.16410000  0.42130000  1.0 -0.0811909631
C  C39  1  0.23930000  0.15360000  0.47220000  1.0 -0.0093888798
C  C40  1  0.26850000  0.20840000  0.50220000  1.0 -0.0748007441
C  C41  1  0.25280000  0.27220000  0.48220000  1.0 -0.1306932312
C  C42  1  0.25220000  0.08590000  0.49650000  1.0 0.557351612
C  C43  1  0.00730000  0.49340000  0.30410000  1.0 -0.0093888798
C  C44  1  0.94950000  0.50980000  0.25930000  1.0 -0.0811909631
C  C45  1  0.96930000  0.42300000  0.21270000  1.0 0.0175348056
C  C46  1  0.02390000  0.40290000  0.25810000  1.0 0.010535451
C  C47  1  0.87240000  0.28880000  0.82150000  1.0 0.5511962553
C  C48  1  0.90920000  0.29240000  0.79240000  1.0 -0.0006971643
C  C49  1  0.88350000  0.27460000  0.74130000  1.0 -0.063278682
C  C50  1  0.91870000  0.28120000  0.71560000  1.0 -0.1187067958
C  C51  1  0.98040000  0.30790000  0.73990000  1.0 0.09644279
C  C52  1  0.00650000  0.32490000  0.79170000  1.0 -0.1390587422
C  C53  1  0.97220000  0.31730000  0.81750000  1.0 -0.0811909631
C  C54  1  0.01870000  0.32130000  0.71310000  1.0 0.0898935181
C  C55  1  0.98960000  0.34590000  0.66380000  1.0 -0.1094838264
C  C56  1  0.02680000  0.36550000  0.64120000  1.0 0.010535451
C  C57  1  0.09410000  0.35910000  0.66900000  1.0 -0.1306932312
C  C58  1  0.12370000  0.33240000  0.71770000  1.0 0.0898935181
C  C59  1  0.08590000  0.31390000  0.73960000  1.0 -0.1698839883
C  C60  1  0.19550000  0.32430000  0.74680000  1.0 0.0898935181
C  C61  1  0.23010000  0.33760000  0.79860000  1.0 -0.1306932312
C  C62  1  0.29670000  0.32940000  0.82570000  1.0 -0.0748007441
C  C63  1  0.33010000  0.30800000  0.80110000  1.0 -0.0093888798
C  C64  1  0.29570000  0.29560000  0.74930000  1.0 -0.0811909631
C  C65  1  0.22940000  0.30250000  0.72230000  1.0 -0.1187067958
C  C66  1  0.40230000  0.29990000  0.83020000  1.0 0.5377887865
C  C67  1  0.99860000  0.39570000  0.58960000  1.0 0.5342125674
C  C68  1  0.77600000  0.03130000  0.04160000  1.0 0.5703117778
C  C69  1  0.80670000  0.97180000  0.07580000  1.0 0.0175348056
C  C70  1  0.85990000  0.98060000  0.12330000  1.0 -0.1306932312
C  C71  1  0.89300000  0.92670000  0.15370000  1.0 0.0898935181
C  C72  1  0.86870000  0.86300000  0.13560000  1.0 -0.1830685655
C  C73  1  0.81420000  0.85240000  0.08780000  1.0 0.0898935181
C  C74  1  0.78460000  0.90800000  0.05800000  1.0 -0.1390587422
C  C75  1  0.95348000  0.93560000  0.20388000  1.0 0.09644279
C  C76  1  0.95950000  0.99410000  0.23110000  1.0 -0.0266189496
C  C77  1  0.01690000  0.00790000  0.27570000  1.0 -0.0093888798
C  C78  1  0.06840000  0.96330000  0.29310000  1.0 0.0015917456
C  C79  1  0.06240000  0.90490000  0.26590000  1.0 -0.0215846969
C  C80  1  0.00500000  0.89100000  0.22130000  1.0 -0.0266189496
C  C81  1  0.12990000  0.98710000  0.33600000  1.0 0.4015306314
C  C82  1  0.79200000  0.78370000  0.06790000  1.0 0.09644279
C  C83  1  0.81800000  0.72830000  0.09820000  1.0 -0.1521033416
C  C84  1  0.80280000  0.66410000  0.07870000  1.0 -0.0811909631
C  C85  1  0.76070000  0.65360000  0.02780000  1.0 -0.0093888798
C  C86  1  0.73150000  0.70840000  0.99780000  1.0 -0.0748007441
C  C87  1  0.74720000  0.77220000  0.01780000  1.0 -0.1306932312
C  C88  1  0.74780000  0.58590000  0.00350000  1.0 0.557351612
C  C89  1  0.99270000  0.99340000  0.19590000  1.0 -0.0093888798
C  C90  1  0.05050000  0.00980000  0.24070000  1.0 -0.0811909631
C  C91  1  0.03070000  0.92300000  0.28730000  1.0 0.0175348056
C  C92  1  0.97610000  0.90290000  0.24190000  1.0 0.010535451
C  C93  1  0.87240000  0.21120000  0.32150000  1.0 0.5511962553
C  C94  1  0.90920000  0.20760000  0.29240000  1.0 -0.0006971643
C  C95  1  0.88350000  0.22540000  0.24130000  1.0 -0.063278682
C  C96  1  0.91870000  0.21880000  0.21560000  1.0 -0.1187067958
C  C97  1  0.98040000  0.19210000  0.23990000  1.0 0.09644279
C  C98  1  0.00650000  0.17510000  0.29170000  1.0 -0.1390587422
C  C99  1  0.97220000  0.18270000  0.31750000  1.0 -0.0811909631
C  C100  1  0.01870000  0.17870000  0.21310000  1.0 0.0898935181
C  C101  1  0.98960000  0.15410000  0.16380000  1.0 -0.1094838264
C  C102  1  0.02680000  0.13450000  0.14120000  1.0 0.010535451
C  C103  1  0.09410000  0.14090000  0.16900000  1.0 -0.1306932312
C  C104  1  0.12370000  0.16760000  0.21770000  1.0 0.0898935181
C  C105  1  0.08590000  0.18610000  0.23960000  1.0 -0.1698839883
C  C106  1  0.19550000  0.17570000  0.24680000  1.0 0.0898935181
C  C107  1  0.23010000  0.16240000  0.29860000  1.0 -0.1306932312
C  C108  1  0.29670000  0.17060000  0.32570000  1.0 -0.0748007441
C  C109  1  0.33010000  0.19200000  0.30110000  1.0 -0.0093888798
C  C110  1  0.29570000  0.20440000  0.24930000  1.0 -0.0811909631
C  C111  1  0.22940000  0.19750000  0.22230000  1.0 -0.1187067958
C  C112  1  0.40230000  0.20010000  0.33020000  1.0 0.5377887865
C  C113  1  0.99860000  0.10430000  0.08960000  1.0 0.5342125674
C  C114  1  0.77600000  0.46870000  0.54160000  1.0 0.5703117778
C  C115  1  0.80670000  0.52820000  0.57580000  1.0 0.0175348056
C  C116  1  0.85990000  0.51940000  0.62330000  1.0 -0.1306932312
C  C117  1  0.89300000  0.57330000  0.65370000  1.0 0.0898935181
C  C118  1  0.86870000  0.63700000  0.63560000  1.0 -0.1830685655
C  C119  1  0.81420000  0.64760000  0.58780000  1.0 0.0898935181
C  C120  1  0.78460000  0.59200000  0.55800000  1.0 -0.1390587422
C  C121  1  0.95348000  0.56440000  0.70388000  1.0 0.09644279
C  C122  1  0.95950000  0.50590000  0.73110000  1.0 -0.0266189496
C  C123  1  0.01690000  0.49210000  0.77570000  1.0 -0.0093888798
C  C124  1  0.06840000  0.53670000  0.79310000  1.0 0.0015917456
C  C125  1  0.06240000  0.59510000  0.76590000  1.0 -0.0215846969
C  C126  1  0.00500000  0.60900000  0.72130000  1.0 -0.0266189496
C  C127  1  0.12990000  0.51290000  0.83600000  1.0 0.4015306314
C  C128  1  0.79200000  0.71630000  0.56790000  1.0 0.09644279
C  C129  1  0.81800000  0.77170000  0.59820000  1.0 -0.1521033416
C  C130  1  0.80280000  0.83590000  0.57870000  1.0 -0.0811909631
C  C131  1  0.76070000  0.84640000  0.52780000  1.0 -0.0093888798
C  C132  1  0.73150000  0.79160000  0.49780000  1.0 -0.0811909631
C  C133  1  0.74720000  0.72780000  0.51780000  1.0 -0.1306932312
C  C134  1  0.74780000  0.91410000  0.50350000  1.0 0.557351612
C  C135  1  0.99270000  0.50660000  0.69590000  1.0 -0.0093888798
C  C136  1  0.05050000  0.49020000  0.74070000  1.0 -0.0811909631
C  C137  1  0.03070000  0.57700000  0.78730000  1.0 0.0175348056
C  C138  1  0.97610000  0.59710000  0.74190000  1.0 0.0015917456
C  C139  1  0.12760000  0.71120000  0.17850000  1.0 0.5511962553
C  C140  1  0.09080000  0.70760000  0.20760000  1.0 -0.0006971643
C  C141  1  0.11650000  0.72540000  0.25870000  1.0 -0.063278682
C  C142  1  0.08130000  0.71880000  0.28440000  1.0 -0.1187067958
C  C143  1  0.01960000  0.69210000  0.26010000  1.0 0.09644279
C  C144  1  0.99350000  0.67510000  0.20830000  1.0 -0.1390587422
C  C145  1  0.02780000  0.68270000  0.18250000  1.0 -0.0811909631
C  C146  1  0.98130000  0.67870000  0.28690000  1.0 0.0898935181
C  C147  1  0.01040000  0.65410000  0.33620000  1.0 -0.1094838264
C  C148  1  0.97320000  0.63450000  0.35880000  1.0 0.010535451
C  C149  1  0.90590000  0.64090000  0.33100000  1.0 -0.1306932312
C  C150  1  0.87630000  0.66760000  0.28230000  1.0 0.0898935181
C  C151  1  0.91410000  0.68610000  0.26040000  1.0 -0.1698839883
C  C152  1  0.80450000  0.67570000  0.25320000  1.0 0.0898935181
C  C153  1  0.76990000  0.66240000  0.20140000  1.0 -0.1306932312
C  C154  1  0.70330000  0.67060000  0.17430000  1.0 -0.0748007441
C  C155  1  0.66990000  0.69200000  0.19890000  1.0 -0.0093888798
C  C156  1  0.70430000  0.70440000  0.25070000  1.0 -0.0811909631
C  C157  1  0.77060000  0.69750000  0.27770000  1.0 -0.1187067958
C  C158  1  0.59770000  0.70010000  0.16980000  1.0 0.5377887865
C  C159  1  0.00140000  0.60430000  0.41040000  1.0 0.5342125674
C  C160  1  0.22400000  0.96870000  0.95840000  1.0 0.5703117778
C  C161  1  0.19330000  0.02820000  0.92420000  1.0 0.0175348056
C  C162  1  0.14010000  0.01940000  0.87670000  1.0 -0.1306932312
C  C163  1  0.10700000  0.07330000  0.84630000  1.0 0.0898935181
C  C164  1  0.13130000  0.13700000  0.86440000  1.0 -0.1830685655
C  C165  1  0.18580000  0.14760000  0.91220000  1.0 0.0898935181
C  C166  1  0.21540000  0.09200000  0.94200000  1.0 -0.1390587422
C  C167  1  0.04652000  0.06440000  0.79612000  1.0 0.09644279
C  C168  1  0.04050000  0.00590000  0.76890000  1.0 -0.0215846969
C  C169  1  0.98310000  0.99210000  0.72430000  1.0 -0.0093888798
C  C170  1  0.93160000  0.03670000  0.70690000  1.0 0.0015917456
C  C171  1  0.93760000  0.09510000  0.73410000  1.0 -0.0215846969
C  C172  1  0.99500000  0.10900000  0.77870000  1.0 -0.0266189496
C  C173  1  0.87010000  0.01290000  0.66400000  1.0 0.4015306314
C  C174  1  0.20800000  0.21630000  0.93210000  1.0 0.09644279
C  C175  1  0.18200000  0.27170000  0.90180000  1.0 -0.1521033416
C  C176  1  0.19720000  0.33590000  0.92130000  1.0 -0.0811909631
C  C177  1  0.23930000  0.34640000  0.97220000  1.0 -0.0093888798
C  C178  1  0.26850000  0.29160000  0.00220000  1.0 -0.0811909631
C  C179  1  0.25280000  0.22780000  0.98220000  1.0 -0.1306932312
C  C180  1  0.25220000  0.41410000  0.99650000  1.0 0.557351612
C  C181  1  0.00730000  0.00660000  0.80410000  1.0 -0.0093888798
C  C182  1  0.94950000  0.99020000  0.75930000  1.0 -0.0811909631
C  C183  1  0.96930000  0.07700000  0.71270000  1.0 0.0175348056
C  C184  1  0.02390000  0.09710000  0.75810000  1.0 0.0015917456
O  O1  1  0.09774000  0.79490000  0.63170000  1.0 -0.4310537795
O  O2  1  0.18904000  0.78100000  0.70589000  1.0 -0.531481571
O  O3  1  0.56895000  0.80850000  0.62302000  1.0 -0.4211096088
O  O4  1  0.57107000  0.78480000  0.69704000  1.0 -0.5105869094
O  O5  1  0.05620000  0.92050000  0.92990000  1.0 -0.4676032583
O  O6  1  0.96660000  0.90820000  0.93260000  1.0 -0.4310537795
O  O7  1  0.26022000  0.52180000  0.50502000  1.0 -0.4310537795
O  O8  1  0.20916000  0.58736000  0.43556000  1.0 -0.531481571
O  O9  1  0.81670000  0.45100000  0.15220000  1.0 -0.2044412414
O  O10  1  0.87120000  0.51650000  0.12730000  1.0 0.010535451
O  O11  1  0.28183000  0.08217000  0.54353000  1.0 -0.4017075667
O  O12  1  0.22946000  0.03608000  0.46562000  1.0 -0.5564159373
O  O13  1  0.45045000  0.86839000  0.61696000  1.0 -0.8303948239
O  O14  1  0.46174000  0.94150000  0.53754000  1.0 -0.4676032583
O  O15  1  0.34559000  0.94760000  0.54670000  1.0 -0.8216757695
O  O16  1  0.20744000  0.86791000  0.62457000  1.0 -0.8303948239
O  O17  1  0.21742000  0.75184000  0.44723000  1.0 -0.9008229295
O  O18  1  0.22320000  0.87153000  0.45654000  1.0 -0.9110614429
O  O19  1  0.21949000  0.94742000  0.55047000  1.0 -0.8216757695
O  O20  1  0.33121000  0.99724000  0.62428000  1.0 -0.8381515215
O  O21  1  0.45093000  0.80139000  0.53822000  1.0 -0.8530571232
O  O22  1  0.31424000  0.58979000  0.59536000  1.0 -0.8303948239
O  O23  1  0.44561000  0.71746000  0.60605000  1.0 -0.8303948239
O  O24  1  0.43161000  0.91668000  0.69180000  1.0 -0.7599210064
O  O25  1  0.10884000  0.80129000  0.54872000  1.0 -0.8303948239
O  O26  1  0.43071000  0.78346000  0.69894000  1.0 -0.9008229295
O  O27  1  0.33008000  0.78255000  0.70196000  1.0 -0.9110614429
O  O28  1  0.20748000  0.65671000  0.52980000  1.0 -0.8216757695
O  O29  1  0.33326000  0.65799000  0.52597000  1.0 -0.8216757695
O  O30  1  0.30878000  0.65284000  0.67724000  1.0 -0.770890906
O  O31  1  0.42206000  0.65439000  0.67305000  1.0 -0.770890906
O  O32  1  0.31871000  0.91599000  0.69555000  1.0 -0.7766707162
O  O33  1  0.20185000  0.71715000  0.61376000  1.0 -0.8216757695
O  O34  1  0.34383000  0.87787000  0.47033000  1.0 -0.770890906
O  O35  1  0.33878000  0.74306000  0.46121000  1.0 -0.7766707162
O  O36  1  0.12484000  0.87722000  0.47717000  1.0 -0.770890906
O  O37  1  0.11860000  0.74220000  0.46752000  1.0 -0.7599210064
O  O38  1  0.09786000  0.82002000  0.38466000  1.0 -0.591120861
O  O39  1  0.45015000  0.66180000  0.51752000  1.0 -0.4582165797
O  O40  1  0.43592000  0.57470000  0.60072000  1.0 -0.4582165797
O  O41  1  0.22158000  0.01110000  0.63881000  1.0 -0.4819025802
O  O42  1  0.25296000  0.82020000  0.37958000  1.0 -0.5478646974
O  O43  1  0.09661000  0.94270000  0.54866000  1.0 -0.4819025802
O  O44  1  0.42282000  0.68290000  0.76461000  1.0 -0.4880949775
O  O45  1  0.08516000  0.66300000  0.53003000  1.0 -0.4211096088
O  O46  1  0.45556000  0.01070000  0.63208000  1.0 -0.4819025802
O  O47  1  0.20285000  0.57400000  0.60795000  1.0 -0.4582165797
O  O48  1  0.42975000  0.86610000  0.77739000  1.0 -0.4819025802
O  O49  1  0.32520000  0.85709000  0.61491000  1.0 -0.8303948239
O  O50  1  0.32051000  0.72965000  0.60568000  1.0 -0.8381515215
O  O51  1  0.33297000  0.80176000  0.54196000  1.0 -0.8530571232
O  O52  1  0.22624000  0.80085000  0.54506000  1.0 -0.8613449851
O  O53  1  0.83520000  0.53960000  0.16950000  1.0 -0.2955111633
O  O54  1  0.86600000  0.47860000  0.12450000  1.0 0.17323231
O  O55  1  0.90226000  0.29490000  0.86830000  1.0 -0.4310537795
O  O56  1  0.81096000  0.28100000  0.79411000  1.0 -0.531481571
O  O57  1  0.43105000  0.30850000  0.87698000  1.0 -0.4211096088
O  O58  1  0.42893000  0.28480000  0.80296000  1.0 -0.5105869094
O  O59  1  0.94380000  0.42050000  0.57010000  1.0 -0.4676032583
O  O60  1  0.03340000  0.40820000  0.56740000  1.0 -0.4310537795
O  O61  1  0.73978000  0.02180000  0.99498000  1.0 -0.4310537795
O  O62  1  0.79084000  0.08736000  0.06444000  1.0 -0.531481571
O  O63  1  0.18330000  0.95100000  0.34780000  1.0 -0.2044412414
O  O64  1  0.12880000  0.01650000  0.37270000  1.0 0.0175348056
O  O65  1  0.71817000  0.58217000  0.95647000  1.0 -0.4017075667
O  O66  1  0.77054000  0.53608000  0.03438000  1.0 -0.5564159373
O  O67  1  0.54955000  0.36839000  0.88304000  1.0 -0.8303948239
O  O68  1  0.53826000  0.44150000  0.96246000  1.0 -0.4676032583
O  O69  1  0.65441000  0.44760000  0.95330000  1.0 -0.8216757695
O  O70  1  0.79256000  0.36791000  0.87543000  1.0 -0.8303948239
O  O71  1  0.78258000  0.25184000  0.05277000  1.0 -0.9008229295
O  O72  1  0.77680000  0.37153000  0.04346000  1.0 -0.9110614429
O  O73  1  0.78051000  0.44742000  0.94953000  1.0 -0.8216757695
O  O74  1  0.66879000  0.49724000  0.87572000  1.0 -0.8381515215
O  O75  1  0.54907000  0.30139000  0.96178000  1.0 -0.8530571232
O  O76  1  0.68576000  0.08979000  0.90464000  1.0 -0.8303948239
O  O77  1  0.55439000  0.21746000  0.89395000  1.0 -0.8303948239
O  O78  1  0.56839000  0.41668000  0.80820000  1.0 -0.7599210064
O  O79  1  0.89116000  0.30129000  0.95128000  1.0 -0.8303948239
O  O80  1  0.56929000  0.28346000  0.80106000  1.0 -0.9008229295
O  O81  1  0.66992000  0.28255000  0.79804000  1.0 -0.9110614429
O  O82  1  0.79252000  0.15671000  0.97020000  1.0 -0.8216757695
O  O83  1  0.66674000  0.15799000  0.97403000  1.0 -0.8216757695
O  O84  1  0.69122000  0.15284000  0.82276000  1.0 -0.770890906
O  O85  1  0.57794000  0.15439000  0.82695000  1.0 -0.770890906
O  O86  1  0.68129000  0.41599000  0.80445000  1.0 -0.7766707162
O  O87  1  0.79815000  0.21715000  0.88624000  1.0 -0.8216757695
O  O88  1  0.65617000  0.37787000  0.02967000  1.0 -0.770890906
O  O89  1  0.66122000  0.24306000  0.03879000  1.0 -0.7766707162
O  O90  1  0.87516000  0.37722000  0.02283000  1.0 -0.770890906
O  O91  1  0.88140000  0.24220000  0.03248000  1.0 -0.7599210064
O  O92  1  0.90214000  0.32002000  0.11534000  1.0 -0.591120861
O  O93  1  0.54985000  0.16180000  0.98248000  1.0 -0.4582165797
O  O94  1  0.56408000  0.07470000  0.89928000  1.0 -0.4582165797
O  O95  1  0.77842000  0.51110000  0.86119000  1.0 -0.4819025802
O  O96  1  0.74704000  0.32020000  0.12042000  1.0 -0.5478646974
O  O97  1  0.90339000  0.44270000  0.95134000  1.0 -0.4819025802
O  O98  1  0.57718000  0.18290000  0.73539000  1.0 -0.4880949775
O  O99  1  0.91484000  0.16300000  0.96997000  1.0 -0.4211096088
O  O100  1  0.54444000  0.51070000  0.86792000  1.0 -0.4819025802
O  O101  1  0.79715000  0.07400000  0.89205000  1.0 -0.4582165797
O  O102  1  0.57025000  0.36610000  0.72261000  1.0 -0.4819025802
O  O103  1  0.67480000  0.35709000  0.88509000  1.0 -0.8303948239
O  O104  1  0.67949000  0.22965000  0.89432000  1.0 -0.8381515215
O  O105  1  0.66703000  0.30176000  0.95804000  1.0 -0.8530571232
O  O106  1  0.77376000  0.30085000  0.95494000  1.0 -0.8613449851
O  O107  1  0.16480000  0.03960000  0.33050000  1.0 -0.2955111633
O  O108  1  0.13400000  0.97860000  0.37550000  1.0 0.17323231
O  O109  1  0.90226000  0.20510000  0.36830000  1.0 -0.4310537795
O  O110  1  0.81096000  0.21900000  0.29411000  1.0 -0.531481571
O  O111  1  0.43105000  0.19150000  0.37698000  1.0 -0.4211096088
O  O112  1  0.42893000  0.21520000  0.30296000  1.0 -0.5105869094
O  O113  1  0.94380000  0.07950000  0.07010000  1.0 -0.4676032583
O  O114  1  0.03340000  0.09180000  0.06740000  1.0 -0.4310537795
O  O115  1  0.73978000  0.47820000  0.49498000  1.0 -0.4310537795
O  O116  1  0.79084000  0.41264000  0.56444000  1.0 -0.531481571
O  O117  1  0.18330000  0.54900000  0.84780000  1.0 -0.2044412414
O  O118  1  0.12880000  0.48350000  0.87270000  1.0 0.0175348056
O  O119  1  0.71817000  0.91783000  0.45647000  1.0 -0.4017075667
O  O120  1  0.77054000  0.96392000  0.53438000  1.0 -0.5564159373
O  O121  1  0.54955000  0.13161000  0.38304000  1.0 -0.8303948239
O  O122  1  0.53826000  0.05850000  0.46246000  1.0 -0.4676032583
O  O123  1  0.65441000  0.05240000  0.45330000  1.0 -0.8216757695
O  O124  1  0.79256000  0.13209000  0.37543000  1.0 -0.8303948239
O  O125  1  0.78258000  0.24816000  0.55277000  1.0 -0.9008229295
O  O126  1  0.77680000  0.12847000  0.54346000  1.0 -0.9110614429
O  O127  1  0.78051000  0.05258000  0.44953000  1.0 -0.8216757695
O  O128  1  0.66879000  0.00276000  0.37572000  1.0 -0.8381515215
O  O129  1  0.54907000  0.19861000  0.46178000  1.0 -0.8530571232
O  O130  1  0.68576000  0.41021000  0.40464000  1.0 -0.8303948239
O  O131  1  0.55439000  0.28254000  0.39395000  1.0 -0.8303948239
O  O132  1  0.56839000  0.08332000  0.30820000  1.0 -0.7599210064
O  O133  1  0.89116000  0.19871000  0.45128000  1.0 -0.8303948239
O  O134  1  0.56929000  0.21654000  0.30106000  1.0 -0.9008229295
O  O135  1  0.66992000  0.21745000  0.29804000  1.0 -0.9110614429
O  O136  1  0.79252000  0.34329000  0.47020000  1.0 -0.8216757695
O  O137  1  0.66674000  0.34201000  0.47403000  1.0 -0.8216757695
O  O138  1  0.69122000  0.34716000  0.32276000  1.0 -0.770890906
O  O139  1  0.57794000  0.34561000  0.32695000  1.0 -0.770890906
O  O140  1  0.68129000  0.08401000  0.30445000  1.0 -0.7766707162
O  O141  1  0.79815000  0.28285000  0.38624000  1.0 -0.8216757695
O  O142  1  0.65617000  0.12213000  0.52967000  1.0 -0.770890906
O  O143  1  0.66122000  0.25694000  0.53879000  1.0 -0.7766707162
O  O144  1  0.87516000  0.12278000  0.52283000  1.0 -0.770890906
O  O145  1  0.88140000  0.25780000  0.53248000  1.0 -0.7599210064
O  O146  1  0.90214000  0.17998000  0.61534000  1.0 -0.591120861
O  O147  1  0.54985000  0.33820000  0.48248000  1.0 -0.4582165797
O  O148  1  0.56408000  0.42530000  0.39928000  1.0 -0.4582165797
O  O149  1  0.77842000  0.98890000  0.36119000  1.0 -0.4819025802
O  O150  1  0.74704000  0.17980000  0.62042000  1.0 -0.5478646974
O  O151  1  0.90339000  0.05730000  0.45134000  1.0 -0.4819025802
O  O152  1  0.57718000  0.31710000  0.23539000  1.0 -0.4880949775
O  O153  1  0.91484000  0.33700000  0.46997000  1.0 -0.4211096088
O  O154  1  0.54444000  0.98930000  0.36792000  1.0 -0.4819025802
O  O155  1  0.79715000  0.42600000  0.39205000  1.0 -0.4582165797
O  O156  1  0.57025000  0.13390000  0.22261000  1.0 -0.4819025802
O  O157  1  0.67480000  0.14291000  0.38509000  1.0 -0.8303948239
O  O158  1  0.67949000  0.27035000  0.39432000  1.0 -0.8381515215
O  O159  1  0.66703000  0.19824000  0.45804000  1.0 -0.8530571232
O  O160  1  0.77376000  0.19915000  0.45494000  1.0 -0.8613449851
O  O161  1  0.16480000  0.46040000  0.83050000  1.0 -0.2955111633
O  O162  1  0.13400000  0.52140000  0.87550000  1.0 0.17323231
O  O163  1  0.09774000  0.70510000  0.13170000  1.0 -0.4310537795
O  O164  1  0.18904000  0.71900000  0.20589000  1.0 -0.531481571
O  O165  1  0.56895000  0.69150000  0.12302000  1.0 -0.4211096088
O  O166  1  0.57107000  0.71520000  0.19704000  1.0 -0.5105869094
O  O167  1  0.05620000  0.57950000  0.42990000  1.0 -0.4676032583
O  O168  1  0.96660000  0.59180000  0.43260000  1.0 -0.4310537795
O  O169  1  0.26022000  0.97820000  0.00502000  1.0 -0.4310537795
O  O170  1  0.20916000  0.91264000  0.93556000  1.0 -0.531481571
O  O171  1  0.81670000  0.04900000  0.65220000  1.0 -0.2044412414
O  O172  1  0.87120000  0.98350000  0.62730000  1.0 0.0175348056
O  O173  1  0.28183000  0.41783000  0.04353000  1.0 -0.4017075667
O  O174  1  0.22946000  0.46392000  0.96562000  1.0 -0.5564159373
O  O175  1  0.45045000  0.63161000  0.11696000  1.0 -0.8303948239
O  O176  1  0.46174000  0.55850000  0.03754000  1.0 -0.4676032583
O  O177  1  0.34559000  0.55240000  0.04670000  1.0 -0.8216757695
O  O178  1  0.20744000  0.63209000  0.12457000  1.0 -0.8303948239
O  O179  1  0.21742000  0.74816000  0.94723000  1.0 -0.9008229295
O  O180  1  0.22320000  0.62847000  0.95654000  1.0 -0.9110614429
O  O181  1  0.21949000  0.55258000  0.05047000  1.0 -0.8216757695
O  O182  1  0.33121000  0.50276000  0.12428000  1.0 -0.8381515215
O  O183  1  0.45093000  0.69861000  0.03822000  1.0 -0.8530571232
O  O184  1  0.31424000  0.91021000  0.09536000  1.0 -0.8303948239
O  O185  1  0.44561000  0.78254000  0.10605000  1.0 -0.8303948239
O  O186  1  0.43161000  0.58332000  0.19180000  1.0 -0.7599210064
O  O187  1  0.10884000  0.69871000  0.04872000  1.0 -0.8303948239
O  O188  1  0.43071000  0.71654000  0.19894000  1.0 -0.9008229295
O  O189  1  0.33008000  0.71745000  0.20196000  1.0 -0.9110614429
O  O190  1  0.20748000  0.84329000  0.02980000  1.0 -0.8216757695
O  O191  1  0.33326000  0.84201000  0.02597000  1.0 -0.8216757695
O  O192  1  0.30878000  0.84716000  0.17724000  1.0 -0.770890906
O  O193  1  0.42206000  0.84561000  0.17305000  1.0 -0.770890906
O  O194  1  0.31871000  0.58401000  0.19555000  1.0 -0.7766707162
O  O195  1  0.20185000  0.78285000  0.11376000  1.0 -0.8216757695
O  O196  1  0.34383000  0.62213000  0.97033000  1.0 -0.770890906
O  O197  1  0.33878000  0.75694000  0.96121000  1.0 -0.7766707162
O  O198  1  0.12484000  0.62278000  0.97717000  1.0 -0.770890906
O  O199  1  0.11860000  0.75780000  0.96752000  1.0 -0.7599210064
O  O200  1  0.09786000  0.67998000  0.88466000  1.0 -0.591120861
O  O201  1  0.45015000  0.83820000  0.01752000  1.0 -0.4582165797
O  O202  1  0.43592000  0.92530000  0.10072000  1.0 -0.4582165797
O  O203  1  0.22158000  0.48890000  0.13881000  1.0 -0.4819025802
O  O204  1  0.25296000  0.67980000  0.87958000  1.0 -0.5478646974
O  O205  1  0.09661000  0.55730000  0.04866000  1.0 -0.4819025802
O  O206  1  0.42282000  0.81710000  0.26461000  1.0 -0.4880949775
O  O207  1  0.08516000  0.83700000  0.03003000  1.0 -0.4211096088
O  O208  1  0.45556000  0.48930000  0.13208000  1.0 -0.4819025802
O  O209  1  0.20285000  0.92600000  0.10795000  1.0 -0.4582165797
O  O210  1  0.42975000  0.63390000  0.27739000  1.0 -0.4819025802
O  O211  1  0.32520000  0.64291000  0.11491000  1.0 -0.8303948239
O  O212  1  0.32051000  0.77035000  0.10568000  1.0 -0.8381515215
O  O213  1  0.33297000  0.69824000  0.04196000  1.0 -0.8530571232
O  O214  1  0.22624000  0.69915000  0.04506000  1.0 -0.8613449851
O  O215  1  0.83520000  0.96040000  0.66950000  1.0 -0.2955111633
O  O216  1  0.86600000  0.02140000  0.62450000  1.0 0.17323231
