# DDEC6 charges by PACMAN v1.1 (https://github.com/mtap-research/PACMAN-charge/)
data_QECHOY_ASR_pacman
_symmetry_space_group_name_H-M   'P 1'
_cell_length_a   38.17430000
_cell_length_b   29.87280000
_cell_length_c   28.91660000
_cell_angle_alpha   80.96580000
_cell_angle_beta   50.60880000
_cell_angle_gamma   48.42540000
_symmetry_Int_Tables_number   1
_chemical_formula_structural   Zn12Mo36P3H44(C7O9)12
_chemical_formula_sum   'Zn24 Mo72 P6 H88 C168 O216'
_cell_volume   16959.48872556
_cell_formula_units_Z   2
loop_
 _symmetry_equiv_pos_site_id
 _symmetry_equiv_pos_as_xyz
  1  'x, y, z'
loop_
 _atom_site_type_symbol
 _atom_site_label
 _atom_site_symmetry_multiplicity
 _atom_site_fract_x
 _atom_site_fract_y
 _atom_site_fract_z
 _atom_site_occupancy
 _atom_site_charge
Zn  Zn1  1  0.71377000  0.52133000  0.22547000  1.0 1.0201958669
Zn  Zn2  1  0.98982000  0.25244000  0.10596000  1.0 1.0589285446
Zn  Zn3  1  0.87164000  0.52484000  0.20916000  1.0 1.0589285446
Zn  Zn4  1  0.98170000  0.39910000  0.94910000  1.0 0.996192987
Zn  Zn5  1  0.21258000  0.82882000  0.88778000  1.0 1.0201958669
Zn  Zn6  1  0.31082000  0.59238000  0.73282000  1.0 1.0201958669
Zn  Zn7  1  0.53943000  0.22547000  0.52133000  1.0 1.0201958669
Zn  Zn8  1  0.65178000  0.10596000  0.25244000  1.0 1.0589285446
Zn  Zn9  1  0.39436000  0.20916000  0.52484000  1.0 1.0589285446
Zn  Zn10  1  0.67010000  0.94910000  0.39910000  1.0 0.996192987
Zn  Zn11  1  0.07082000  0.88778000  0.82882000  1.0 1.0201958669
Zn  Zn12  1  0.36398000  0.73282000  0.59238000  1.0 1.0201958669
Zn  Zn13  1  0.72867000  0.53623000  0.71057000  1.0 1.0201958669
Zn  Zn14  1  0.99756000  0.26018000  0.59822000  1.0 1.0589285446
Zn  Zn15  1  0.72516000  0.37836000  0.85564000  1.0 1.0589285446
Zn  Zn16  1  0.85090000  0.26830000  0.57990000  1.0 0.996192987
Zn  Zn17  1  0.42118000  0.03742000  0.17918000  1.0 1.0201958669
Zn  Zn18  1  0.65762000  0.93918000  0.88602000  1.0 1.0201958669
Zn  Zn19  1  0.02453000  0.71057000  0.53623000  1.0 1.0201958669
Zn  Zn20  1  0.14404000  0.59822000  0.26018000  1.0 1.0589285446
Zn  Zn21  1  0.04084000  0.85564000  0.37836000  1.0 1.0589285446
Zn  Zn22  1  0.30090000  0.57990000  0.26830000  1.0 0.996192987
Zn  Zn23  1  0.36222000  0.17918000  0.03742000  1.0 1.0201958669
Zn  Zn24  1  0.51718000  0.88602000  0.93918000  1.0 1.0201958669
Mo  Mo1  1  0.89184000  0.54384000  0.07416000  1.0 1.9606564296
Mo  Mo2  1  0.74169000  0.61187000  0.22213000  1.0 1.8700282229
Mo  Mo3  1  0.74726000  0.53320000  0.30720000  1.0 2.0770913911
Mo  Mo4  1  0.01512000  0.33934000  0.12286000  1.0 1.8767945421
Mo  Mo5  1  0.90301000  0.38857000  0.24003000  1.0 1.7793966783
Mo  Mo6  1  0.00800000  0.43020000  0.02780000  1.0 1.620086105
Mo  Mo7  1  0.79603000  0.53977000  0.08323000  1.0 1.5769866062
Mo  Mo8  1  0.84725000  0.33657000  0.14143000  1.0 1.976232226
Mo  Mo9  1  0.99089000  0.27445000  0.98355000  1.0 2.0474234772
Mo  Mo10  1  0.07711000  0.27621000  0.97539000  1.0 1.9606564296
Mo  Mo11  1  0.80674000  0.38636000  0.24984000  1.0 1.7875282916
Mo  Mo12  1  0.84135000  0.42585000  0.04435000  1.0 1.620086105
Mo  Mo13  1  0.12813000  0.74289000  0.85609000  1.0 1.9509009374
Mo  Mo14  1  0.34641000  0.63169000  0.59815000  1.0 2.1103210998
Mo  Mo15  1  0.33763000  0.64697000  0.79745000  1.0 1.8043464971
Mo  Mo16  1  0.18656000  0.70950000  0.73294000  1.0 1.9026720179
Mo  Mo17  1  0.07879000  0.86855000  0.94457000  1.0 2.0435768915
Mo  Mo18  1  0.21539000  0.70743000  0.89363000  1.0 1.8617409421
Mo  Mo19  1  0.49016000  0.07416000  0.54384000  1.0 1.9606564296
Mo  Mo20  1  0.42431000  0.22213000  0.61187000  1.0 1.8700282229
Mo  Mo21  1  0.41234000  0.30720000  0.53320000  1.0 2.0770913911
Mo  Mo22  1  0.52268000  0.12286000  0.33934000  1.0 1.8767945421
Mo  Mo23  1  0.46839000  0.24003000  0.38857000  1.0 1.7793966783
Mo  Mo24  1  0.53400000  0.02780000  0.43020000  1.0 1.620086105
Mo  Mo25  1  0.58097000  0.08323000  0.53977000  1.0 1.5769866062
Mo  Mo26  1  0.67475000  0.14143000  0.33657000  1.0 1.976232226
Mo  Mo27  1  0.75111000  0.98355000  0.27445000  1.0 2.0474234772
Mo  Mo28  1  0.67129000  0.97539000  0.27621000  1.0 1.9606564296
Mo  Mo29  1  0.55706000  0.24984000  0.38636000  1.0 1.7875282916
Mo  Mo30  1  0.68845000  0.04435000  0.42585000  1.0 1.644358213
Mo  Mo31  1  0.27289000  0.85609000  0.74289000  1.0 1.9509009374
Mo  Mo32  1  0.42375000  0.59815000  0.63169000  1.0 2.1103210998
Mo  Mo33  1  0.21795000  0.79745000  0.64697000  1.0 1.8043464971
Mo  Mo34  1  0.37100000  0.73294000  0.70950000  1.0 1.9026720179
Mo  Mo35  1  0.10809000  0.94457000  0.86855000  1.0 2.0435768915
Mo  Mo36  1  0.18355000  0.89363000  0.70743000  1.0 1.8617409421
Mo  Mo37  1  0.70616000  0.35816000  0.75984000  1.0 1.9606564296
Mo  Mo38  1  0.63813000  0.50831000  0.82569000  1.0 1.8700282229
Mo  Mo39  1  0.71680000  0.50274000  0.83766000  1.0 2.0770913911
Mo  Mo40  1  0.91066000  0.23488000  0.72732000  1.0 1.8767945421
Mo  Mo41  1  0.86143000  0.34699000  0.78161000  1.0 1.7793966783
Mo  Mo42  1  0.81980000  0.24200000  0.71600000  1.0 1.620086105
Mo  Mo43  1  0.71023000  0.45397000  0.66903000  1.0 1.5716986609
Mo  Mo44  1  0.91343000  0.40275000  0.57525000  1.0 1.976232226
Mo  Mo45  1  0.97555000  0.25911000  0.49889000  1.0 2.0474234772
Mo  Mo46  1  0.97379000  0.17289000  0.57871000  1.0 1.9606564296
Mo  Mo47  1  0.86364000  0.44326000  0.69294000  1.0 1.7875282916
Mo  Mo48  1  0.82415000  0.40865000  0.56155000  1.0 1.620086105
Mo  Mo49  1  0.50711000  0.12187000  0.97711000  1.0 1.9509009374
Mo  Mo50  1  0.61831000  0.90359000  0.82625000  1.0 2.1103210998
Mo  Mo51  1  0.60303000  0.91237000  0.03205000  1.0 1.8080422235
Mo  Mo52  1  0.54050000  0.06344000  0.87900000  1.0 1.9026720179
Mo  Mo53  1  0.38145000  0.17121000  0.14191000  1.0 2.0435768915
Mo  Mo54  1  0.54257000  0.03461000  0.06645000  1.0 1.8700282229
Mo  Mo55  1  0.17584000  0.75984000  0.35816000  1.0 1.9606564296
Mo  Mo56  1  0.02787000  0.82569000  0.50831000  1.0 1.8617409421
Mo  Mo57  1  0.94280000  0.83766000  0.50274000  1.0 2.0770913911
Mo  Mo58  1  0.12714000  0.72732000  0.23488000  1.0 1.8767945421
Mo  Mo59  1  0.00997000  0.78161000  0.34699000  1.0 1.7724487139
Mo  Mo60  1  0.22220000  0.71600000  0.24200000  1.0 1.6345047308
Mo  Mo61  1  0.16677000  0.66903000  0.45397000  1.0 1.5716986609
Mo  Mo62  1  0.10857000  0.57525000  0.40275000  1.0 1.9749200893
Mo  Mo63  1  0.26645000  0.49889000  0.25911000  1.0 2.0474234772
Mo  Mo64  1  0.27461000  0.57871000  0.17289000  1.0 1.9606564296
Mo  Mo65  1  0.00016000  0.69294000  0.44326000  1.0 1.7793966783
Mo  Mo66  1  0.20565000  0.56155000  0.40865000  1.0 1.6092049433
Mo  Mo67  1  0.39391000  0.97711000  0.12187000  1.0 1.9509009374
Mo  Mo68  1  0.65185000  0.82625000  0.90359000  1.0 2.1103210998
Mo  Mo69  1  0.45255000  0.03205000  0.91237000  1.0 1.8080422235
Mo  Mo70  1  0.51706000  0.87900000  0.06344000  1.0 1.9026720179
Mo  Mo71  1  0.30543000  0.14191000  0.17121000  1.0 2.0435768915
Mo  Mo72  1  0.35637000  0.06645000  0.03461000  1.0 1.8617409421
P  P1  1  0.89000000  0.42280000  0.12120000  1.0 1.3942680511
P  P2  1  0.56600000  0.12120000  0.42280000  1.0 1.3942680511
P  P3  1  0.82720000  0.36000000  0.68400000  1.0 1.3955932213
P  P4  1  0.12880000  0.68400000  0.36000000  1.0 1.3942680511
P  P5  1  0.23980000  0.76020000  0.76020000  1.0 1.4310831381
P  P6  1  0.48980000  0.01020000  0.01020000  1.0 1.4310831381
H  H1  1  0.05260000  0.46260000  0.18160000  1.0 0.1006934529
H  H2  1  0.05500000  0.49380000  0.24800000  1.0 0.1006934529
H  H3  1  0.95520000  0.59240000  0.35020000  1.0 0.1099187896
H  H4  1  0.85030000  0.62870000  0.31970000  1.0 0.1006934529
H  H5  1  0.80700000  0.75060000  0.36460000  1.0 0.1099187896
H  H6  1  0.65950000  0.84470000  0.56850000  1.0 0.0923262876
H  H7  1  0.82470000  0.64230000  0.46770000  1.0 0.1006934529
H  H8  1  0.75410000  0.65030000  0.56210000  1.0 0.1006934529
H  H9  1  0.62410000  0.74750000  0.76330000  1.0 0.1099187896
H  H10  1  0.59730000  0.84290000  0.75410000  1.0 0.1099187896
H  H11  1  0.64910000  0.84190000  0.64890000  1.0 0.1006934529
H  H12  1  0.36300000  0.88560000  0.98920000  1.0 0.0923262876
H  H13  1  0.45990000  0.70930000  0.87470000  1.0 0.1006934529
H  H14  1  0.56180000  0.65880000  0.82960000  1.0 0.1006934529
H  H15  1  0.56410000  0.72170000  0.86430000  1.0 0.1006934529
H  H16  1  0.37360000  0.77000000  0.89060000  1.0 0.0923262876
H  H17  1  0.17040000  0.93080000  0.03240000  1.0 0.1006934529
H  H18  1  0.27690000  0.91010000  0.05050000  1.0 0.1099187896
H  H19  1  0.12400000  0.04920000  0.07180000  1.0 0.1006934529
H  H20  1  0.99170000  0.16050000  0.27030000  1.0 0.0923262876
H  H21  1  0.05460000  0.06260000  0.27760000  1.0 0.1006934529
H  H22  1  0.15210000  0.95810000  0.18190000  1.0 0.1099187896
H  H23  1  0.30320000  0.18160000  0.46260000  1.0 0.1006934529
H  H24  1  0.20320000  0.24800000  0.49380000  1.0 0.1006934529
H  H25  1  0.10220000  0.35020000  0.59240000  1.0 0.1099187896
H  H26  1  0.20130000  0.31970000  0.62870000  1.0 0.1006934529
H  H27  1  0.07780000  0.36460000  0.75060000  1.0 0.1099187896
H  H28  1  0.92730000  0.56850000  0.84470000  1.0 0.0923262876
H  H29  1  0.06530000  0.46770000  0.64230000  1.0 0.1006934529
H  H30  1  0.03350000  0.56210000  0.65030000  1.0 0.1006934529
H  H31  1  0.86510000  0.76330000  0.74750000  1.0 0.1099187896
H  H32  1  0.80570000  0.75410000  0.84290000  1.0 0.1099187896
H  H33  1  0.86010000  0.64890000  0.84190000  1.0 0.1006934529
H  H34  1  0.76220000  0.98920000  0.88560000  1.0 0.0923262876
H  H35  1  0.95610000  0.87470000  0.70930000  1.0 0.1006934529
H  H36  1  0.94980000  0.82960000  0.65880000  1.0 0.1006934529
H  H37  1  0.84990000  0.86430000  0.72170000  1.0 0.1006934529
H  H38  1  0.96580000  0.89060000  0.77000000  1.0 0.0923262876
H  H39  1  0.86640000  0.03240000  0.93080000  1.0 0.1006934529
H  H40  1  0.76250000  0.05050000  0.91010000  1.0 0.1099187896
H  H41  1  0.75500000  0.07180000  0.04920000  1.0 0.1006934529
H  H42  1  0.57750000  0.27030000  0.16050000  1.0 0.0923262876
H  H43  1  0.60520000  0.27760000  0.06260000  1.0 0.1006934529
H  H44  1  0.70790000  0.18190000  0.95810000  1.0 0.1099187896
H  H45  1  0.78740000  0.19740000  0.94680000  1.0 0.1006934529
H  H46  1  0.75620000  0.19500000  0.04680000  1.0 0.1006934529
H  H47  1  0.65760000  0.29480000  0.14780000  1.0 0.1099187896
H  H48  1  0.62130000  0.39970000  0.04870000  1.0 0.1006934529
H  H49  1  0.49940000  0.44300000  0.17220000  1.0 0.1099187896
H  H50  1  0.40530000  0.59050000  0.32270000  1.0 0.0923262876
H  H51  1  0.60770000  0.42530000  0.18470000  1.0 0.1006934529
H  H52  1  0.59970000  0.49590000  0.21650000  1.0 0.1006934529
H  H53  1  0.50250000  0.62590000  0.38490000  1.0 0.1099187896
H  H54  1  0.40710000  0.65270000  0.44430000  1.0 0.1099187896
H  H55  1  0.40810000  0.60090000  0.38990000  1.0 0.1006934529
H  H56  1  0.36440000  0.88700000  0.48780000  1.0 0.0923262876
H  H57  1  0.54070000  0.79010000  0.29390000  1.0 0.1006934529
H  H58  1  0.59120000  0.68820000  0.30020000  1.0 0.1006934529
H  H59  1  0.52830000  0.68590000  0.40010000  1.0 0.1006934529
H  H60  1  0.48000000  0.87640000  0.28420000  1.0 0.0923262876
H  H61  1  0.31920000  0.07960000  0.38360000  1.0 0.1006934529
H  H62  1  0.33990000  0.97310000  0.48750000  1.0 0.1099187896
H  H63  1  0.20080000  0.12600000  0.49500000  1.0 0.1006934529
H  H64  1  0.08950000  0.25830000  0.67250000  1.0 0.0923262876
H  H65  1  0.18740000  0.19540000  0.64480000  1.0 0.1006934529
H  H66  1  0.29190000  0.09790000  0.54210000  1.0 0.1099187896
H  H67  1  0.06840000  0.94680000  0.19740000  1.0 0.1006934529
H  H68  1  0.00200000  0.04680000  0.19500000  1.0 0.1006934529
H  H69  1  0.89980000  0.14780000  0.29480000  1.0 0.1099187896
H  H70  1  0.93030000  0.04870000  0.39970000  1.0 0.1006934529
H  H71  1  0.88540000  0.17220000  0.44300000  1.0 0.1099187896
H  H72  1  0.68150000  0.32270000  0.59050000  1.0 0.0923262876
H  H73  1  0.78230000  0.18470000  0.42530000  1.0 0.1006934529
H  H74  1  0.68790000  0.21650000  0.49590000  1.0 0.1006934529
H  H75  1  0.48670000  0.38490000  0.62590000  1.0 0.1099187896
H  H76  1  0.49590000  0.44430000  0.65270000  1.0 0.1099187896
H  H77  1  0.60110000  0.38990000  0.60090000  1.0 0.1006934529
H  H78  1  0.26080000  0.48780000  0.88700000  1.0 0.0923262876
H  H79  1  0.37530000  0.29390000  0.79010000  1.0 0.1006934529
H  H80  1  0.42040000  0.30020000  0.68820000  1.0 0.1006934529
H  H81  1  0.38570000  0.40010000  0.68590000  1.0 0.1006934529
H  H82  1  0.35940000  0.28420000  0.87640000  1.0 0.0923262876
H  H83  1  0.21760000  0.38360000  0.07960000  1.0 0.1006934529
H  H84  1  0.19950000  0.48750000  0.97310000  1.0 0.1099187896
H  H85  1  0.17820000  0.49500000  0.12600000  1.0 0.1006934529
H  H86  1  0.97970000  0.67250000  0.25830000  1.0 0.0923262876
H  H87  1  0.97240000  0.64480000  0.19540000  1.0 0.1006934529
H  H88  1  0.06810000  0.54210000  0.09790000  1.0 0.1099187896
C  C1  1  0.94460000  0.52300000  0.21700000  1.0 0.3898935271
C  C2  1  0.95070000  0.54310000  0.24490000  1.0 -0.0888717564
C  C3  1  0.01190000  0.50270000  0.22310000  1.0 -0.0888717564
C  C4  1  0.01330000  0.52130000  0.26270000  1.0 -0.1094785144
C  C5  1  0.95470000  0.57930000  0.32270000  1.0 -0.1500405483
C  C6  1  0.89330000  0.61990000  0.34450000  1.0 0.0498148324
C  C7  1  0.89210000  0.60110000  0.30490000  1.0 -0.1500405483
C  C8  1  0.82560000  0.68720000  0.40660000  1.0 0.0627157846
C  C9  1  0.78990000  0.74830000  0.40570000  1.0 -0.1719358672
C  C10  1  0.72750000  0.80750000  0.46650000  1.0 -0.0600572499
C  C11  1  0.70180000  0.80460000  0.52720000  1.0 -0.1719358672
C  C12  1  0.73850000  0.74270000  0.52730000  1.0 0.0704358539
C  C13  1  0.79990000  0.68450000  0.46750000  1.0 -0.1989310133
C  C14  1  0.70620000  0.74620000  0.59580000  1.0 0.0704358539
C  C15  1  0.72250000  0.68910000  0.60090000  1.0 -0.1830757307
C  C16  1  0.69140000  0.69020000  0.66380000  1.0 -0.0328497449
C  C17  1  0.64490000  0.74730000  0.72070000  1.0 -0.1094785144
C  C18  1  0.62960000  0.80340000  0.71460000  1.0 -0.1009996909
C  C19  1  0.65980000  0.80340000  0.65260000  1.0 -0.157111858
C  C20  1  0.72140000  0.62280000  0.65920000  1.0 0.5143585456
C  C21  1  0.47120000  0.84300000  0.94100000  1.0 0.4368059588
C  C22  1  0.46370000  0.80950000  0.93010000  1.0 -0.1009996909
C  C23  1  0.40330000  0.83950000  0.95690000  1.0 -0.138130677
C  C24  1  0.40180000  0.80220000  0.93620000  1.0 0.0627157846
C  C25  1  0.46100000  0.73480000  0.88880000  1.0 -0.1500405483
C  C26  1  0.52140000  0.70480000  0.86200000  1.0 -0.1175282197
C  C27  1  0.52280000  0.74220000  0.88260000  1.0 -0.0888717564
C  C28  1  0.33500000  0.83440000  0.96660000  1.0 0.0704358539
C  C29  1  0.33310000  0.81070000  0.93130000  1.0 -0.1719358672
C  C30  1  0.27170000  0.84670000  0.95590000  1.0 -0.0888717564
C  C31  1  0.21240000  0.90620000  0.01560000  1.0 -0.1345794695
C  C32  1  0.21430000  0.92990000  0.05090000  1.0 0.0627157846
C  C33  1  0.27560000  0.89400000  0.02640000  1.0 -0.2057281928
C  C34  1  0.27960000  0.81440000  0.91760000  1.0 0.4203974706
C  C35  1  0.14720000  0.99380000  0.11780000  1.0 0.0498148324
C  C36  1  0.10980000  0.05200000  0.11360000  1.0 -0.1345794695
C  C37  1  0.05190000  0.11390000  0.17050000  1.0 -0.0888717564
C  C38  1  0.03120000  0.11800000  0.23160000  1.0 -0.1009996909
C  C39  1  0.06870000  0.05990000  0.23570000  1.0 -0.1094785144
C  C40  1  0.12660000  0.99780000  0.17900000  1.0 -0.1500405483
C  C41  1  0.01110000  0.17050000  0.17350000  1.0 0.4017646266
C  C42  1  0.69660000  0.87280000  0.46720000  1.0 0.5399753404
C  C43  1  0.31540000  0.21700000  0.52300000  1.0 0.3898935271
C  C44  1  0.26130000  0.24490000  0.54310000  1.0 -0.0888717564
C  C45  1  0.26230000  0.22310000  0.50270000  1.0 -0.0888717564
C  C46  1  0.20270000  0.26270000  0.52130000  1.0 -0.1094785144
C  C47  1  0.14330000  0.32270000  0.57930000  1.0 -0.1500405483
C  C48  1  0.14230000  0.34450000  0.61990000  1.0 0.0498148324
C  C49  1  0.20190000  0.30490000  0.60110000  1.0 -0.1500405483
C  C50  1  0.08060000  0.40660000  0.68720000  1.0 0.0627157846
C  C51  1  0.05610000  0.40570000  0.74830000  1.0 -0.1719358672
C  C52  1  0.99850000  0.46650000  0.80750000  1.0 -0.0600572499
C  C53  1  0.96640000  0.52720000  0.80460000  1.0 -0.1719358672
C  C54  1  0.99150000  0.52730000  0.74270000  1.0 0.0704358539
C  C55  1  0.04810000  0.46750000  0.68450000  1.0 -0.1989310133
C  C56  1  0.95180000  0.59580000  0.74620000  1.0 0.0704358539
C  C57  1  0.98750000  0.60090000  0.68910000  1.0 -0.1830757307
C  C58  1  0.95460000  0.66380000  0.69020000  1.0 -0.0328497449
C  C59  1  0.88710000  0.72070000  0.74730000  1.0 -0.1094785144
C  C60  1  0.85240000  0.71460000  0.80340000  1.0 -0.1009996909
C  C61  1  0.88420000  0.65260000  0.80340000  1.0 -0.157111858
C  C62  1  0.99660000  0.65920000  0.62280000  1.0 0.5143585456
C  C63  1  0.74480000  0.94100000  0.84300000  1.0 0.4368059588
C  C64  1  0.79670000  0.93010000  0.80950000  1.0 -0.1009996909
C  C65  1  0.80030000  0.95690000  0.83950000  1.0 -0.138130677
C  C66  1  0.85980000  0.93620000  0.80220000  1.0 0.0627157846
C  C67  1  0.91540000  0.88880000  0.73480000  1.0 -0.1500405483
C  C68  1  0.91180000  0.86200000  0.70480000  1.0 -0.1175282197
C  C69  1  0.85240000  0.88260000  0.74220000  1.0 -0.0888717564
C  C70  1  0.86400000  0.96660000  0.83440000  1.0 0.0704358539
C  C71  1  0.92490000  0.93130000  0.81070000  1.0 -0.1719358672
C  C72  1  0.92570000  0.95590000  0.84670000  1.0 -0.0888717564
C  C73  1  0.86580000  0.01560000  0.90620000  1.0 -0.1345794695
C  C74  1  0.80490000  0.05090000  0.92990000  1.0 0.0627157846
C  C75  1  0.80400000  0.02640000  0.89400000  1.0 -0.2057281928
C  C76  1  0.98840000  0.91760000  0.81440000  1.0 0.4203974706
C  C77  1  0.74120000  0.11780000  0.99380000  1.0 0.0498148324
C  C78  1  0.72460000  0.11360000  0.05200000  1.0 -0.1345794695
C  C79  1  0.66370000  0.17050000  0.11390000  1.0 -0.0888717564
C  C80  1  0.61920000  0.23160000  0.11800000  1.0 -0.1009996909
C  C81  1  0.63570000  0.23570000  0.05990000  1.0 -0.1094785144
C  C82  1  0.69660000  0.17900000  0.99780000  1.0 -0.1500405483
C  C83  1  0.64490000  0.17350000  0.17050000  1.0 0.4017646266
C  C84  1  0.96340000  0.46720000  0.87280000  1.0 0.5399753404
C  C85  1  0.72700000  0.30540000  0.93460000  1.0 0.3898935271
C  C86  1  0.70690000  0.29930000  0.98870000  1.0 -0.0888717564
C  C87  1  0.74730000  0.23810000  0.98770000  1.0 -0.0888717564
C  C88  1  0.72870000  0.23670000  0.04730000  1.0 -0.1094785144
C  C89  1  0.67070000  0.29530000  0.10670000  1.0 -0.1500405483
C  C90  1  0.63010000  0.35670000  0.10770000  1.0 0.0498148324
C  C91  1  0.64890000  0.35790000  0.04810000  1.0 -0.1500405483
C  C92  1  0.56280000  0.42440000  0.16940000  1.0 0.0627157846
C  C93  1  0.50170000  0.46010000  0.19390000  1.0 -0.1719358672
C  C94  1  0.44250000  0.52250000  0.25150000  1.0 -0.0600572499
C  C95  1  0.44540000  0.54820000  0.28360000  1.0 -0.1719358672
C  C96  1  0.50730000  0.51150000  0.25850000  1.0 0.0704358539
C  C97  1  0.56550000  0.45010000  0.20190000  1.0 -0.1989310133
C  C98  1  0.50380000  0.54380000  0.29820000  1.0 0.0704358539
C  C99  1  0.56090000  0.52750000  0.26250000  1.0 -0.1830757307
C  C100  1  0.55980000  0.55860000  0.29540000  1.0 -0.0328497449
C  C101  1  0.50270000  0.60510000  0.36290000  1.0 -0.1094785144
C  C102  1  0.44660000  0.62040000  0.39760000  1.0 -0.1009996909
C  C103  1  0.44660000  0.59020000  0.36580000  1.0 -0.157111858
C  C104  1  0.62720000  0.52860000  0.25340000  1.0 0.5143585456
C  C105  1  0.40700000  0.77880000  0.50520000  1.0 0.4368059588
C  C106  1  0.44050000  0.78630000  0.45330000  1.0 -0.1009996909
C  C107  1  0.41050000  0.84670000  0.44970000  1.0 -0.138130677
C  C108  1  0.44780000  0.84820000  0.39020000  1.0 0.0627157846
C  C109  1  0.51520000  0.78900000  0.33460000  1.0 -0.1500405483
C  C110  1  0.54520000  0.72860000  0.33820000  1.0 -0.1175282197
C  C111  1  0.50780000  0.72720000  0.39760000  1.0 -0.0888717564
C  C112  1  0.41560000  0.91500000  0.38600000  1.0 0.0704358539
C  C113  1  0.43930000  0.91690000  0.32510000  1.0 -0.1719358672
C  C114  1  0.40330000  0.97830000  0.32430000  1.0 -0.0888717564
C  C115  1  0.34380000  0.03760000  0.38420000  1.0 -0.1345794695
C  C116  1  0.32010000  0.03570000  0.44510000  1.0 0.0627157846
C  C117  1  0.35600000  0.97440000  0.44600000  1.0 -0.2057281928
C  C118  1  0.43560000  0.97040000  0.26160000  1.0 0.4203974706
C  C119  1  0.25620000  0.10280000  0.50880000  1.0 0.0498148324
C  C120  1  0.19800000  0.14020000  0.52540000  1.0 -0.1345794695
C  C121  1  0.13610000  0.19810000  0.58630000  1.0 -0.0888717564
C  C122  1  0.13200000  0.21880000  0.63080000  1.0 -0.1009996909
C  C123  1  0.19010000  0.18130000  0.61430000  1.0 -0.1094785144
C  C124  1  0.25220000  0.12340000  0.55340000  1.0 -0.1500405483
C  C125  1  0.07950000  0.23890000  0.60510000  1.0 0.4017646266
C  C126  1  0.37720000  0.55340000  0.28660000  1.0 0.5399753404
C  C127  1  0.03300000  0.93460000  0.30540000  1.0 0.3898935271
C  C128  1  0.00510000  0.98870000  0.29930000  1.0 -0.0888717564
C  C129  1  0.02690000  0.98770000  0.23810000  1.0 -0.0888717564
C  C130  1  0.98730000  0.04730000  0.23670000  1.0 -0.1094785144
C  C131  1  0.92730000  0.10670000  0.29530000  1.0 -0.1500405483
C  C132  1  0.90550000  0.10770000  0.35670000  1.0 0.0498148324
C  C133  1  0.94510000  0.04810000  0.35790000  1.0 -0.1500405483
C  C134  1  0.84340000  0.16940000  0.42440000  1.0 0.0627157846
C  C135  1  0.84430000  0.19390000  0.46010000  1.0 -0.1719358672
C  C136  1  0.78350000  0.25150000  0.52250000  1.0 -0.0600572499
C  C137  1  0.72280000  0.28360000  0.54820000  1.0 -0.1719358672
C  C138  1  0.72270000  0.25850000  0.51150000  1.0 0.0704358539
C  C139  1  0.78250000  0.20190000  0.45010000  1.0 -0.1989310133
C  C140  1  0.65420000  0.29820000  0.54380000  1.0 0.0704358539
C  C141  1  0.64910000  0.26250000  0.52750000  1.0 -0.1830757307
C  C142  1  0.58620000  0.29540000  0.55860000  1.0 -0.0328497449
C  C143  1  0.52930000  0.36290000  0.60510000  1.0 -0.1094785144
C  C144  1  0.53540000  0.39760000  0.62040000  1.0 -0.1009996909
C  C145  1  0.59740000  0.36580000  0.59020000  1.0 -0.157111858
C  C146  1  0.59080000  0.25340000  0.52860000  1.0 0.5143585456
C  C147  1  0.30900000  0.50520000  0.77880000  1.0 0.4368059588
C  C148  1  0.31990000  0.45330000  0.78630000  1.0 -0.1009996909
C  C149  1  0.29310000  0.44970000  0.84670000  1.0 -0.138130677
C  C150  1  0.31380000  0.39020000  0.84820000  1.0 0.0627157846
C  C151  1  0.36120000  0.33460000  0.78900000  1.0 -0.1500405483
C  C152  1  0.38800000  0.33820000  0.72860000  1.0 -0.1175282197
C  C153  1  0.36740000  0.39760000  0.72720000  1.0 -0.0888717564
C  C154  1  0.28340000  0.38600000  0.91500000  1.0 0.0704358539
C  C155  1  0.31870000  0.32510000  0.91690000  1.0 -0.1719358672
C  C156  1  0.29410000  0.32430000  0.97830000  1.0 -0.0888717564
C  C157  1  0.23440000  0.38420000  0.03760000  1.0 -0.1345794695
C  C158  1  0.19910000  0.44510000  0.03570000  1.0 0.0627157846
C  C159  1  0.22360000  0.44600000  0.97440000  1.0 -0.2057281928
C  C160  1  0.33240000  0.26160000  0.97040000  1.0 0.4203974706
C  C161  1  0.13220000  0.50880000  0.10280000  1.0 0.0498148324
C  C162  1  0.13640000  0.52540000  0.14020000  1.0 -0.1345794695
C  C163  1  0.07950000  0.58630000  0.19810000  1.0 -0.0888717564
C  C164  1  0.01840000  0.63080000  0.21880000  1.0 -0.1009996909
C  C165  1  0.01430000  0.61430000  0.18130000  1.0 -0.1094785144
C  C166  1  0.07100000  0.55340000  0.12340000  1.0 -0.1500405483
C  C167  1  0.07650000  0.60510000  0.23890000  1.0 0.4017646266
C  C168  1  0.78280000  0.28660000  0.55340000  1.0 0.5399753404
O  O1  1  0.99410000  0.47730000  0.14670000  1.0 -0.4617066728
O  O2  1  0.71550000  0.86750000  0.41050000  1.0 -0.5305865454
O  O3  1  0.68450000  0.62570000  0.71710000  1.0 -0.5639941739
O  O4  1  0.41290000  0.90550000  0.99790000  1.0 -0.5471897024
O  O5  1  0.52380000  0.82680000  0.90740000  1.0 -0.5366521525
O  O6  1  0.32570000  0.76290000  0.86970000  1.0 -0.3677280518
O  O7  1  0.21830000  0.85490000  0.93810000  1.0 -0.6038821834
O  O8  1  0.03240000  0.17100000  0.11280000  1.0 -0.6387660103
O  O9  1  0.95100000  0.22640000  0.22760000  1.0 -0.4669155749
O  O10  1  0.73640000  0.47940000  0.31460000  1.0 -0.8610553788
O  O11  1  0.72720000  0.60960000  0.17180000  1.0 -0.8166278797
O  O12  1  0.80310000  0.61910000  0.16490000  1.0 -0.9422829854
O  O13  1  0.93790000  0.33470000  0.97170000  1.0 -0.8610553788
O  O14  1  0.80770000  0.48650000  0.30950000  1.0 -0.8314421149
O  O15  1  0.92180000  0.50640000  0.12560000  1.0 -0.9307253855
O  O16  1  0.97630000  0.30830000  0.15430000  1.0 -0.9067995695
O  O17  1  0.93630000  0.26790000  0.05550000  1.0 -0.8913321542
O  O18  1  0.08220000  0.26960000  0.03300000  1.0 -0.7696683368
O  O19  1  0.85750000  0.36150000  0.27230000  1.0 -0.9307253855
O  O20  1  0.95870000  0.46290000  0.00710000  1.0 -0.7696683368
O  O21  1  0.76970000  0.42970000  0.21090000  1.0 -0.9422829854
O  O22  1  0.02560000  0.31620000  0.95380000  1.0 -1.0282446789
O  O23  1  0.92850000  0.43330000  0.19670000  1.0 -0.9422829854
O  O24  1  0.07830000  0.33510000  0.95690000  1.0 -0.8610553788
O  O25  1  0.89490000  0.38170000  0.08730000  1.0 -0.8776492144
O  O26  1  0.02900000  0.25400000  0.01860000  1.0 -0.9983262616
O  O27  1  0.03940000  0.38260000  0.07340000  1.0 -0.8987080772
O  O28  1  0.85380000  0.43020000  0.19280000  1.0 -0.8717220656
O  O29  1  0.71850000  0.56150000  0.26070000  1.0 -0.9913113015
O  O30  1  0.80600000  0.38100000  0.11300000  1.0 -0.8519004183
O  O31  1  0.76020000  0.50300000  0.13900000  1.0 -0.9422829854
O  O32  1  0.24630000  0.73430000  0.70870000  1.0 -0.8913321542
O  O33  1  0.06000000  0.83060000  0.93080000  1.0 -0.9307253855
O  O34  1  0.16470000  0.69950000  0.89450000  1.0 -0.9067995695
O  O35  1  0.17210000  0.76970000  0.68670000  1.0 -0.9307253855
O  O36  1  0.07000000  0.91320000  0.88960000  1.0 -0.9771689522
O  O37  1  0.40970000  0.58170000  0.70130000  1.0 -0.8314421149
O  O38  1  0.36700000  0.59420000  0.64860000  1.0 -0.9422829854
O  O39  1  0.13010000  0.80110000  0.95690000  1.0 -0.8776492144
O  O40  1  0.21830000  0.66270000  0.77270000  1.0 -0.8913321542
O  O41  1  0.25380000  0.73840000  0.87120000  1.0 -0.8987080772
O  O42  1  0.29190000  0.63070000  0.80210000  1.0 -0.9498472559
O  O43  1  0.78990000  0.56170000  0.24930000  1.0 -1.0158383297
O  O44  1  0.11430000  0.79310000  0.80750000  1.0 -0.8519004183
O  O45  1  0.28310000  0.63270000  0.64430000  1.0 -0.8987080772
O  O46  1  0.18990000  0.76730000  0.82850000  1.0 -0.8776492144
O  O47  1  0.85240000  0.49560000  0.11960000  1.0 -0.9067995695
O  O48  1  0.96170000  0.38470000  0.08170000  1.0 -0.8717220656
O  O49  1  0.89950000  0.30310000  0.16110000  1.0 -0.9498472559
O  O50  1  0.88490000  0.45170000  0.00230000  1.0 -0.8717220656
O  O51  1  0.77300000  0.57140000  0.60860000  1.0 -0.4275909113
O  O52  1  0.62970000  0.92270000  0.51930000  1.0 -0.5240934389
O  O53  1  0.89070000  0.55490000  0.23510000  1.0 -0.4895036118
O  O54  1  0.83970000  0.57670000  0.05930000  1.0 -0.8519004183
O  O55  1  0.38190000  0.14670000  0.47730000  1.0 -0.4617066728
O  O56  1  0.00650000  0.41050000  0.86750000  1.0 -0.5305865454
O  O57  1  0.97270000  0.71710000  0.62570000  1.0 -0.5639941739
O  O58  1  0.68370000  0.99790000  0.90550000  1.0 -0.5471897024
O  O59  1  0.74200000  0.90740000  0.82680000  1.0 -0.5366521525
O  O60  1  0.04170000  0.86970000  0.76290000  1.0 -0.3677280518
O  O61  1  0.98870000  0.93810000  0.85490000  1.0 -0.6038821834
O  O62  1  0.68380000  0.11280000  0.17100000  1.0 -0.6387660103
O  O63  1  0.59500000  0.22760000  0.22640000  1.0 -0.4669155749
O  O64  1  0.46960000  0.31460000  0.47940000  1.0 -0.8610553788
O  O65  1  0.49140000  0.17180000  0.60960000  1.0 -0.8166278797
O  O66  1  0.41290000  0.16490000  0.61910000  1.0 -0.9422829854
O  O67  1  0.75570000  0.97170000  0.33470000  1.0 -0.8610553788
O  O68  1  0.39630000  0.30950000  0.48650000  1.0 -0.8314421149
O  O69  1  0.44620000  0.12560000  0.50640000  1.0 -0.9307253855
O  O70  1  0.56110000  0.15430000  0.30830000  1.0 -0.9067995695
O  O71  1  0.74030000  0.05550000  0.26790000  1.0 -0.8913321542
O  O72  1  0.61520000  0.03300000  0.26960000  1.0 -0.7773211645
O  O73  1  0.50870000  0.27230000  0.36150000  1.0 -0.9307253855
O  O74  1  0.57130000  0.00710000  0.46290000  1.0 -0.7696683368
O  O75  1  0.58970000  0.21090000  0.42970000  1.0 -0.9422829854
O  O76  1  0.70440000  0.95380000  0.31620000  1.0 -1.0282446789
O  O77  1  0.44150000  0.19670000  0.43330000  1.0 -0.9422829854
O  O78  1  0.62970000  0.95690000  0.33510000  1.0 -0.8610553788
O  O79  1  0.63610000  0.08730000  0.38170000  1.0 -0.8776492144
O  O80  1  0.69840000  0.01860000  0.25400000  1.0 -0.9983262616
O  O81  1  0.50460000  0.07340000  0.38260000  1.0 -0.8987080772
O  O82  1  0.52320000  0.19280000  0.43020000  1.0 -0.8717220656
O  O83  1  0.45930000  0.26070000  0.56150000  1.0 -0.9913113015
O  O84  1  0.70000000  0.11300000  0.38100000  1.0 -0.8519004183
O  O85  1  0.59780000  0.13900000  0.50300000  1.0 -0.9422829854
O  O86  1  0.31070000  0.70870000  0.73430000  1.0 -0.8913321542
O  O87  1  0.17860000  0.93080000  0.83060000  1.0 -0.9307253855
O  O88  1  0.24130000  0.89450000  0.69950000  1.0 -0.9067995695
O  O89  1  0.37150000  0.68670000  0.76970000  1.0 -0.9307253855
O  O90  1  0.12720000  0.88960000  0.91320000  1.0 -0.9771689522
O  O91  1  0.30730000  0.70130000  0.58170000  1.0 -0.8314421149
O  O92  1  0.39020000  0.64860000  0.59420000  1.0 -0.9422829854
O  O93  1  0.11190000  0.95690000  0.80110000  1.0 -0.8776492144
O  O94  1  0.34630000  0.77270000  0.66270000  1.0 -0.8913321542
O  O95  1  0.13660000  0.87120000  0.73840000  1.0 -0.8987080772
O  O96  1  0.27530000  0.80210000  0.63070000  1.0 -0.9498472559
O  O97  1  0.39910000  0.24930000  0.56170000  1.0 -1.0158383297
O  O98  1  0.28510000  0.80750000  0.79310000  1.0 -0.8519004183
O  O99  1  0.43990000  0.64430000  0.63270000  1.0 -0.8987080772
O  O100  1  0.21430000  0.82850000  0.76730000  1.0 -0.8776492144
O  O101  1  0.53240000  0.11960000  0.49560000  1.0 -0.9067995695
O  O102  1  0.57190000  0.08170000  0.38470000  1.0 -0.8717220656
O  O103  1  0.63630000  0.16110000  0.30310000  1.0 -0.9498472559
O  O104  1  0.66110000  0.00230000  0.45170000  1.0 -0.8717220656
O  O105  1  0.04700000  0.60860000  0.57140000  1.0 -0.4275909113
O  O106  1  0.92830000  0.51930000  0.92270000  1.0 -0.5240934389
O  O107  1  0.31930000  0.23510000  0.55490000  1.0 -0.4895036118
O  O108  1  0.52430000  0.05930000  0.57670000  1.0 -0.8519004183
O  O109  1  0.77270000  0.25590000  0.86810000  1.0 -0.4617066728
O  O110  1  0.38250000  0.53450000  0.24350000  1.0 -0.5305865454
O  O111  1  0.62430000  0.56550000  0.27730000  1.0 -0.5639941739
O  O112  1  0.34450000  0.83710000  0.56630000  1.0 -0.5471897024
O  O113  1  0.42320000  0.72620000  0.50800000  1.0 -0.5366521525
O  O114  1  0.48710000  0.92430000  0.20830000  1.0 -0.3677280518
O  O115  1  0.39510000  0.03170000  0.26130000  1.0 -0.6038821834
O  O116  1  0.07900000  0.21760000  0.56620000  1.0 -0.6387660103
O  O117  1  0.02360000  0.29900000  0.65500000  1.0 -0.4669155749
O  O118  1  0.77060000  0.51360000  0.78040000  1.0 -0.8610553788
O  O119  1  0.64040000  0.52280000  0.75860000  1.0 -0.8166278797
O  O120  1  0.63090000  0.44690000  0.83710000  1.0 -0.9422829854
O  O121  1  0.91530000  0.31210000  0.49430000  1.0 -0.8610553788
O  O122  1  0.76350000  0.44230000  0.85370000  1.0 -0.8314421149
O  O123  1  0.74360000  0.32820000  0.80380000  1.0 -0.9307253855
O  O124  1  0.94170000  0.27370000  0.68890000  1.0 -0.9067995695
O  O125  1  0.98210000  0.31370000  0.50970000  1.0 -0.8913321542
O  O126  1  0.98040000  0.16780000  0.63480000  1.0 -0.7696683368
O  O127  1  0.88850000  0.39250000  0.74130000  1.0 -0.9307253855
O  O128  1  0.78710000  0.29130000  0.67870000  1.0 -0.7696683368
O  O129  1  0.82030000  0.48030000  0.66030000  1.0 -0.9422829854
O  O130  1  0.93380000  0.22440000  0.54560000  1.0 -1.0282446789
O  O131  1  0.81670000  0.32150000  0.80850000  1.0 -0.9422829854
O  O132  1  0.91490000  0.17170000  0.62030000  1.0 -0.8610553788
O  O133  1  0.86830000  0.35510000  0.61390000  1.0 -0.8776492144
O  O134  1  0.99600000  0.22100000  0.55160000  1.0 -0.9983262616
O  O135  1  0.86740000  0.21060000  0.74540000  1.0 -0.8987080772
O  O136  1  0.81980000  0.39620000  0.72680000  1.0 -0.8717220656
O  O137  1  0.68850000  0.53150000  0.79070000  1.0 -0.9913113015
O  O138  1  0.86900000  0.44400000  0.55000000  1.0 -0.8519004183
O  O139  1  0.74700000  0.48980000  0.65220000  1.0 -0.9422829854
O  O140  1  0.51570000  0.00370000  0.93930000  1.0 -0.8913321542
O  O141  1  0.41940000  0.19000000  0.07140000  1.0 -0.9307253855
O  O142  1  0.55050000  0.08530000  0.00870000  1.0 -0.9067995695
O  O143  1  0.48030000  0.07790000  0.87850000  1.0 -0.9307253855
O  O144  1  0.33680000  0.18000000  0.12280000  1.0 -0.9771689522
O  O145  1  0.66830000  0.84030000  0.94270000  1.0 -0.8314421149
O  O146  1  0.65580000  0.88300000  0.85980000  1.0 -0.9422829854
O  O147  1  0.44890000  0.11990000  0.13810000  1.0 -0.8776492144
O  O148  1  0.58730000  0.03170000  0.90370000  1.0 -0.8913321542
O  O149  1  0.51160000  0.99620000  0.11340000  1.0 -0.8987080772
O  O150  1  0.61930000  0.95810000  0.97470000  1.0 -0.9498472559
O  O151  1  0.68830000  0.46010000  0.85090000  1.0 -1.0158383297
O  O152  1  0.45690000  0.13570000  0.96490000  1.0 -0.8519004183
O  O153  1  0.61730000  0.96690000  0.81010000  1.0 -0.8987080772
O  O154  1  0.48270000  0.06010000  0.03570000  1.0 -0.8776492144
O  O155  1  0.75440000  0.39760000  0.71760000  1.0 -0.9067995695
O  O156  1  0.86530000  0.28830000  0.67810000  1.0 -0.8717220656
O  O157  1  0.94690000  0.35050000  0.61370000  1.0 -0.9498472559
O  O158  1  0.79830000  0.36510000  0.58890000  1.0 -0.8717220656
O  O159  1  0.67860000  0.47700000  0.20300000  1.0 -0.4275909113
O  O160  1  0.32730000  0.62030000  0.32170000  1.0 -0.5240934389
O  O161  1  0.69510000  0.35930000  0.93070000  1.0 -0.4895036118
O  O162  1  0.67330000  0.41030000  0.72570000  1.0 -0.8519004183
O  O163  1  0.10330000  0.86810000  0.25590000  1.0 -0.4617066728
O  O164  1  0.83950000  0.24350000  0.53450000  1.0 -0.5305865454
O  O165  1  0.53290000  0.27730000  0.56550000  1.0 -0.5639941739
O  O166  1  0.25210000  0.56630000  0.83710000  1.0 -0.5471897024
O  O167  1  0.34260000  0.50800000  0.72620000  1.0 -0.5366521525
O  O168  1  0.38030000  0.20830000  0.92430000  1.0 -0.3677280518
O  O169  1  0.31190000  0.26130000  0.03170000  1.0 -0.6038821834
O  O170  1  0.13720000  0.56620000  0.21760000  1.0 -0.6387660103
O  O171  1  0.02240000  0.65500000  0.29900000  1.0 -0.4669155749
O  O172  1  0.93540000  0.78040000  0.51360000  1.0 -0.8610553788
O  O173  1  0.07820000  0.75860000  0.52280000  1.0 -0.8166278797
O  O174  1  0.08510000  0.83710000  0.44690000  1.0 -0.9422829854
O  O175  1  0.27830000  0.49430000  0.31210000  1.0 -0.8610553788
O  O176  1  0.94050000  0.85370000  0.44230000  1.0 -0.8314421149
O  O177  1  0.12440000  0.80380000  0.32820000  1.0 -0.9307253855
O  O178  1  0.09570000  0.68890000  0.27370000  1.0 -0.9067995695
O  O179  1  0.19450000  0.50970000  0.31370000  1.0 -0.8913321542
O  O180  1  0.21700000  0.63480000  0.16780000  1.0 -0.7696683368
O  O181  1  0.97770000  0.74130000  0.39250000  1.0 -0.9307253855
O  O182  1  0.24290000  0.67870000  0.29130000  1.0 -0.7696683368
O  O183  1  0.03910000  0.66030000  0.48030000  1.0 -0.9422829854
O  O184  1  0.29620000  0.54560000  0.22440000  1.0 -1.0282446789
O  O185  1  0.05330000  0.80850000  0.32150000  1.0 -0.9422829854
O  O186  1  0.29310000  0.62030000  0.17170000  1.0 -0.8610553788
O  O187  1  0.16270000  0.61390000  0.35510000  1.0 -0.8717220656
O  O188  1  0.23140000  0.55160000  0.22100000  1.0 -0.9983262616
O  O189  1  0.17660000  0.74540000  0.21060000  1.0 -0.8913321542
O  O190  1  0.05720000  0.72680000  0.39620000  1.0 -0.8717220656
O  O191  1  0.98930000  0.79070000  0.53150000  1.0 -0.9913113015
O  O192  1  0.13700000  0.55000000  0.44400000  1.0 -0.8519004183
O  O193  1  0.11100000  0.65220000  0.48980000  1.0 -0.9422829854
O  O194  1  0.54130000  0.93930000  0.00370000  1.0 -0.8913321542
O  O195  1  0.31920000  0.07140000  0.19000000  1.0 -0.9307253855
O  O196  1  0.35550000  0.00870000  0.08530000  1.0 -0.9067995695
O  O197  1  0.56330000  0.87850000  0.07790000  1.0 -0.9307253855
O  O198  1  0.36040000  0.12280000  0.18000000  1.0 -0.9771689522
O  O199  1  0.54870000  0.94270000  0.84030000  1.0 -0.8314421149
O  O200  1  0.60140000  0.85980000  0.88300000  1.0 -0.9422829854
O  O201  1  0.29310000  0.13810000  0.11990000  1.0 -0.8776492144
O  O202  1  0.47730000  0.90370000  0.03170000  1.0 -0.8913321542
O  O203  1  0.37880000  0.11340000  0.99620000  1.0 -0.8987080772
O  O204  1  0.44790000  0.97470000  0.95810000  1.0 -0.9498472559
O  O205  1  0.00070000  0.85090000  0.46010000  1.0 -1.0158383297
O  O206  1  0.44250000  0.96490000  0.13570000  1.0 -0.8519004183
O  O207  1  0.60570000  0.81010000  0.96690000  1.0 -0.8987080772
O  O208  1  0.42150000  0.03570000  0.06010000  1.0 -0.8776492144
O  O209  1  0.13040000  0.71760000  0.39760000  1.0 -0.9067995695
O  O210  1  0.16830000  0.67810000  0.28830000  1.0 -0.8717220656
O  O211  1  0.08890000  0.61370000  0.35050000  1.0 -0.9498472559
O  O212  1  0.24770000  0.58890000  0.36510000  1.0 -0.8717220656
O  O213  1  0.64140000  0.20300000  0.47700000  1.0 -0.4275909113
O  O214  1  0.73070000  0.32170000  0.62030000  1.0 -0.5240934389
O  O215  1  0.01490000  0.93070000  0.35930000  1.0 -0.4895036118
O  O216  1  0.19070000  0.72570000  0.41030000  1.0 -0.8519004183
