# DDEC6 charges by PACMAN v1.1 (https://github.com/mtap-research/PACMAN-charge/)
data_QEFLIA_ASR_pacman
_symmetry_space_group_name_H-M   'P 1'
_cell_length_a   17.45020000
_cell_length_b   17.45020000
_cell_length_c   48.08830000
_cell_angle_alpha   90.00000000
_cell_angle_beta   90.00000000
_cell_angle_gamma   120.00000000
_symmetry_Int_Tables_number   1
_chemical_formula_structural   Zn11B8H131C144(N21O8)3
_chemical_formula_sum   'Zn22 B16 H262 C288 N126 O48'
_cell_volume   12681.50723266
_cell_formula_units_Z   2
loop_
 _symmetry_equiv_pos_site_id
 _symmetry_equiv_pos_as_xyz
  1  'x, y, z'
loop_
 _atom_site_type_symbol
 _atom_site_label
 _atom_site_symmetry_multiplicity
 _atom_site_fract_x
 _atom_site_fract_y
 _atom_site_fract_z
 _atom_site_occupancy
 _atom_site_charge
Zn  Zn1  1  0.69263000  0.81709000  0.40307000  1.0 0.7093674929
Zn  Zn2  1  0.12446000  0.30737000  0.40307000  1.0 0.7093674929
Zn  Zn3  1  0.18291000  0.87554000  0.40307000  1.0 0.7093674929
Zn  Zn4  1  0.69263000  0.81709000  0.09693000  1.0 0.7093674929
Zn  Zn5  1  0.12446000  0.30737000  0.09693000  1.0 0.7093674929
Zn  Zn6  1  0.18291000  0.87554000  0.09693000  1.0 0.7093674929
Zn  Zn7  1  0.87554000  0.18291000  0.59693000  1.0 0.7093674929
Zn  Zn8  1  0.81709000  0.69263000  0.59693000  1.0 0.7093674929
Zn  Zn9  1  0.30737000  0.12446000  0.59693000  1.0 0.7093674929
Zn  Zn10  1  0.87554000  0.18291000  0.90307000  1.0 0.7093674929
Zn  Zn11  1  0.81709000  0.69263000  0.90307000  1.0 0.7093674929
Zn  Zn12  1  0.30737000  0.12446000  0.90307000  1.0 0.7093674929
Zn  Zn13  1  0.70921000  0.74170000  0.25000000  1.0 0.7441053182
Zn  Zn14  1  0.03249000  0.29079000  0.25000000  1.0 0.7441053182
Zn  Zn15  1  0.25830000  0.96751000  0.25000000  1.0 0.7441053182
Zn  Zn16  1  0.96751000  0.25830000  0.75000000  1.0 0.7441053182
Zn  Zn17  1  0.74170000  0.70921000  0.75000000  1.0 0.7441053182
Zn  Zn18  1  0.29079000  0.03249000  0.75000000  1.0 0.7441053182
Zn  Zn19  1  0.66666667  0.33333333  0.34540000  1.0 0.5423812881
Zn  Zn20  1  0.66666667  0.33333333  0.15460000  1.0 0.5423812881
Zn  Zn21  1  0.33333333  0.66666667  0.65460000  1.0 0.5458357126
Zn  Zn22  1  0.33333333  0.66666667  0.84540000  1.0 0.5458357126
B  B1  1  0.87530000  0.69720000  0.34124000  1.0 0.5291914632
B  B2  1  0.82190000  0.12470000  0.34124000  1.0 0.5291914632
B  B3  1  0.30280000  0.17810000  0.34124000  1.0 0.5291914632
B  B4  1  0.87530000  0.69720000  0.15876000  1.0 0.5291914632
B  B5  1  0.82190000  0.12470000  0.15876000  1.0 0.5291914632
B  B6  1  0.30280000  0.17810000  0.15876000  1.0 0.5291914632
B  B7  1  0.17810000  0.30280000  0.65876000  1.0 0.5291914632
B  B8  1  0.69720000  0.87530000  0.65876000  1.0 0.5291914632
B  B9  1  0.12470000  0.82190000  0.65876000  1.0 0.5291914632
B  B10  1  0.17810000  0.30280000  0.84124000  1.0 0.5291914632
B  B11  1  0.69720000  0.87530000  0.84124000  1.0 0.5291914632
B  B12  1  0.12470000  0.82190000  0.84124000  1.0 0.5291914632
B  B13  1  0.33333333  0.66666667  0.42560000  1.0 0.3365856126
B  B14  1  0.33333333  0.66666667  0.07440000  1.0 0.3365856126
B  B15  1  0.66666667  0.33333333  0.57440000  1.0 0.3365856126
B  B16  1  0.66666667  0.33333333  0.92560000  1.0 0.3365856126
H  H1  1  0.95116000  0.88004000  0.32110000  1.0 0.1201064257
H  H2  1  0.72786000  0.53149000  0.35634000  1.0 0.0988027683
H  H3  1  0.75344000  0.64422000  0.29690000  1.0 0.0988027683
H  H4  1  0.78503000  0.78753000  0.35282000  1.0 0.0988027683
H  H5  1  0.86950000  0.90153000  0.28309000  1.0 0.1201064257
H  H6  1  0.83501000  0.62709000  0.39866000  1.0 0.1201064257
H  H7  1  0.98631000  0.76441000  0.38841000  1.0 0.1107305252
H  H8  1  0.03616000  0.76601000  0.30755000  1.0 0.1201064257
H  H9  1  0.75303000  0.67692000  0.42730000  1.0 0.1331419718
H  H10  1  0.17802000  0.84386000  0.33254000  1.0 0.1201064257
H  H11  1  0.83708000  0.05287000  0.45522000  1.0 0.1107305252
H  H12  1  0.93947000  0.60005000  0.30868000  1.0 0.1201064257
H  H13  1  0.83397000  0.43623000  0.30453000  1.0 0.1201064257
H  H14  1  0.53006000  0.85827000  0.43797000  1.0 0.1520513833
H  H15  1  0.57120000  0.81008000  0.45580000  1.0 0.1560951872
H  H16  1  0.46758000  0.77651000  0.45762000  1.0 0.1434900627
H  H17  1  0.88760000  0.15291000  0.49220000  1.0 0.1201064257
H  H18  1  0.38494000  0.60354000  0.37860000  1.0 0.1107305252
H  H19  1  0.54239000  0.65225000  0.37087000  1.0 0.1201064257
H  H20  1  0.92888000  0.04884000  0.32110000  1.0 0.1201064257
H  H21  1  0.80363000  0.27214000  0.35634000  1.0 0.0988027683
H  H22  1  0.89078000  0.24656000  0.29690000  1.0 0.0988027683
H  H23  1  0.00250000  0.21497000  0.35282000  1.0 0.0988027683
H  H24  1  0.03203000  0.13050000  0.28309000  1.0 0.1201064257
H  H25  1  0.79208000  0.16499000  0.39866000  1.0 0.1201064257
H  H26  1  0.77810000  0.01369000  0.38841000  1.0 0.1107305252
H  H27  1  0.72985000  0.96384000  0.30755000  1.0 0.1201064257
H  H28  1  0.92389000  0.24697000  0.42730000  1.0 0.1331419718
H  H29  1  0.66584000  0.82198000  0.33254000  1.0 0.1201064257
H  H30  1  0.21579000  0.16292000  0.45522000  1.0 0.1107305252
H  H31  1  0.66058000  0.06053000  0.30868000  1.0 0.1201064257
H  H32  1  0.60226000  0.16603000  0.30453000  1.0 0.1201064257
H  H33  1  0.32821000  0.46994000  0.43797000  1.0 0.1520513833
H  H34  1  0.23888000  0.42880000  0.45580000  1.0 0.1560951872
H  H35  1  0.30893000  0.53242000  0.45762000  1.0 0.1434900627
H  H36  1  0.26531000  0.11240000  0.49220000  1.0 0.1201064257
H  H37  1  0.21860000  0.61506000  0.37860000  1.0 0.1107305252
H  H38  1  0.10986000  0.45761000  0.37087000  1.0 0.1201064257
H  H39  1  0.11996000  0.07112000  0.32110000  1.0 0.1201064257
H  H40  1  0.46851000  0.19637000  0.35634000  1.0 0.0988027683
H  H41  1  0.35578000  0.10922000  0.29690000  1.0 0.0988027683
H  H42  1  0.21247000  0.99750000  0.35282000  1.0 0.0988027683
H  H43  1  0.09847000  0.96797000  0.28309000  1.0 0.1201064257
H  H44  1  0.37291000  0.20792000  0.39866000  1.0 0.1201064257
H  H45  1  0.23559000  0.22190000  0.38841000  1.0 0.1107305252
H  H46  1  0.23399000  0.27015000  0.30755000  1.0 0.1201064257
H  H47  1  0.32308000  0.07611000  0.42730000  1.0 0.1331419718
H  H48  1  0.15614000  0.33416000  0.33254000  1.0 0.1201064257
H  H49  1  0.94713000  0.78421000  0.45522000  1.0 0.1107305252
H  H50  1  0.39995000  0.33942000  0.30868000  1.0 0.1201064257
H  H51  1  0.56377000  0.39774000  0.30453000  1.0 0.1201064257
H  H52  1  0.14173000  0.67179000  0.43797000  1.0 0.1520513833
H  H53  1  0.18992000  0.76112000  0.45580000  1.0 0.1560951872
H  H54  1  0.22349000  0.69107000  0.45762000  1.0 0.1434900627
H  H55  1  0.84709000  0.73469000  0.49220000  1.0 0.1201064257
H  H56  1  0.39646000  0.78140000  0.37860000  1.0 0.1107305252
H  H57  1  0.34775000  0.89014000  0.37087000  1.0 0.1201064257
H  H58  1  0.95116000  0.88004000  0.17890000  1.0 0.1201064257
H  H59  1  0.72786000  0.53149000  0.14366000  1.0 0.0988027683
H  H60  1  0.75344000  0.64422000  0.20310000  1.0 0.0988027683
H  H61  1  0.78503000  0.78753000  0.14718000  1.0 0.0988027683
H  H62  1  0.86950000  0.90153000  0.21691000  1.0 0.1201064257
H  H63  1  0.83501000  0.62709000  0.10134000  1.0 0.1201064257
H  H64  1  0.98631000  0.76441000  0.11159000  1.0 0.1107305252
H  H65  1  0.03616000  0.76601000  0.19245000  1.0 0.1201064257
H  H66  1  0.75303000  0.67692000  0.07270000  1.0 0.1331419718
H  H67  1  0.17802000  0.84386000  0.16746000  1.0 0.1201064257
H  H68  1  0.83708000  0.05287000  0.04478000  1.0 0.1107305252
H  H69  1  0.93947000  0.60005000  0.19132000  1.0 0.1201064257
H  H70  1  0.83397000  0.43623000  0.19547000  1.0 0.1201064257
H  H71  1  0.53006000  0.85827000  0.06203000  1.0 0.1520513833
H  H72  1  0.57120000  0.81008000  0.04420000  1.0 0.1560951872
H  H73  1  0.46758000  0.77651000  0.04238000  1.0 0.1434900627
H  H74  1  0.88760000  0.15291000  0.00780000  1.0 0.1201064257
H  H75  1  0.38494000  0.60354000  0.12140000  1.0 0.1107305252
H  H76  1  0.54239000  0.65225000  0.12913000  1.0 0.1201064257
H  H77  1  0.92888000  0.04884000  0.17890000  1.0 0.1201064257
H  H78  1  0.80363000  0.27214000  0.14366000  1.0 0.0988027683
H  H79  1  0.89078000  0.24656000  0.20310000  1.0 0.0988027683
H  H80  1  0.00250000  0.21497000  0.14718000  1.0 0.0988027683
H  H81  1  0.03203000  0.13050000  0.21691000  1.0 0.1201064257
H  H82  1  0.79208000  0.16499000  0.10134000  1.0 0.1201064257
H  H83  1  0.77810000  0.01369000  0.11159000  1.0 0.1107305252
H  H84  1  0.72985000  0.96384000  0.19245000  1.0 0.1201064257
H  H85  1  0.92389000  0.24697000  0.07270000  1.0 0.1331419718
H  H86  1  0.66584000  0.82198000  0.16746000  1.0 0.1201064257
H  H87  1  0.21579000  0.16292000  0.04478000  1.0 0.1107305252
H  H88  1  0.66058000  0.06053000  0.19132000  1.0 0.1201064257
H  H89  1  0.60226000  0.16603000  0.19547000  1.0 0.1201064257
H  H90  1  0.32821000  0.46994000  0.06203000  1.0 0.1520513833
H  H91  1  0.23888000  0.42880000  0.04420000  1.0 0.1560951872
H  H92  1  0.30893000  0.53242000  0.04238000  1.0 0.1434900627
H  H93  1  0.26531000  0.11240000  0.00780000  1.0 0.1201064257
H  H94  1  0.21860000  0.61506000  0.12140000  1.0 0.1107305252
H  H95  1  0.10986000  0.45761000  0.12913000  1.0 0.1201064257
H  H96  1  0.11996000  0.07112000  0.17890000  1.0 0.1201064257
H  H97  1  0.46851000  0.19637000  0.14366000  1.0 0.0988027683
H  H98  1  0.35578000  0.10922000  0.20310000  1.0 0.0988027683
H  H99  1  0.21247000  0.99750000  0.14718000  1.0 0.0988027683
H  H100  1  0.09847000  0.96797000  0.21691000  1.0 0.1201064257
H  H101  1  0.37291000  0.20792000  0.10134000  1.0 0.1201064257
H  H102  1  0.23559000  0.22190000  0.11159000  1.0 0.1107305252
H  H103  1  0.23399000  0.27015000  0.19245000  1.0 0.1201064257
H  H104  1  0.32308000  0.07611000  0.07270000  1.0 0.1331419718
H  H105  1  0.15614000  0.33416000  0.16746000  1.0 0.1201064257
H  H106  1  0.94713000  0.78421000  0.04478000  1.0 0.1107305252
H  H107  1  0.39995000  0.33942000  0.19132000  1.0 0.1201064257
H  H108  1  0.56377000  0.39774000  0.19547000  1.0 0.1201064257
H  H109  1  0.14173000  0.67179000  0.06203000  1.0 0.1520513833
H  H110  1  0.18992000  0.76112000  0.04420000  1.0 0.1560951872
H  H111  1  0.22349000  0.69107000  0.04238000  1.0 0.1434900627
H  H112  1  0.84709000  0.73469000  0.00780000  1.0 0.1201064257
H  H113  1  0.39646000  0.78140000  0.12140000  1.0 0.1107305252
H  H114  1  0.34775000  0.89014000  0.12913000  1.0 0.1201064257
H  H115  1  0.07112000  0.11996000  0.67890000  1.0 0.1201064257
H  H116  1  0.19637000  0.46851000  0.64366000  1.0 0.0988027683
H  H117  1  0.10922000  0.35578000  0.70310000  1.0 0.0988027683
H  H118  1  0.99750000  0.21247000  0.64718000  1.0 0.0988027683
H  H119  1  0.96797000  0.09847000  0.71691000  1.0 0.1201064257
H  H120  1  0.20792000  0.37291000  0.60134000  1.0 0.1201064257
H  H121  1  0.22190000  0.23559000  0.61159000  1.0 0.1107305252
H  H122  1  0.27015000  0.23399000  0.69245000  1.0 0.1201064257
H  H123  1  0.07611000  0.32308000  0.57270000  1.0 0.1331419718
H  H124  1  0.33416000  0.15614000  0.66746000  1.0 0.1201064257
H  H125  1  0.78421000  0.94713000  0.54478000  1.0 0.1107305252
H  H126  1  0.33942000  0.39995000  0.69132000  1.0 0.1201064257
H  H127  1  0.39774000  0.56377000  0.69547000  1.0 0.1201064257
H  H128  1  0.67179000  0.14173000  0.56203000  1.0 0.1520513833
H  H129  1  0.76112000  0.18992000  0.54420000  1.0 0.1560951872
H  H130  1  0.69107000  0.22349000  0.54238000  1.0 0.1434900627
H  H131  1  0.73469000  0.84709000  0.50780000  1.0 0.1201064257
H  H132  1  0.78140000  0.39646000  0.62140000  1.0 0.1107305252
H  H133  1  0.89014000  0.34775000  0.62913000  1.0 0.1201064257
H  H134  1  0.88004000  0.95116000  0.67890000  1.0 0.1201064257
H  H135  1  0.53149000  0.72786000  0.64366000  1.0 0.0988027683
H  H136  1  0.64422000  0.75344000  0.70310000  1.0 0.0988027683
H  H137  1  0.78753000  0.78503000  0.64718000  1.0 0.0988027683
H  H138  1  0.90153000  0.86950000  0.71691000  1.0 0.1201064257
H  H139  1  0.62709000  0.83501000  0.60134000  1.0 0.1201064257
H  H140  1  0.76441000  0.98631000  0.61159000  1.0 0.1107305252
H  H141  1  0.76601000  0.03616000  0.69245000  1.0 0.1201064257
H  H142  1  0.67692000  0.75303000  0.57270000  1.0 0.1331419718
H  H143  1  0.84386000  0.17802000  0.66746000  1.0 0.1201064257
H  H144  1  0.05287000  0.83708000  0.54478000  1.0 0.1107305252
H  H145  1  0.60005000  0.93947000  0.69132000  1.0 0.1201064257
H  H146  1  0.43623000  0.83397000  0.69547000  1.0 0.1201064257
H  H147  1  0.85827000  0.53006000  0.56203000  1.0 0.1520513833
H  H148  1  0.81008000  0.57120000  0.54420000  1.0 0.1560951872
H  H149  1  0.77651000  0.46758000  0.54238000  1.0 0.1434900627
H  H150  1  0.15291000  0.88760000  0.50780000  1.0 0.1201064257
H  H151  1  0.60354000  0.38494000  0.62140000  1.0 0.1107305252
H  H152  1  0.65225000  0.54239000  0.62913000  1.0 0.1201064257
H  H153  1  0.04884000  0.92888000  0.67890000  1.0 0.1201064257
H  H154  1  0.27214000  0.80363000  0.64366000  1.0 0.0988027683
H  H155  1  0.24656000  0.89078000  0.70310000  1.0 0.0988027683
H  H156  1  0.21497000  0.00250000  0.64718000  1.0 0.0988027683
H  H157  1  0.13050000  0.03203000  0.71691000  1.0 0.1201064257
H  H158  1  0.16499000  0.79208000  0.60134000  1.0 0.1201064257
H  H159  1  0.01369000  0.77810000  0.61159000  1.0 0.1107305252
H  H160  1  0.96384000  0.72985000  0.69245000  1.0 0.1201064257
H  H161  1  0.24697000  0.92389000  0.57270000  1.0 0.1331419718
H  H162  1  0.82198000  0.66584000  0.66746000  1.0 0.1201064257
H  H163  1  0.16292000  0.21579000  0.54478000  1.0 0.1107305252
H  H164  1  0.06053000  0.66058000  0.69132000  1.0 0.1201064257
H  H165  1  0.16603000  0.60226000  0.69547000  1.0 0.1201064257
H  H166  1  0.46994000  0.32821000  0.56203000  1.0 0.1520513833
H  H167  1  0.42880000  0.23888000  0.54420000  1.0 0.1560951872
H  H168  1  0.53242000  0.30893000  0.54238000  1.0 0.1434900627
H  H169  1  0.11240000  0.26531000  0.50780000  1.0 0.1201064257
H  H170  1  0.61506000  0.21860000  0.62140000  1.0 0.1107305252
H  H171  1  0.45761000  0.10986000  0.62913000  1.0 0.1201064257
H  H172  1  0.07112000  0.11996000  0.82110000  1.0 0.1201064257
H  H173  1  0.19637000  0.46851000  0.85634000  1.0 0.0988027683
H  H174  1  0.10922000  0.35578000  0.79690000  1.0 0.0988027683
H  H175  1  0.99750000  0.21247000  0.85282000  1.0 0.0988027683
H  H176  1  0.96797000  0.09847000  0.78309000  1.0 0.1201064257
H  H177  1  0.20792000  0.37291000  0.89866000  1.0 0.1201064257
H  H178  1  0.22190000  0.23559000  0.88841000  1.0 0.1107305252
H  H179  1  0.27015000  0.23399000  0.80755000  1.0 0.1201064257
H  H180  1  0.07611000  0.32308000  0.92730000  1.0 0.1331419718
H  H181  1  0.33416000  0.15614000  0.83254000  1.0 0.1201064257
H  H182  1  0.78421000  0.94713000  0.95522000  1.0 0.1107305252
H  H183  1  0.33942000  0.39995000  0.80868000  1.0 0.1201064257
H  H184  1  0.39774000  0.56377000  0.80453000  1.0 0.1201064257
H  H185  1  0.67179000  0.14173000  0.93797000  1.0 0.1520513833
H  H186  1  0.76112000  0.18992000  0.95580000  1.0 0.1560951872
H  H187  1  0.69107000  0.22349000  0.95762000  1.0 0.1434900627
H  H188  1  0.73469000  0.84709000  0.99220000  1.0 0.1201064257
H  H189  1  0.78140000  0.39646000  0.87860000  1.0 0.1107305252
H  H190  1  0.89014000  0.34775000  0.87087000  1.0 0.1201064257
H  H191  1  0.88004000  0.95116000  0.82110000  1.0 0.1201064257
H  H192  1  0.53149000  0.72786000  0.85634000  1.0 0.0988027683
H  H193  1  0.64422000  0.75344000  0.79690000  1.0 0.0988027683
H  H194  1  0.78753000  0.78503000  0.85282000  1.0 0.0988027683
H  H195  1  0.90153000  0.86950000  0.78309000  1.0 0.1201064257
H  H196  1  0.62709000  0.83501000  0.89866000  1.0 0.1201064257
H  H197  1  0.76441000  0.98631000  0.88841000  1.0 0.1107305252
H  H198  1  0.76601000  0.03616000  0.80755000  1.0 0.1201064257
H  H199  1  0.67692000  0.75303000  0.92730000  1.0 0.1331419718
H  H200  1  0.84386000  0.17802000  0.83254000  1.0 0.1201064257
H  H201  1  0.05287000  0.83708000  0.95522000  1.0 0.1107305252
H  H202  1  0.60005000  0.93947000  0.80868000  1.0 0.1201064257
H  H203  1  0.43623000  0.83397000  0.80453000  1.0 0.1201064257
H  H204  1  0.85827000  0.53006000  0.93797000  1.0 0.1520513833
H  H205  1  0.81008000  0.57120000  0.95580000  1.0 0.1560951872
H  H206  1  0.77651000  0.46758000  0.95762000  1.0 0.1434900627
H  H207  1  0.15291000  0.88760000  0.99220000  1.0 0.1201064257
H  H208  1  0.60354000  0.38494000  0.87860000  1.0 0.1107305252
H  H209  1  0.65225000  0.54239000  0.87087000  1.0 0.1201064257
H  H210  1  0.04884000  0.92888000  0.82110000  1.0 0.1201064257
H  H211  1  0.27214000  0.80363000  0.85634000  1.0 0.0988027683
H  H212  1  0.24656000  0.89078000  0.79690000  1.0 0.0988027683
H  H213  1  0.21497000  0.00250000  0.85282000  1.0 0.0988027683
H  H214  1  0.13050000  0.03203000  0.78309000  1.0 0.1201064257
H  H215  1  0.16499000  0.79208000  0.89866000  1.0 0.1201064257
H  H216  1  0.01369000  0.77810000  0.88841000  1.0 0.1107305252
H  H217  1  0.96384000  0.72985000  0.80755000  1.0 0.1201064257
H  H218  1  0.24697000  0.92389000  0.92730000  1.0 0.1331419718
H  H219  1  0.82198000  0.66584000  0.83254000  1.0 0.1201064257
H  H220  1  0.16292000  0.21579000  0.95522000  1.0 0.1107305252
H  H221  1  0.06053000  0.66058000  0.80868000  1.0 0.1201064257
H  H222  1  0.16603000  0.60226000  0.80453000  1.0 0.1201064257
H  H223  1  0.46994000  0.32821000  0.93797000  1.0 0.1520513833
H  H224  1  0.42880000  0.23888000  0.95580000  1.0 0.1560951872
H  H225  1  0.53242000  0.30893000  0.95762000  1.0 0.1434900627
H  H226  1  0.11240000  0.26531000  0.99220000  1.0 0.1201064257
H  H227  1  0.61506000  0.21860000  0.87860000  1.0 0.1107305252
H  H228  1  0.45761000  0.10986000  0.87087000  1.0 0.1201064257
H  H229  1  0.45127000  0.58457000  0.25000000  1.0 0.1201064257
H  H230  1  0.48752000  0.37455000  0.25000000  1.0 0.1107305252
H  H231  1  0.29911000  0.48801000  0.25000000  1.0 0.1201064257
H  H232  1  0.36111000  0.22881000  0.25000000  1.0 0.2643930108
H  H233  1  0.26718000  0.21365000  0.25000000  1.0 0.2911406547
H  H234  1  0.13330000  0.54873000  0.25000000  1.0 0.1201064257
H  H235  1  0.88703000  0.51248000  0.25000000  1.0 0.1107305252
H  H236  1  0.18890000  0.70089000  0.25000000  1.0 0.1201064257
H  H237  1  0.86770000  0.63889000  0.25000000  1.0 0.2643930108
H  H238  1  0.94647000  0.73282000  0.25000000  1.0 0.2911406547
H  H239  1  0.41543000  0.86670000  0.25000000  1.0 0.1201064257
H  H240  1  0.62545000  0.11297000  0.25000000  1.0 0.1107305252
H  H241  1  0.51199000  0.81110000  0.25000000  1.0 0.1201064257
H  H242  1  0.77119000  0.13230000  0.25000000  1.0 0.2643930108
H  H243  1  0.78635000  0.05353000  0.25000000  1.0 0.2911406547
H  H244  1  0.86670000  0.41543000  0.75000000  1.0 0.1201064257
H  H245  1  0.11297000  0.62545000  0.75000000  1.0 0.1107305252
H  H246  1  0.81110000  0.51199000  0.75000000  1.0 0.1201064257
H  H247  1  0.13230000  0.77119000  0.75000000  1.0 0.2643930108
H  H248  1  0.05353000  0.78635000  0.75000000  1.0 0.2911406547
H  H249  1  0.58457000  0.45127000  0.75000000  1.0 0.1201064257
H  H250  1  0.37455000  0.48752000  0.75000000  1.0 0.1107305252
H  H251  1  0.48801000  0.29911000  0.75000000  1.0 0.1201064257
H  H252  1  0.22881000  0.36111000  0.75000000  1.0 0.2643930108
H  H253  1  0.21365000  0.26718000  0.75000000  1.0 0.2911406547
H  H254  1  0.54873000  0.13330000  0.75000000  1.0 0.1201064257
H  H255  1  0.51248000  0.88703000  0.75000000  1.0 0.1107305252
H  H256  1  0.70089000  0.18890000  0.75000000  1.0 0.1201064257
H  H257  1  0.63889000  0.86770000  0.75000000  1.0 0.2643930108
H  H258  1  0.73282000  0.94647000  0.75000000  1.0 0.2911406547
H  H259  1  0.33333333  0.66666667  0.44644000  1.0 -0.1520816817
H  H260  1  0.33333333  0.66666667  0.05356000  1.0 -0.1520816817
H  H261  1  0.66666667  0.33333333  0.55356000  1.0 -0.1520816817
H  H262  1  0.66666667  0.33333333  0.94644000  1.0 -0.1520816817
C  C1  1  0.90100000  0.83480000  0.31169000  1.0 -0.0929163638
C  C2  1  0.76820000  0.52860000  0.34372000  1.0 0.0931786761
C  C3  1  0.79270000  0.70620000  0.29840000  1.0 0.1107305252
C  C4  1  0.78900000  0.75490000  0.36800000  1.0 0.0988027683
C  C5  1  0.85600000  0.84610000  0.29087000  1.0 -0.0417074207
C  C6  1  0.81540000  0.66650000  0.39291000  1.0 -0.1094805161
C  C7  1  0.01710000  0.77500000  0.37128000  1.0 0.1331419718
C  C8  1  0.04360000  0.77540000  0.32706000  1.0 -0.0783089303
C  C9  1  0.75000000  0.88120000  0.45345000  1.0 0.5291914632
C  C10  1  0.77120000  0.69460000  0.40865000  1.0 -0.0284736968
C  C11  1  0.78280000  0.94120000  0.47745000  1.0 -0.0417074207
C  C12  1  0.50220000  0.73830000  0.42150000  1.0 0.4103337616
C  C13  1  0.12110000  0.81800000  0.34089000  1.0 -0.0642256594
C  C14  1  0.82660000  0.03050000  0.47369000  1.0 -0.1094805161
C  C15  1  0.88350000  0.56720000  0.31750000  1.0 -0.0701125808
C  C16  1  0.82640000  0.47640000  0.31590000  1.0 -0.0417074207
C  C17  1  0.51930000  0.80140000  0.44530000  1.0 -0.5600903764
C  C18  1  0.85700000  0.09100000  0.49567000  1.0 -0.1032861531
C  C19  1  0.43250000  0.64390000  0.39000000  1.0 -0.0533221764
C  C20  1  0.51780000  0.67140000  0.38500000  1.0 -0.1219644436
C  C21  1  0.93380000  0.09900000  0.31169000  1.0 -0.0929163638
C  C22  1  0.76040000  0.23180000  0.34372000  1.0 0.0931786761
C  C23  1  0.91350000  0.20730000  0.29840000  1.0 0.1107305252
C  C24  1  0.96590000  0.21100000  0.36800000  1.0 0.0988027683
C  C25  1  0.99010000  0.14400000  0.29087000  1.0 -0.0417074207
C  C26  1  0.85110000  0.18460000  0.39291000  1.0 -0.1094805161
C  C27  1  0.75790000  0.98290000  0.37128000  1.0 0.1331419718
C  C28  1  0.73180000  0.95640000  0.32706000  1.0 -0.0783089303
C  C29  1  0.13120000  0.25000000  0.45345000  1.0 0.5291914632
C  C30  1  0.92340000  0.22880000  0.40865000  1.0 -0.0284736968
C  C31  1  0.15840000  0.21720000  0.47745000  1.0 -0.0417074207
C  C32  1  0.23610000  0.49780000  0.42150000  1.0 0.4103337616
C  C33  1  0.69690000  0.87890000  0.34089000  1.0 -0.0642256594
C  C34  1  0.20390000  0.17340000  0.47369000  1.0 -0.1094805161
C  C35  1  0.68370000  0.11650000  0.31750000  1.0 -0.0701125808
C  C36  1  0.65000000  0.17360000  0.31590000  1.0 -0.0417074207
C  C37  1  0.28210000  0.48070000  0.44530000  1.0 -0.5513937383
C  C38  1  0.23400000  0.14300000  0.49567000  1.0 -0.1032861531
C  C39  1  0.21140000  0.56750000  0.39000000  1.0 -0.0533221764
C  C40  1  0.15360000  0.48220000  0.38500000  1.0 -0.1219644436
C  C41  1  0.16520000  0.06620000  0.31169000  1.0 -0.0929163638
C  C42  1  0.47140000  0.23960000  0.34372000  1.0 0.0931786761
C  C43  1  0.29380000  0.08650000  0.29840000  1.0 0.1107305252
C  C44  1  0.24510000  0.03410000  0.36800000  1.0 0.0988027683
C  C45  1  0.15390000  0.00990000  0.29087000  1.0 -0.0417074207
C  C46  1  0.33350000  0.14890000  0.39291000  1.0 -0.1094805161
C  C47  1  0.22500000  0.24210000  0.37128000  1.0 0.1331419718
C  C48  1  0.22460000  0.26820000  0.32706000  1.0 -0.0783089303
C  C49  1  0.11880000  0.86880000  0.45345000  1.0 0.5291914632
C  C50  1  0.30540000  0.07660000  0.40865000  1.0 -0.0284736968
C  C51  1  0.05880000  0.84160000  0.47745000  1.0 -0.0417074207
C  C52  1  0.26170000  0.76390000  0.42150000  1.0 0.4103337616
C  C53  1  0.18200000  0.30310000  0.34089000  1.0 -0.0642256594
C  C54  1  0.96950000  0.79610000  0.47369000  1.0 -0.1094805161
C  C55  1  0.43280000  0.31630000  0.31750000  1.0 -0.0701125808
C  C56  1  0.52360000  0.35000000  0.31590000  1.0 -0.0417074207
C  C57  1  0.19860000  0.71790000  0.44530000  1.0 -0.5513937383
C  C58  1  0.90900000  0.76600000  0.49567000  1.0 -0.1032861531
C  C59  1  0.35610000  0.78860000  0.39000000  1.0 -0.0533221764
C  C60  1  0.32860000  0.84640000  0.38500000  1.0 -0.1219644436
C  C61  1  0.90100000  0.83480000  0.18831000  1.0 -0.0929163638
C  C62  1  0.76820000  0.52860000  0.15628000  1.0 0.0931786761
C  C63  1  0.79270000  0.70620000  0.20160000  1.0 0.1107305252
C  C64  1  0.78900000  0.75490000  0.13200000  1.0 0.0988027683
C  C65  1  0.85600000  0.84610000  0.20913000  1.0 -0.0417074207
C  C66  1  0.81540000  0.66650000  0.10709000  1.0 -0.1094805161
C  C67  1  0.01710000  0.77500000  0.12872000  1.0 0.1331419718
C  C68  1  0.04360000  0.77540000  0.17294000  1.0 -0.0783089303
C  C69  1  0.75000000  0.88120000  0.04655000  1.0 0.5291914632
C  C70  1  0.77120000  0.69460000  0.09135000  1.0 -0.0284736968
C  C71  1  0.78280000  0.94120000  0.02255000  1.0 -0.0417074207
C  C72  1  0.50220000  0.73830000  0.07850000  1.0 0.4103337616
C  C73  1  0.12110000  0.81800000  0.15911000  1.0 -0.0642256594
C  C74  1  0.82660000  0.03050000  0.02631000  1.0 -0.1094805161
C  C75  1  0.88350000  0.56720000  0.18250000  1.0 -0.0701125808
C  C76  1  0.82640000  0.47640000  0.18410000  1.0 -0.0417074207
C  C77  1  0.51930000  0.80140000  0.05470000  1.0 -0.5600903764
C  C78  1  0.85700000  0.09100000  0.00433000  1.0 -0.1032861531
C  C79  1  0.43250000  0.64390000  0.11000000  1.0 -0.0533221764
C  C80  1  0.51780000  0.67140000  0.11500000  1.0 -0.1219644436
C  C81  1  0.93380000  0.09900000  0.18831000  1.0 -0.0929163638
C  C82  1  0.76040000  0.23180000  0.15628000  1.0 0.0931786761
C  C83  1  0.91350000  0.20730000  0.20160000  1.0 0.1107305252
C  C84  1  0.96590000  0.21100000  0.13200000  1.0 0.0988027683
C  C85  1  0.99010000  0.14400000  0.20913000  1.0 -0.0417074207
C  C86  1  0.85110000  0.18460000  0.10709000  1.0 -0.1094805161
C  C87  1  0.75790000  0.98290000  0.12872000  1.0 0.1331419718
C  C88  1  0.73180000  0.95640000  0.17294000  1.0 -0.0783089303
C  C89  1  0.13120000  0.25000000  0.04655000  1.0 0.5291914632
C  C90  1  0.92340000  0.22880000  0.09135000  1.0 -0.0284736968
C  C91  1  0.15840000  0.21720000  0.02255000  1.0 -0.0417074207
C  C92  1  0.23610000  0.49780000  0.07850000  1.0 0.4103337616
C  C93  1  0.69690000  0.87890000  0.15911000  1.0 -0.0642256594
C  C94  1  0.20390000  0.17340000  0.02631000  1.0 -0.1094805161
C  C95  1  0.68370000  0.11650000  0.18250000  1.0 -0.0701125808
C  C96  1  0.65000000  0.17360000  0.18410000  1.0 -0.0417074207
C  C97  1  0.28210000  0.48070000  0.05470000  1.0 -0.5600903764
C  C98  1  0.23400000  0.14300000  0.00433000  1.0 -0.1032861531
C  C99  1  0.21140000  0.56750000  0.11000000  1.0 -0.0533221764
C  C100  1  0.15360000  0.48220000  0.11500000  1.0 -0.1219644436
C  C101  1  0.16520000  0.06620000  0.18831000  1.0 -0.0929163638
C  C102  1  0.47140000  0.23960000  0.15628000  1.0 0.0931786761
C  C103  1  0.29380000  0.08650000  0.20160000  1.0 0.1107305252
C  C104  1  0.24510000  0.03410000  0.13200000  1.0 0.0988027683
C  C105  1  0.15390000  0.00990000  0.20913000  1.0 -0.0417074207
C  C106  1  0.33350000  0.14890000  0.10709000  1.0 -0.1094805161
C  C107  1  0.22500000  0.24210000  0.12872000  1.0 0.1331419718
C  C108  1  0.22460000  0.26820000  0.17294000  1.0 -0.0783089303
C  C109  1  0.11880000  0.86880000  0.04655000  1.0 0.5291914632
C  C110  1  0.30540000  0.07660000  0.09135000  1.0 -0.0284736968
C  C111  1  0.05880000  0.84160000  0.02255000  1.0 -0.0417074207
C  C112  1  0.26170000  0.76390000  0.07850000  1.0 0.4103337616
C  C113  1  0.18200000  0.30310000  0.15911000  1.0 -0.0642256594
C  C114  1  0.96950000  0.79610000  0.02631000  1.0 -0.1094805161
C  C115  1  0.43280000  0.31630000  0.18250000  1.0 -0.0701125808
C  C116  1  0.52360000  0.35000000  0.18410000  1.0 -0.0417074207
C  C117  1  0.19860000  0.71790000  0.05470000  1.0 -0.5600903764
C  C118  1  0.90900000  0.76600000  0.00433000  1.0 -0.1032861531
C  C119  1  0.35610000  0.78860000  0.11000000  1.0 -0.0533221764
C  C120  1  0.32860000  0.84640000  0.11500000  1.0 -0.1219644436
C  C121  1  0.06620000  0.16520000  0.68831000  1.0 -0.0929163638
C  C122  1  0.23960000  0.47140000  0.65628000  1.0 0.0931786761
C  C123  1  0.08650000  0.29380000  0.70160000  1.0 0.1107305252
C  C124  1  0.03410000  0.24510000  0.63200000  1.0 0.0988027683
C  C125  1  0.00990000  0.15390000  0.70913000  1.0 -0.0417074207
C  C126  1  0.14890000  0.33350000  0.60709000  1.0 -0.1094805161
C  C127  1  0.24210000  0.22500000  0.62872000  1.0 0.1331419718
C  C128  1  0.26820000  0.22460000  0.67294000  1.0 -0.0783089303
C  C129  1  0.86880000  0.11880000  0.54655000  1.0 0.5291914632
C  C130  1  0.07660000  0.30540000  0.59135000  1.0 -0.0284736968
C  C131  1  0.84160000  0.05880000  0.52255000  1.0 -0.0417074207
C  C132  1  0.76390000  0.26170000  0.57850000  1.0 0.4103337616
C  C133  1  0.30310000  0.18200000  0.65911000  1.0 -0.0642256594
C  C134  1  0.79610000  0.96950000  0.52631000  1.0 -0.1094805161
C  C135  1  0.31630000  0.43280000  0.68250000  1.0 -0.0701125808
C  C136  1  0.35000000  0.52360000  0.68410000  1.0 -0.0417074207
C  C137  1  0.71790000  0.19860000  0.55470000  1.0 -0.5513937383
C  C138  1  0.76600000  0.90900000  0.50433000  1.0 -0.1032861531
C  C139  1  0.78860000  0.35610000  0.61000000  1.0 -0.0533221764
C  C140  1  0.84640000  0.32860000  0.61500000  1.0 -0.1219644436
C  C141  1  0.83480000  0.90100000  0.68831000  1.0 -0.0929163638
C  C142  1  0.52860000  0.76820000  0.65628000  1.0 0.0931786761
C  C143  1  0.70620000  0.79270000  0.70160000  1.0 0.1107305252
C  C144  1  0.75490000  0.78900000  0.63200000  1.0 0.0988027683
C  C145  1  0.84610000  0.85600000  0.70913000  1.0 -0.0417074207
C  C146  1  0.66650000  0.81540000  0.60709000  1.0 -0.1094805161
C  C147  1  0.77500000  0.01710000  0.62872000  1.0 0.1331419718
C  C148  1  0.77540000  0.04360000  0.67294000  1.0 -0.0783089303
C  C149  1  0.88120000  0.75000000  0.54655000  1.0 0.5291914632
C  C150  1  0.69460000  0.77120000  0.59135000  1.0 -0.0284736968
C  C151  1  0.94120000  0.78280000  0.52255000  1.0 -0.0417074207
C  C152  1  0.73830000  0.50220000  0.57850000  1.0 0.4103337616
C  C153  1  0.81800000  0.12110000  0.65911000  1.0 -0.0642256594
C  C154  1  0.03050000  0.82660000  0.52631000  1.0 -0.1094805161
C  C155  1  0.56720000  0.88350000  0.68250000  1.0 -0.0701125808
C  C156  1  0.47640000  0.82640000  0.68410000  1.0 -0.0417074207
C  C157  1  0.80140000  0.51930000  0.55470000  1.0 -0.5513937383
C  C158  1  0.09100000  0.85700000  0.50433000  1.0 -0.1032861531
C  C159  1  0.64390000  0.43250000  0.61000000  1.0 -0.0533221764
C  C160  1  0.67140000  0.51780000  0.61500000  1.0 -0.1219644436
C  C161  1  0.09900000  0.93380000  0.68831000  1.0 -0.0929163638
C  C162  1  0.23180000  0.76040000  0.65628000  1.0 0.0931786761
C  C163  1  0.20730000  0.91350000  0.70160000  1.0 0.1107305252
C  C164  1  0.21100000  0.96590000  0.63200000  1.0 0.0988027683
C  C165  1  0.14400000  0.99010000  0.70913000  1.0 -0.0417074207
C  C166  1  0.18460000  0.85110000  0.60709000  1.0 -0.1094805161
C  C167  1  0.98290000  0.75790000  0.62872000  1.0 0.1331419718
C  C168  1  0.95640000  0.73180000  0.67294000  1.0 -0.0783089303
C  C169  1  0.25000000  0.13120000  0.54655000  1.0 0.5291914632
C  C170  1  0.22880000  0.92340000  0.59135000  1.0 -0.0284736968
C  C171  1  0.21720000  0.15840000  0.52255000  1.0 -0.0417074207
C  C172  1  0.49780000  0.23610000  0.57850000  1.0 0.4103337616
C  C173  1  0.87890000  0.69690000  0.65911000  1.0 -0.0642256594
C  C174  1  0.17340000  0.20390000  0.52631000  1.0 -0.1094805161
C  C175  1  0.11650000  0.68370000  0.68250000  1.0 -0.0701125808
C  C176  1  0.17360000  0.65000000  0.68410000  1.0 -0.0417074207
C  C177  1  0.48070000  0.28210000  0.55470000  1.0 -0.5513937383
C  C178  1  0.14300000  0.23400000  0.50433000  1.0 -0.1032861531
C  C179  1  0.56750000  0.21140000  0.61000000  1.0 -0.0533221764
C  C180  1  0.48220000  0.15360000  0.61500000  1.0 -0.1219644436
C  C181  1  0.06620000  0.16520000  0.81169000  1.0 -0.0929163638
C  C182  1  0.23960000  0.47140000  0.84372000  1.0 0.0931786761
C  C183  1  0.08650000  0.29380000  0.79840000  1.0 0.1107305252
C  C184  1  0.03410000  0.24510000  0.86800000  1.0 0.0988027683
C  C185  1  0.00990000  0.15390000  0.79087000  1.0 -0.0417074207
C  C186  1  0.14890000  0.33350000  0.89291000  1.0 -0.1094805161
C  C187  1  0.24210000  0.22500000  0.87128000  1.0 0.1331419718
C  C188  1  0.26820000  0.22460000  0.82706000  1.0 -0.0783089303
C  C189  1  0.86880000  0.11880000  0.95345000  1.0 0.5291914632
C  C190  1  0.07660000  0.30540000  0.90865000  1.0 -0.0284736968
C  C191  1  0.84160000  0.05880000  0.97745000  1.0 -0.0417074207
C  C192  1  0.76390000  0.26170000  0.92150000  1.0 0.4103337616
C  C193  1  0.30310000  0.18200000  0.84089000  1.0 -0.0642256594
C  C194  1  0.79610000  0.96950000  0.97369000  1.0 -0.1094805161
C  C195  1  0.31630000  0.43280000  0.81750000  1.0 -0.0701125808
C  C196  1  0.35000000  0.52360000  0.81590000  1.0 -0.0417074207
C  C197  1  0.71790000  0.19860000  0.94530000  1.0 -0.5513937383
C  C198  1  0.76600000  0.90900000  0.99567000  1.0 -0.1032861531
C  C199  1  0.78860000  0.35610000  0.89000000  1.0 -0.0533221764
C  C200  1  0.84640000  0.32860000  0.88500000  1.0 -0.1219644436
C  C201  1  0.83480000  0.90100000  0.81169000  1.0 -0.0929163638
C  C202  1  0.52860000  0.76820000  0.84372000  1.0 0.0931786761
C  C203  1  0.70620000  0.79270000  0.79840000  1.0 0.1107305252
C  C204  1  0.75490000  0.78900000  0.86800000  1.0 0.0988027683
C  C205  1  0.84610000  0.85600000  0.79087000  1.0 -0.0417074207
C  C206  1  0.66650000  0.81540000  0.89291000  1.0 -0.1094805161
C  C207  1  0.77500000  0.01710000  0.87128000  1.0 0.1331419718
C  C208  1  0.77540000  0.04360000  0.82706000  1.0 -0.0783089303
C  C209  1  0.88120000  0.75000000  0.95345000  1.0 0.5291914632
C  C210  1  0.69460000  0.77120000  0.90865000  1.0 -0.0284736968
C  C211  1  0.94120000  0.78280000  0.97745000  1.0 -0.0417074207
C  C212  1  0.73830000  0.50220000  0.92150000  1.0 0.4103337616
C  C213  1  0.81800000  0.12110000  0.84089000  1.0 -0.0642256594
C  C214  1  0.03050000  0.82660000  0.97369000  1.0 -0.1094805161
C  C215  1  0.56720000  0.88350000  0.81750000  1.0 -0.0701125808
C  C216  1  0.47640000  0.82640000  0.81590000  1.0 -0.0417074207
C  C217  1  0.80140000  0.51930000  0.94530000  1.0 -0.5513937383
C  C218  1  0.09100000  0.85700000  0.99567000  1.0 -0.1032861531
C  C219  1  0.64390000  0.43250000  0.89000000  1.0 -0.0533221764
C  C220  1  0.67140000  0.51780000  0.88500000  1.0 -0.1219644436
C  C221  1  0.09900000  0.93380000  0.81169000  1.0 -0.0929163638
C  C222  1  0.23180000  0.76040000  0.84372000  1.0 0.0931786761
C  C223  1  0.20730000  0.91350000  0.79840000  1.0 0.1107305252
C  C224  1  0.21100000  0.96590000  0.86800000  1.0 0.0988027683
C  C225  1  0.14400000  0.99010000  0.79087000  1.0 -0.0417074207
C  C226  1  0.18460000  0.85110000  0.89291000  1.0 -0.1094805161
C  C227  1  0.98290000  0.75790000  0.87128000  1.0 0.1331419718
C  C228  1  0.95640000  0.73180000  0.82706000  1.0 -0.0783089303
C  C229  1  0.25000000  0.13120000  0.95345000  1.0 0.5291914632
C  C230  1  0.22880000  0.92340000  0.90865000  1.0 -0.0284736968
C  C231  1  0.21720000  0.15840000  0.97745000  1.0 -0.0417074207
C  C232  1  0.49780000  0.23610000  0.92150000  1.0 0.4103337616
C  C233  1  0.87890000  0.69690000  0.84089000  1.0 -0.0642256594
C  C234  1  0.17340000  0.20390000  0.97369000  1.0 -0.1094805161
C  C235  1  0.11650000  0.68370000  0.81750000  1.0 -0.0701125808
C  C236  1  0.17360000  0.65000000  0.81590000  1.0 -0.0417074207
C  C237  1  0.48070000  0.28210000  0.94530000  1.0 -0.5513937383
C  C238  1  0.14300000  0.23400000  0.99567000  1.0 -0.1032861531
C  C239  1  0.56750000  0.21140000  0.89000000  1.0 -0.0533221764
C  C240  1  0.48220000  0.15360000  0.88500000  1.0 -0.1219644436
C  C241  1  0.48410000  0.48650000  0.25000000  1.0 -0.0284736968
C  C242  1  0.20140000  0.31770000  0.25000000  1.0 0.5423812881
C  C243  1  0.30130000  0.37480000  0.25000000  1.0 -0.1219644436
C  C244  1  0.42800000  0.52230000  0.25000000  1.0 -0.1562614699
C  C245  1  0.35720000  0.33820000  0.25000000  1.0 0.2475806068
C  C246  1  0.58020000  0.54630000  0.25000000  1.0 0.4714992087
C  C247  1  0.44860000  0.39780000  0.25000000  1.0 -0.2399704201
C  C248  1  0.33760000  0.46420000  0.25000000  1.0 -0.0929163638
C  C249  1  0.00240000  0.51590000  0.25000000  1.0 -0.0284736968
C  C250  1  0.11630000  0.79860000  0.25000000  1.0 0.5423812881
C  C251  1  0.07350000  0.69870000  0.25000000  1.0 -0.1219644436
C  C252  1  0.09430000  0.57200000  0.25000000  1.0 -0.1562614699
C  C253  1  0.98100000  0.64280000  0.25000000  1.0 0.2475806068
C  C254  1  0.96610000  0.41980000  0.25000000  1.0 0.4714992087
C  C255  1  0.94920000  0.55140000  0.25000000  1.0 -0.2399704201
C  C256  1  0.12660000  0.66240000  0.25000000  1.0 -0.0929163638
C  C257  1  0.51350000  0.99760000  0.25000000  1.0 -0.0284736968
C  C258  1  0.68230000  0.88370000  0.25000000  1.0 0.5423812881
C  C259  1  0.62520000  0.92650000  0.25000000  1.0 -0.1219644436
C  C260  1  0.47770000  0.90570000  0.25000000  1.0 -0.1562614699
C  C261  1  0.66180000  0.01900000  0.25000000  1.0 0.2475806068
C  C262  1  0.45370000  0.03390000  0.25000000  1.0 0.4714992087
C  C263  1  0.60220000  0.05080000  0.25000000  1.0 -0.2399704201
C  C264  1  0.53580000  0.87340000  0.25000000  1.0 -0.0929163638
C  C265  1  0.99760000  0.51350000  0.75000000  1.0 -0.0284736968
C  C266  1  0.88370000  0.68230000  0.75000000  1.0 0.5423812881
C  C267  1  0.92650000  0.62520000  0.75000000  1.0 -0.1219644436
C  C268  1  0.90570000  0.47770000  0.75000000  1.0 -0.1562614699
C  C269  1  0.01900000  0.66180000  0.75000000  1.0 0.2475806068
C  C270  1  0.03390000  0.45370000  0.75000000  1.0 0.4714992087
C  C271  1  0.05080000  0.60220000  0.75000000  1.0 -0.2399704201
C  C272  1  0.87340000  0.53580000  0.75000000  1.0 -0.0929163638
C  C273  1  0.48650000  0.48410000  0.75000000  1.0 -0.0284736968
C  C274  1  0.31770000  0.20140000  0.75000000  1.0 0.5423812881
C  C275  1  0.37480000  0.30130000  0.75000000  1.0 -0.1219644436
C  C276  1  0.52230000  0.42800000  0.75000000  1.0 -0.1562614699
C  C277  1  0.33820000  0.35720000  0.75000000  1.0 0.2475806068
C  C278  1  0.54630000  0.58020000  0.75000000  1.0 0.4714992087
C  C279  1  0.39780000  0.44860000  0.75000000  1.0 -0.2399704201
C  C280  1  0.46420000  0.33760000  0.75000000  1.0 -0.0929163638
C  C281  1  0.51590000  0.00240000  0.75000000  1.0 -0.0284736968
C  C282  1  0.79860000  0.11630000  0.75000000  1.0 0.5423812881
C  C283  1  0.69870000  0.07350000  0.75000000  1.0 -0.1219644436
C  C284  1  0.57200000  0.09430000  0.75000000  1.0 -0.1562614699
C  C285  1  0.64280000  0.98100000  0.75000000  1.0 0.2475806068
C  C286  1  0.41980000  0.96610000  0.75000000  1.0 0.4714992087
C  C287  1  0.55140000  0.94920000  0.75000000  1.0 -0.2399704201
C  C288  1  0.66240000  0.12660000  0.75000000  1.0 -0.0929163638
N  N1  1  0.85950000  0.74320000  0.31686000  1.0 -0.2399704201
N  N2  1  0.78770000  0.76550000  0.28258000  1.0 -0.2987839848
N  N3  1  0.97740000  0.74820000  0.34652000  1.0 -0.1941187565
N  N4  1  0.82800000  0.70460000  0.36678000  1.0 -0.2244458041
N  N5  1  0.75620000  0.75240000  0.39389000  1.0 -0.2845641583
N  N6  1  0.84280000  0.59970000  0.33428000  1.0 -0.2065384807
N  N7  1  0.42270000  0.68040000  0.41321000  1.0 -0.1813319037
N  N8  1  0.10540000  0.81860000  0.36903000  1.0 -0.2987839848
N  N9  1  0.75900000  0.45570000  0.33333333  1.0 -0.260932824
N  N10  1  0.56450000  0.73840000  0.40677000  1.0 -0.3755841389
N  N11  1  0.88370000  0.14050000  0.31686000  1.0 -0.2399704201
N  N12  1  0.97780000  0.21230000  0.28258000  1.0 -0.2987839848
N  N13  1  0.77080000  0.02260000  0.34652000  1.0 -0.1941187565
N  N14  1  0.87660000  0.17200000  0.36678000  1.0 -0.2244458041
N  N15  1  0.99620000  0.24380000  0.39389000  1.0 -0.2845641583
N  N16  1  0.75690000  0.15720000  0.33428000  1.0 -0.2065384807
N  N17  1  0.25770000  0.57730000  0.41321000  1.0 -0.1813319037
N  N18  1  0.71320000  0.89460000  0.36903000  1.0 -0.2987839848
N  N19  1  0.69670000  0.24100000  0.33333333  1.0 -0.260932824
N  N20  1  0.17390000  0.43550000  0.40677000  1.0 -0.3755841389
N  N21  1  0.25680000  0.11630000  0.31686000  1.0 -0.2399704201
N  N22  1  0.23450000  0.02220000  0.28258000  1.0 -0.2987839848
N  N23  1  0.25180000  0.22920000  0.34652000  1.0 -0.1941187565
N  N24  1  0.29540000  0.12340000  0.36678000  1.0 -0.2244458041
N  N25  1  0.24760000  0.00380000  0.39389000  1.0 -0.2845641583
N  N26  1  0.40030000  0.24310000  0.33428000  1.0 -0.2065384807
N  N27  1  0.31960000  0.74230000  0.41321000  1.0 -0.1813319037
N  N28  1  0.18140000  0.28680000  0.36903000  1.0 -0.2987839848
N  N29  1  0.54430000  0.30330000  0.33333333  1.0 -0.260932824
N  N30  1  0.26160000  0.82610000  0.40677000  1.0 -0.3755841389
N  N31  1  0.85950000  0.74320000  0.18314000  1.0 -0.2399704201
N  N32  1  0.78770000  0.76550000  0.21742000  1.0 -0.2987839848
N  N33  1  0.97740000  0.74820000  0.15348000  1.0 -0.1941187565
N  N34  1  0.82800000  0.70460000  0.13322000  1.0 -0.2244458041
N  N35  1  0.75620000  0.75240000  0.10611000  1.0 -0.2845641583
N  N36  1  0.84280000  0.59970000  0.16572000  1.0 -0.2065384807
N  N37  1  0.42270000  0.68040000  0.08679000  1.0 -0.1813319037
N  N38  1  0.10540000  0.81860000  0.13097000  1.0 -0.2987839848
N  N39  1  0.75900000  0.45570000  0.16667000  1.0 -0.260932824
N  N40  1  0.56450000  0.73840000  0.09323000  1.0 -0.3755841389
N  N41  1  0.88370000  0.14050000  0.18314000  1.0 -0.2399704201
N  N42  1  0.97780000  0.21230000  0.21742000  1.0 -0.2987839848
N  N43  1  0.77080000  0.02260000  0.15348000  1.0 -0.1941187565
N  N44  1  0.87660000  0.17200000  0.13322000  1.0 -0.2244458041
N  N45  1  0.99620000  0.24380000  0.10611000  1.0 -0.2845641583
N  N46  1  0.75690000  0.15720000  0.16572000  1.0 -0.2065384807
N  N47  1  0.25770000  0.57730000  0.08679000  1.0 -0.1813319037
N  N48  1  0.71320000  0.89460000  0.13097000  1.0 -0.2987839848
N  N49  1  0.69670000  0.24100000  0.16667000  1.0 -0.260932824
N  N50  1  0.17390000  0.43550000  0.09323000  1.0 -0.3755841389
N  N51  1  0.25680000  0.11630000  0.18314000  1.0 -0.2399704201
N  N52  1  0.23450000  0.02220000  0.21742000  1.0 -0.2987839848
N  N53  1  0.25180000  0.22920000  0.15348000  1.0 -0.1941187565
N  N54  1  0.29540000  0.12340000  0.13322000  1.0 -0.2244458041
N  N55  1  0.24760000  0.00380000  0.10611000  1.0 -0.2845641583
N  N56  1  0.40030000  0.24310000  0.16572000  1.0 -0.2065384807
N  N57  1  0.31960000  0.74230000  0.08679000  1.0 -0.1813319037
N  N58  1  0.18140000  0.28680000  0.13097000  1.0 -0.2987839848
N  N59  1  0.54430000  0.30330000  0.16667000  1.0 -0.260932824
N  N60  1  0.26160000  0.82610000  0.09323000  1.0 -0.3755841389
N  N61  1  0.11630000  0.25680000  0.68314000  1.0 -0.2399704201
N  N62  1  0.02220000  0.23450000  0.71742000  1.0 -0.2987839848
N  N63  1  0.22920000  0.25180000  0.65348000  1.0 -0.1941187565
N  N64  1  0.12340000  0.29540000  0.63322000  1.0 -0.2244458041
N  N65  1  0.00380000  0.24760000  0.60611000  1.0 -0.2845641583
N  N66  1  0.24310000  0.40030000  0.66572000  1.0 -0.2065384807
N  N67  1  0.74230000  0.31960000  0.58679000  1.0 -0.1813319037
N  N68  1  0.28680000  0.18140000  0.63097000  1.0 -0.2987839848
N  N69  1  0.30330000  0.54430000  0.66666667  1.0 -0.260932824
N  N70  1  0.82610000  0.26160000  0.59323000  1.0 -0.3755841389
N  N71  1  0.74320000  0.85950000  0.68314000  1.0 -0.2399704201
N  N72  1  0.76550000  0.78770000  0.71742000  1.0 -0.2987839848
N  N73  1  0.74820000  0.97740000  0.65348000  1.0 -0.1941187565
N  N74  1  0.70460000  0.82800000  0.63322000  1.0 -0.2244458041
N  N75  1  0.75240000  0.75620000  0.60611000  1.0 -0.2845641583
N  N76  1  0.59970000  0.84280000  0.66572000  1.0 -0.2065384807
N  N77  1  0.68040000  0.42270000  0.58679000  1.0 -0.1813319037
N  N78  1  0.81860000  0.10540000  0.63097000  1.0 -0.2987839848
N  N79  1  0.45570000  0.75900000  0.66666667  1.0 -0.260932824
N  N80  1  0.73840000  0.56450000  0.59323000  1.0 -0.3755841389
N  N81  1  0.14050000  0.88370000  0.68314000  1.0 -0.2399704201
N  N82  1  0.21230000  0.97780000  0.71742000  1.0 -0.2987839848
N  N83  1  0.02260000  0.77080000  0.65348000  1.0 -0.1941187565
N  N84  1  0.17200000  0.87660000  0.63322000  1.0 -0.2244458041
N  N85  1  0.24380000  0.99620000  0.60611000  1.0 -0.2845641583
N  N86  1  0.15720000  0.75690000  0.66572000  1.0 -0.2065384807
N  N87  1  0.57730000  0.25770000  0.58679000  1.0 -0.1813319037
N  N88  1  0.89460000  0.71320000  0.63097000  1.0 -0.2987839848
N  N89  1  0.24100000  0.69670000  0.66666667  1.0 -0.260932824
N  N90  1  0.43550000  0.17390000  0.59323000  1.0 -0.3755841389
N  N91  1  0.11630000  0.25680000  0.81686000  1.0 -0.2399704201
N  N92  1  0.02220000  0.23450000  0.78258000  1.0 -0.2987839848
N  N93  1  0.22920000  0.25180000  0.84652000  1.0 -0.1941187565
N  N94  1  0.12340000  0.29540000  0.86678000  1.0 -0.2244458041
N  N95  1  0.00380000  0.24760000  0.89389000  1.0 -0.2845641583
N  N96  1  0.24310000  0.40030000  0.83428000  1.0 -0.2065384807
N  N97  1  0.74230000  0.31960000  0.91321000  1.0 -0.1813319037
N  N98  1  0.28680000  0.18140000  0.86903000  1.0 -0.2987839848
N  N99  1  0.30330000  0.54430000  0.83333000  1.0 -0.260932824
N  N100  1  0.82610000  0.26160000  0.90677000  1.0 -0.3755841389
N  N101  1  0.74320000  0.85950000  0.81686000  1.0 -0.2399704201
N  N102  1  0.76550000  0.78770000  0.78258000  1.0 -0.2987839848
N  N103  1  0.74820000  0.97740000  0.84652000  1.0 -0.1941187565
N  N104  1  0.70460000  0.82800000  0.86678000  1.0 -0.2244458041
N  N105  1  0.75240000  0.75620000  0.89389000  1.0 -0.2845641583
N  N106  1  0.59970000  0.84280000  0.83428000  1.0 -0.2065384807
N  N107  1  0.68040000  0.42270000  0.91321000  1.0 -0.1813319037
N  N108  1  0.81860000  0.10540000  0.86903000  1.0 -0.2987839848
N  N109  1  0.45570000  0.75900000  0.83333000  1.0 -0.260932824
N  N110  1  0.73840000  0.56450000  0.90677000  1.0 -0.3755841389
N  N111  1  0.14050000  0.88370000  0.81686000  1.0 -0.2399704201
N  N112  1  0.21230000  0.97780000  0.78258000  1.0 -0.2987839848
N  N113  1  0.02260000  0.77080000  0.84652000  1.0 -0.1941187565
N  N114  1  0.17200000  0.87660000  0.86678000  1.0 -0.2255549639
N  N115  1  0.24380000  0.99620000  0.89389000  1.0 -0.2845641583
N  N116  1  0.15720000  0.75690000  0.83428000  1.0 -0.2065384807
N  N117  1  0.57730000  0.25770000  0.91321000  1.0 -0.1813319037
N  N118  1  0.89460000  0.71320000  0.86903000  1.0 -0.2987839848
N  N119  1  0.24100000  0.69670000  0.83333000  1.0 -0.260932824
N  N120  1  0.43550000  0.17390000  0.90677000  1.0 -0.3755841389
N  N121  1  0.32470000  0.25000000  0.25000000  1.0 -0.5730721861
N  N122  1  0.92530000  0.67530000  0.25000000  1.0 -0.5730721861
N  N123  1  0.75000000  0.07470000  0.25000000  1.0 -0.5730721861
N  N124  1  0.07470000  0.75000000  0.75000000  1.0 -0.5730721861
N  N125  1  0.25000000  0.32470000  0.75000000  1.0 -0.5730721861
N  N126  1  0.67530000  0.92530000  0.75000000  1.0 -0.5730721861
O  O1  1  0.72370000  0.80240000  0.45495000  1.0 -0.507426839
O  O2  1  0.74670000  0.91480000  0.42952000  1.0 -0.5600903764
O  O3  1  0.07870000  0.27630000  0.45495000  1.0 -0.507426839
O  O4  1  0.16810000  0.25330000  0.42952000  1.0 -0.5600903764
O  O5  1  0.19760000  0.92130000  0.45495000  1.0 -0.507426839
O  O6  1  0.08520000  0.83190000  0.42952000  1.0 -0.5600903764
O  O7  1  0.72370000  0.80240000  0.04505000  1.0 -0.507426839
O  O8  1  0.74670000  0.91480000  0.07048000  1.0 -0.5600903764
O  O9  1  0.07870000  0.27630000  0.04505000  1.0 -0.507426839
O  O10  1  0.16810000  0.25330000  0.07048000  1.0 -0.5600903764
O  O11  1  0.19760000  0.92130000  0.04505000  1.0 -0.507426839
O  O12  1  0.08520000  0.83190000  0.07048000  1.0 -0.5600903764
O  O13  1  0.92130000  0.19760000  0.54505000  1.0 -0.507426839
O  O14  1  0.83190000  0.08520000  0.57048000  1.0 -0.5600903764
O  O15  1  0.80240000  0.72370000  0.54505000  1.0 -0.507426839
O  O16  1  0.91480000  0.74670000  0.57048000  1.0 -0.5600903764
O  O17  1  0.27630000  0.07870000  0.54505000  1.0 -0.507426839
O  O18  1  0.25330000  0.16810000  0.57048000  1.0 -0.5600903764
O  O19  1  0.92130000  0.19760000  0.95495000  1.0 -0.507426839
O  O20  1  0.83190000  0.08520000  0.92952000  1.0 -0.5600903764
O  O21  1  0.80240000  0.72370000  0.95495000  1.0 -0.507426839
O  O22  1  0.91480000  0.74670000  0.92952000  1.0 -0.5600903764
O  O23  1  0.27630000  0.07870000  0.95495000  1.0 -0.507426839
O  O24  1  0.25330000  0.16810000  0.92952000  1.0 -0.5600903764
O  O25  1  0.16440000  0.23740000  0.25000000  1.0 -0.5422140568
O  O26  1  0.16050000  0.36220000  0.25000000  1.0 -0.5513937383
O  O27  1  0.60930000  0.62040000  0.25000000  1.0 -0.2926459461
O  O28  1  0.62850000  0.52770000  0.25000000  1.0 -0.327098599
O  O29  1  0.07300000  0.83560000  0.25000000  1.0 -0.5422140568
O  O30  1  0.20170000  0.83950000  0.25000000  1.0 -0.5513937383
O  O31  1  0.01110000  0.39070000  0.25000000  1.0 -0.2926459461
O  O32  1  0.89920000  0.37150000  0.25000000  1.0 -0.327098599
O  O33  1  0.76260000  0.92700000  0.25000000  1.0 -0.5422140568
O  O34  1  0.63780000  0.79830000  0.25000000  1.0 -0.5513937383
O  O35  1  0.37960000  0.98890000  0.25000000  1.0 -0.2926459461
O  O36  1  0.47230000  0.10080000  0.25000000  1.0 -0.327098599
O  O37  1  0.92700000  0.76260000  0.75000000  1.0 -0.5422140568
O  O38  1  0.79830000  0.63780000  0.75000000  1.0 -0.5513937383
O  O39  1  0.98890000  0.37960000  0.75000000  1.0 -0.2926459461
O  O40  1  0.10080000  0.47230000  0.75000000  1.0 -0.327098599
O  O41  1  0.23740000  0.16440000  0.75000000  1.0 -0.5422140568
O  O42  1  0.36220000  0.16050000  0.75000000  1.0 -0.5513937383
O  O43  1  0.62040000  0.60930000  0.75000000  1.0 -0.2987839848
O  O44  1  0.52770000  0.62850000  0.75000000  1.0 -0.327098599
O  O45  1  0.83560000  0.07300000  0.75000000  1.0 -0.5422140568
O  O46  1  0.83950000  0.20170000  0.75000000  1.0 -0.5513937383
O  O47  1  0.39070000  0.01110000  0.75000000  1.0 -0.2926459461
O  O48  1  0.37150000  0.89920000  0.75000000  1.0 -0.327098599
