# DDEC6 charges by PACMAN v1.1 (https://github.com/mtap-research/PACMAN-charge/)
data_QEGGUE_ion_pacman
_symmetry_space_group_name_H-M   'P 1'
_cell_length_a   24.44780000
_cell_length_b   24.44780000
_cell_length_c   68.74000000
_cell_angle_alpha   90.00000000
_cell_angle_beta   90.00000000
_cell_angle_gamma   90.00000000
_symmetry_Int_Tables_number   1
_chemical_formula_structural   AgPH30C30(NF3)2
_chemical_formula_sum   'Ag32 P32 H960 C960 N64 F192'
_cell_volume   41085.54913350
_cell_formula_units_Z   32
loop_
 _symmetry_equiv_pos_site_id
 _symmetry_equiv_pos_as_xyz
  1  'x, y, z'
loop_
 _atom_site_type_symbol
 _atom_site_label
 _atom_site_symmetry_multiplicity
 _atom_site_fract_x
 _atom_site_fract_y
 _atom_site_fract_z
 _atom_site_occupancy
 _atom_site_charge
Ag  Ag1  1  0.82970000  0.31293000  0.99829000  1.0 0.2107974869
Ag  Ag2  1  0.06293000  0.42030000  0.74829000  1.0 0.2107974869
Ag  Ag3  1  0.17030000  0.31293000  0.50171000  1.0 0.2107974869
Ag  Ag4  1  0.17030000  0.18707000  0.49829000  1.0 0.2107974869
Ag  Ag5  1  0.06293000  0.07970000  0.25171000  1.0 0.2107974869
Ag  Ag6  1  0.93707000  0.07970000  0.24829000  1.0 0.2107974869
Ag  Ag7  1  0.82970000  0.18707000  0.00171000  1.0 0.2107974869
Ag  Ag8  1  0.93707000  0.42030000  0.75171000  1.0 0.2107974869
Ag  Ag9  1  0.32970000  0.81293000  0.49829000  1.0 0.2107974869
Ag  Ag10  1  0.56293000  0.92030000  0.24829000  1.0 0.2107974869
Ag  Ag11  1  0.67030000  0.81293000  0.00171000  1.0 0.2107974869
Ag  Ag12  1  0.67030000  0.68707000  0.99829000  1.0 0.2107974869
Ag  Ag13  1  0.56293000  0.57970000  0.75171000  1.0 0.2107974869
Ag  Ag14  1  0.43707000  0.57970000  0.74829000  1.0 0.2107974869
Ag  Ag15  1  0.32970000  0.68707000  0.50171000  1.0 0.2107974869
Ag  Ag16  1  0.43707000  0.92030000  0.25171000  1.0 0.2107974869
Ag  Ag17  1  0.17030000  0.68707000  0.00171000  1.0 0.2107974869
Ag  Ag18  1  0.93707000  0.57970000  0.25171000  1.0 0.2107974869
Ag  Ag19  1  0.82970000  0.68707000  0.49829000  1.0 0.2107974869
Ag  Ag20  1  0.82970000  0.81293000  0.50171000  1.0 0.2107974869
Ag  Ag21  1  0.93707000  0.92030000  0.74829000  1.0 0.2107974869
Ag  Ag22  1  0.06293000  0.92030000  0.75171000  1.0 0.2107974869
Ag  Ag23  1  0.17030000  0.81293000  0.99829000  1.0 0.2107974869
Ag  Ag24  1  0.06293000  0.57970000  0.24829000  1.0 0.2107974869
Ag  Ag25  1  0.67030000  0.18707000  0.50171000  1.0 0.2107974869
Ag  Ag26  1  0.43707000  0.07970000  0.75171000  1.0 0.2107974869
Ag  Ag27  1  0.32970000  0.18707000  0.99829000  1.0 0.2107974869
Ag  Ag28  1  0.32970000  0.31293000  0.00171000  1.0 0.2107974869
Ag  Ag29  1  0.43707000  0.42030000  0.24829000  1.0 0.2107974869
Ag  Ag30  1  0.56293000  0.42030000  0.25171000  1.0 0.2107974869
Ag  Ag31  1  0.67030000  0.31293000  0.49829000  1.0 0.2107974869
Ag  Ag32  1  0.56293000  0.07970000  0.74829000  1.0 0.2107974869
P  P1  1  0.45790000  0.84220000  0.70750000  1.0 1.4011733747
P  P2  1  0.90780000  0.20790000  0.45750000  1.0 1.4011733747
P  P3  1  0.45790000  0.65780000  0.29250000  1.0 1.4011733747
P  P4  1  0.54210000  0.65780000  0.20750000  1.0 1.4011733747
P  P5  1  0.09220000  0.20790000  0.04250000  1.0 1.4011733747
P  P6  1  0.09220000  0.29210000  0.95750000  1.0 1.4011733747
P  P7  1  0.54210000  0.84220000  0.79250000  1.0 1.4011733747
P  P8  1  0.90780000  0.29210000  0.54250000  1.0 1.4011733747
P  P9  1  0.95790000  0.34220000  0.20750000  1.0 1.4011733747
P  P10  1  0.40780000  0.70790000  0.95750000  1.0 1.4011733747
P  P11  1  0.95790000  0.15780000  0.79250000  1.0 1.4011733747
P  P12  1  0.04210000  0.15780000  0.70750000  1.0 1.4011733747
P  P13  1  0.59220000  0.70790000  0.54250000  1.0 1.4011733747
P  P14  1  0.59220000  0.79210000  0.45750000  1.0 1.4011733747
P  P15  1  0.04210000  0.34220000  0.29250000  1.0 1.4011733747
P  P16  1  0.40780000  0.79210000  0.04250000  1.0 1.4011733747
P  P17  1  0.54210000  0.15780000  0.29250000  1.0 1.4011733747
P  P18  1  0.09220000  0.79210000  0.54250000  1.0 1.4011733747
P  P19  1  0.54210000  0.34220000  0.70750000  1.0 1.4011733747
P  P20  1  0.45790000  0.34220000  0.79250000  1.0 1.4011733747
P  P21  1  0.90780000  0.79210000  0.95750000  1.0 1.4011733747
P  P22  1  0.90780000  0.70790000  0.04250000  1.0 1.4011733747
P  P23  1  0.45790000  0.15780000  0.20750000  1.0 1.4011733747
P  P24  1  0.09220000  0.70790000  0.45750000  1.0 1.4011733747
P  P25  1  0.04210000  0.65780000  0.79250000  1.0 1.4011733747
P  P26  1  0.59220000  0.29210000  0.04250000  1.0 1.4011733747
P  P27  1  0.04210000  0.84220000  0.20750000  1.0 1.4011733747
P  P28  1  0.95790000  0.84220000  0.29250000  1.0 1.4011733747
P  P29  1  0.40780000  0.29210000  0.45750000  1.0 1.4011733747
P  P30  1  0.40780000  0.20790000  0.54250000  1.0 1.4011733747
P  P31  1  0.95790000  0.65780000  0.70750000  1.0 1.4011733747
P  P32  1  0.59220000  0.20790000  0.95750000  1.0 1.4011733747
H  H1  1  0.71780000  0.28850000  0.97660000  1.0 0.1287152547
H  H2  1  0.03850000  0.53220000  0.72660000  1.0 0.1287152547
H  H3  1  0.28220000  0.28850000  0.52340000  1.0 0.1287152547
H  H4  1  0.28220000  0.21150000  0.47660000  1.0 0.1287152547
H  H5  1  0.03850000  0.96780000  0.27340000  1.0 0.1287152547
H  H6  1  0.96150000  0.96780000  0.22660000  1.0 0.1287152547
H  H7  1  0.71780000  0.21150000  0.02340000  1.0 0.1287152547
H  H8  1  0.96150000  0.53220000  0.77340000  1.0 0.1287152547
H  H9  1  0.21780000  0.78850000  0.47660000  1.0 0.1287152547
H  H10  1  0.53850000  0.03220000  0.22660000  1.0 0.1287152547
H  H11  1  0.78220000  0.78850000  0.02340000  1.0 0.1287152547
H  H12  1  0.78220000  0.71150000  0.97660000  1.0 0.1287152547
H  H13  1  0.53850000  0.46780000  0.77340000  1.0 0.1287152547
H  H14  1  0.46150000  0.46780000  0.72660000  1.0 0.1287152547
H  H15  1  0.21780000  0.71150000  0.52340000  1.0 0.1287152547
H  H16  1  0.46150000  0.03220000  0.27340000  1.0 0.1287152547
H  H17  1  0.28220000  0.71150000  0.02340000  1.0 0.1287152547
H  H18  1  0.96150000  0.46780000  0.27340000  1.0 0.1287152547
H  H19  1  0.71780000  0.71150000  0.47660000  1.0 0.1287152547
H  H20  1  0.71780000  0.78850000  0.52340000  1.0 0.1287152547
H  H21  1  0.96150000  0.03220000  0.72660000  1.0 0.1287152547
H  H22  1  0.03850000  0.03220000  0.77340000  1.0 0.1287152547
H  H23  1  0.28220000  0.78850000  0.97660000  1.0 0.1287152547
H  H24  1  0.03850000  0.46780000  0.22660000  1.0 0.1287152547
H  H25  1  0.78220000  0.21150000  0.52340000  1.0 0.1287152547
H  H26  1  0.46150000  0.96780000  0.77340000  1.0 0.1287152547
H  H27  1  0.21780000  0.21150000  0.97660000  1.0 0.1287152547
H  H28  1  0.21780000  0.28850000  0.02340000  1.0 0.1287152547
H  H29  1  0.46150000  0.53220000  0.22660000  1.0 0.1287152547
H  H30  1  0.53850000  0.53220000  0.27340000  1.0 0.1287152547
H  H31  1  0.78220000  0.28850000  0.47660000  1.0 0.1287152547
H  H32  1  0.53850000  0.96780000  0.72660000  1.0 0.1287152547
H  H33  1  0.68100000  0.29590000  0.94620000  1.0 0.1638267551
H  H34  1  0.04590000  0.56900000  0.69620000  1.0 0.1638267551
H  H35  1  0.31900000  0.29590000  0.55380000  1.0 0.1638267551
H  H36  1  0.31900000  0.20410000  0.44620000  1.0 0.1638267551
H  H37  1  0.04590000  0.93100000  0.30380000  1.0 0.1638267551
H  H38  1  0.95410000  0.93100000  0.19620000  1.0 0.1638267551
H  H39  1  0.68100000  0.20410000  0.05380000  1.0 0.1638267551
H  H40  1  0.95410000  0.56900000  0.80380000  1.0 0.1638267551
H  H41  1  0.18100000  0.79590000  0.44620000  1.0 0.1638267551
H  H42  1  0.54590000  0.06900000  0.19620000  1.0 0.1638267551
H  H43  1  0.81900000  0.79590000  0.05380000  1.0 0.1638267551
H  H44  1  0.81900000  0.70410000  0.94620000  1.0 0.1638267551
H  H45  1  0.54590000  0.43100000  0.80380000  1.0 0.1638267551
H  H46  1  0.45410000  0.43100000  0.69620000  1.0 0.1638267551
H  H47  1  0.18100000  0.70410000  0.55380000  1.0 0.1638267551
H  H48  1  0.45410000  0.06900000  0.30380000  1.0 0.1638267551
H  H49  1  0.31900000  0.70410000  0.05380000  1.0 0.1638267551
H  H50  1  0.95410000  0.43100000  0.30380000  1.0 0.1638267551
H  H51  1  0.68100000  0.70410000  0.44620000  1.0 0.1638267551
H  H52  1  0.68100000  0.79590000  0.55380000  1.0 0.1638267551
H  H53  1  0.95410000  0.06900000  0.69620000  1.0 0.1638267551
H  H54  1  0.04590000  0.06900000  0.80380000  1.0 0.1638267551
H  H55  1  0.31900000  0.79590000  0.94620000  1.0 0.1638267551
H  H56  1  0.04590000  0.43100000  0.19620000  1.0 0.1638267551
H  H57  1  0.81900000  0.20410000  0.55380000  1.0 0.1638267551
H  H58  1  0.45410000  0.93100000  0.80380000  1.0 0.1638267551
H  H59  1  0.18100000  0.20410000  0.94620000  1.0 0.1638267551
H  H60  1  0.18100000  0.29590000  0.05380000  1.0 0.1638267551
H  H61  1  0.45410000  0.56900000  0.19620000  1.0 0.1638267551
H  H62  1  0.54590000  0.56900000  0.30380000  1.0 0.1638267551
H  H63  1  0.81900000  0.29590000  0.44620000  1.0 0.1638267551
H  H64  1  0.54590000  0.93100000  0.69620000  1.0 0.1638267551
H  H65  1  0.82250000  0.34720000  0.92530000  1.0 0.1480849782
H  H66  1  0.09720000  0.42750000  0.67530000  1.0 0.1480849782
H  H67  1  0.17750000  0.34720000  0.57470000  1.0 0.1480849782
H  H68  1  0.17750000  0.15280000  0.42530000  1.0 0.1480849782
H  H69  1  0.09720000  0.07250000  0.32470000  1.0 0.1480849782
H  H70  1  0.90280000  0.07250000  0.17530000  1.0 0.1480849782
H  H71  1  0.82250000  0.15280000  0.07470000  1.0 0.1480849782
H  H72  1  0.90280000  0.42750000  0.82470000  1.0 0.1480849782
H  H73  1  0.32250000  0.84720000  0.42530000  1.0 0.1480849782
H  H74  1  0.59720000  0.92750000  0.17530000  1.0 0.1480849782
H  H75  1  0.67750000  0.84720000  0.07470000  1.0 0.1480849782
H  H76  1  0.67750000  0.65280000  0.92530000  1.0 0.1480849782
H  H77  1  0.59720000  0.57250000  0.82470000  1.0 0.1480849782
H  H78  1  0.40280000  0.57250000  0.67530000  1.0 0.1480849782
H  H79  1  0.32250000  0.65280000  0.57470000  1.0 0.1480849782
H  H80  1  0.40280000  0.92750000  0.32470000  1.0 0.1480849782
H  H81  1  0.17750000  0.65280000  0.07470000  1.0 0.1480849782
H  H82  1  0.90280000  0.57250000  0.32470000  1.0 0.1480849782
H  H83  1  0.82250000  0.65280000  0.42530000  1.0 0.1480849782
H  H84  1  0.82250000  0.84720000  0.57470000  1.0 0.1480849782
H  H85  1  0.90280000  0.92750000  0.67530000  1.0 0.1480849782
H  H86  1  0.09720000  0.92750000  0.82470000  1.0 0.1480849782
H  H87  1  0.17750000  0.84720000  0.92530000  1.0 0.1480849782
H  H88  1  0.09720000  0.57250000  0.17530000  1.0 0.1480849782
H  H89  1  0.67750000  0.15280000  0.57470000  1.0 0.1480849782
H  H90  1  0.40280000  0.07250000  0.82470000  1.0 0.1480849782
H  H91  1  0.32250000  0.15280000  0.92530000  1.0 0.1480849782
H  H92  1  0.32250000  0.34720000  0.07470000  1.0 0.1480849782
H  H93  1  0.40280000  0.42750000  0.17530000  1.0 0.1480849782
H  H94  1  0.59720000  0.42750000  0.32470000  1.0 0.1480849782
H  H95  1  0.67750000  0.34720000  0.42530000  1.0 0.1480849782
H  H96  1  0.59720000  0.07250000  0.67530000  1.0 0.1480849782
H  H97  1  0.86300000  0.33590000  0.95640000  1.0 0.1206461058
H  H98  1  0.08590000  0.38700000  0.70640000  1.0 0.1206461058
H  H99  1  0.13700000  0.33590000  0.54360000  1.0 0.1206461058
H  H100  1  0.13700000  0.16410000  0.45640000  1.0 0.1206461058
H  H101  1  0.08590000  0.11300000  0.29360000  1.0 0.1206461058
H  H102  1  0.91410000  0.11300000  0.20640000  1.0 0.1206461058
H  H103  1  0.86300000  0.16410000  0.04360000  1.0 0.1206461058
H  H104  1  0.91410000  0.38700000  0.79360000  1.0 0.1206461058
H  H105  1  0.36300000  0.83590000  0.45640000  1.0 0.1206461058
H  H106  1  0.58590000  0.88700000  0.20640000  1.0 0.1206461058
H  H107  1  0.63700000  0.83590000  0.04360000  1.0 0.1206461058
H  H108  1  0.63700000  0.66410000  0.95640000  1.0 0.1206461058
H  H109  1  0.58590000  0.61300000  0.79360000  1.0 0.1206461058
H  H110  1  0.41410000  0.61300000  0.70640000  1.0 0.1206461058
H  H111  1  0.36300000  0.66410000  0.54360000  1.0 0.1206461058
H  H112  1  0.41410000  0.88700000  0.29360000  1.0 0.1206461058
H  H113  1  0.13700000  0.66410000  0.04360000  1.0 0.1206461058
H  H114  1  0.91410000  0.61300000  0.29360000  1.0 0.1206461058
H  H115  1  0.86300000  0.66410000  0.45640000  1.0 0.1206461058
H  H116  1  0.86300000  0.83590000  0.54360000  1.0 0.1206461058
H  H117  1  0.91410000  0.88700000  0.70640000  1.0 0.1206461058
H  H118  1  0.08590000  0.88700000  0.79360000  1.0 0.1206461058
H  H119  1  0.13700000  0.83590000  0.95640000  1.0 0.1206461058
H  H120  1  0.08590000  0.61300000  0.20640000  1.0 0.1206461058
H  H121  1  0.63700000  0.16410000  0.54360000  1.0 0.1206461058
H  H122  1  0.41410000  0.11300000  0.79360000  1.0 0.1206461058
H  H123  1  0.36300000  0.16410000  0.95640000  1.0 0.1206461058
H  H124  1  0.36300000  0.33590000  0.04360000  1.0 0.1206461058
H  H125  1  0.41410000  0.38700000  0.20640000  1.0 0.1206461058
H  H126  1  0.58590000  0.38700000  0.29360000  1.0 0.1206461058
H  H127  1  0.63700000  0.33590000  0.45640000  1.0 0.1206461058
H  H128  1  0.58590000  0.11300000  0.70640000  1.0 0.1206461058
H  H129  1  0.59050000  0.04660000  0.79040000  1.0 0.1206461058
H  H130  1  0.79660000  0.65950000  0.54040000  1.0 0.1206461058
H  H131  1  0.40950000  0.04660000  0.70960000  1.0 0.1206461058
H  H132  1  0.40950000  0.45340000  0.29040000  1.0 0.1206461058
H  H133  1  0.79660000  0.84050000  0.45960000  1.0 0.1206461058
H  H134  1  0.20340000  0.84050000  0.04040000  1.0 0.1206461058
H  H135  1  0.59050000  0.45340000  0.20960000  1.0 0.1206461058
H  H136  1  0.20340000  0.65950000  0.95960000  1.0 0.1206461058
H  H137  1  0.09050000  0.54660000  0.29040000  1.0 0.1206461058
H  H138  1  0.29660000  0.15950000  0.04040000  1.0 0.1206461058
H  H139  1  0.90950000  0.54660000  0.20960000  1.0 0.1206461058
H  H140  1  0.90950000  0.95340000  0.79040000  1.0 0.1206461058
H  H141  1  0.29660000  0.34050000  0.95960000  1.0 0.1206461058
H  H142  1  0.70340000  0.34050000  0.54040000  1.0 0.1206461058
H  H143  1  0.09050000  0.95340000  0.70960000  1.0 0.1206461058
H  H144  1  0.70340000  0.15950000  0.45960000  1.0 0.1206461058
H  H145  1  0.40950000  0.95340000  0.20960000  1.0 0.1206461058
H  H146  1  0.20340000  0.34050000  0.45960000  1.0 0.1206461058
H  H147  1  0.59050000  0.95340000  0.29040000  1.0 0.1206461058
H  H148  1  0.59050000  0.54660000  0.70960000  1.0 0.1206461058
H  H149  1  0.20340000  0.15950000  0.54040000  1.0 0.1206461058
H  H150  1  0.79660000  0.15950000  0.95960000  1.0 0.1206461058
H  H151  1  0.40950000  0.54660000  0.79040000  1.0 0.1206461058
H  H152  1  0.79660000  0.34050000  0.04040000  1.0 0.1206461058
H  H153  1  0.90950000  0.45340000  0.70960000  1.0 0.1206461058
H  H154  1  0.70340000  0.84050000  0.95960000  1.0 0.1206461058
H  H155  1  0.09050000  0.45340000  0.79040000  1.0 0.1206461058
H  H156  1  0.09050000  0.04660000  0.20960000  1.0 0.1206461058
H  H157  1  0.70340000  0.65950000  0.04040000  1.0 0.1206461058
H  H158  1  0.29660000  0.65950000  0.45960000  1.0 0.1206461058
H  H159  1  0.90950000  0.04660000  0.29040000  1.0 0.1206461058
H  H160  1  0.29660000  0.84050000  0.54040000  1.0 0.1206461058
H  H161  1  0.59050000  0.08350000  0.82200000  1.0 0.1480849782
H  H162  1  0.83350000  0.65950000  0.57200000  1.0 0.1480849782
H  H163  1  0.40950000  0.08350000  0.67800000  1.0 0.1480849782
H  H164  1  0.40950000  0.41650000  0.32200000  1.0 0.1480849782
H  H165  1  0.83350000  0.84050000  0.42800000  1.0 0.1480849782
H  H166  1  0.16650000  0.84050000  0.07200000  1.0 0.1480849782
H  H167  1  0.59050000  0.41650000  0.17800000  1.0 0.1480849782
H  H168  1  0.16650000  0.65950000  0.92800000  1.0 0.1480849782
H  H169  1  0.09050000  0.58350000  0.32200000  1.0 0.1480849782
H  H170  1  0.33350000  0.15950000  0.07200000  1.0 0.1480849782
H  H171  1  0.90950000  0.58350000  0.17800000  1.0 0.1480849782
H  H172  1  0.90950000  0.91650000  0.82200000  1.0 0.1480849782
H  H173  1  0.33350000  0.34050000  0.92800000  1.0 0.1480849782
H  H174  1  0.66650000  0.34050000  0.57200000  1.0 0.1480849782
H  H175  1  0.09050000  0.91650000  0.67800000  1.0 0.1480849782
H  H176  1  0.66650000  0.15950000  0.42800000  1.0 0.1480849782
H  H177  1  0.40950000  0.91650000  0.17800000  1.0 0.1480849782
H  H178  1  0.16650000  0.34050000  0.42800000  1.0 0.1480849782
H  H179  1  0.59050000  0.91650000  0.32200000  1.0 0.1480849782
H  H180  1  0.59050000  0.58350000  0.67800000  1.0 0.1480849782
H  H181  1  0.16650000  0.15950000  0.57200000  1.0 0.1480849782
H  H182  1  0.83350000  0.15950000  0.92800000  1.0 0.1480849782
H  H183  1  0.40950000  0.58350000  0.82200000  1.0 0.1480849782
H  H184  1  0.83350000  0.34050000  0.07200000  1.0 0.1480849782
H  H185  1  0.90950000  0.41650000  0.67800000  1.0 0.1480849782
H  H186  1  0.66650000  0.84050000  0.92800000  1.0 0.1480849782
H  H187  1  0.09050000  0.41650000  0.82200000  1.0 0.1480849782
H  H188  1  0.09050000  0.08350000  0.17800000  1.0 0.1480849782
H  H189  1  0.66650000  0.65950000  0.07200000  1.0 0.1480849782
H  H190  1  0.33350000  0.65950000  0.42800000  1.0 0.1480849782
H  H191  1  0.90950000  0.08350000  0.32200000  1.0 0.1480849782
H  H192  1  0.33350000  0.84050000  0.57200000  1.0 0.1480849782
H  H193  1  0.54360000  0.23080000  0.79990000  1.0 0.1638267551
H  H194  1  0.98080000  0.70640000  0.54990000  1.0 0.1638267551
H  H195  1  0.45640000  0.23080000  0.70010000  1.0 0.1638267551
H  H196  1  0.45640000  0.26920000  0.29990000  1.0 0.1638267551
H  H197  1  0.98080000  0.79360000  0.45010000  1.0 0.1638267551
H  H198  1  0.01920000  0.79360000  0.04990000  1.0 0.1638267551
H  H199  1  0.54360000  0.26920000  0.20010000  1.0 0.1638267551
H  H200  1  0.01920000  0.70640000  0.95010000  1.0 0.1638267551
H  H201  1  0.04360000  0.73080000  0.29990000  1.0 0.1638267551
H  H202  1  0.48080000  0.20640000  0.04990000  1.0 0.1638267551
H  H203  1  0.95640000  0.73080000  0.20010000  1.0 0.1638267551
H  H204  1  0.95640000  0.76920000  0.79990000  1.0 0.1638267551
H  H205  1  0.48080000  0.29360000  0.95010000  1.0 0.1638267551
H  H206  1  0.51920000  0.29360000  0.54990000  1.0 0.1638267551
H  H207  1  0.04360000  0.76920000  0.70010000  1.0 0.1638267551
H  H208  1  0.51920000  0.20640000  0.45010000  1.0 0.1638267551
H  H209  1  0.45640000  0.76920000  0.20010000  1.0 0.1638267551
H  H210  1  0.01920000  0.29360000  0.45010000  1.0 0.1638267551
H  H211  1  0.54360000  0.76920000  0.29990000  1.0 0.1638267551
H  H212  1  0.54360000  0.73080000  0.70010000  1.0 0.1638267551
H  H213  1  0.01920000  0.20640000  0.54990000  1.0 0.1638267551
H  H214  1  0.98080000  0.20640000  0.95010000  1.0 0.1638267551
H  H215  1  0.45640000  0.73080000  0.79990000  1.0 0.1638267551
H  H216  1  0.98080000  0.29360000  0.04990000  1.0 0.1638267551
H  H217  1  0.95640000  0.26920000  0.70010000  1.0 0.1638267551
H  H218  1  0.51920000  0.79360000  0.95010000  1.0 0.1638267551
H  H219  1  0.04360000  0.26920000  0.79990000  1.0 0.1638267551
H  H220  1  0.04360000  0.23080000  0.20010000  1.0 0.1638267551
H  H221  1  0.51920000  0.70640000  0.04990000  1.0 0.1638267551
H  H222  1  0.48080000  0.70640000  0.45010000  1.0 0.1638267551
H  H223  1  0.95640000  0.23080000  0.29990000  1.0 0.1638267551
H  H224  1  0.48080000  0.79360000  0.54990000  1.0 0.1638267551
H  H225  1  0.54520000  0.19270000  0.76840000  1.0 0.1287152547
H  H226  1  0.94270000  0.70480000  0.51840000  1.0 0.1287152547
H  H227  1  0.45480000  0.19270000  0.73160000  1.0 0.1287152547
H  H228  1  0.45480000  0.30730000  0.26840000  1.0 0.1287152547
H  H229  1  0.94270000  0.79520000  0.48160000  1.0 0.1287152547
H  H230  1  0.05730000  0.79520000  0.01840000  1.0 0.1287152547
H  H231  1  0.54520000  0.30730000  0.23160000  1.0 0.1287152547
H  H232  1  0.05730000  0.70480000  0.98160000  1.0 0.1287152547
H  H233  1  0.04520000  0.69270000  0.26840000  1.0 0.1287152547
H  H234  1  0.44270000  0.20480000  0.01840000  1.0 0.1287152547
H  H235  1  0.95480000  0.69270000  0.23160000  1.0 0.1287152547
H  H236  1  0.95480000  0.80730000  0.76840000  1.0 0.1287152547
H  H237  1  0.44270000  0.29520000  0.98160000  1.0 0.1287152547
H  H238  1  0.55730000  0.29520000  0.51840000  1.0 0.1287152547
H  H239  1  0.04520000  0.80730000  0.73160000  1.0 0.1287152547
H  H240  1  0.55730000  0.20480000  0.48160000  1.0 0.1287152547
H  H241  1  0.45480000  0.80730000  0.23160000  1.0 0.1287152547
H  H242  1  0.05730000  0.29520000  0.48160000  1.0 0.1287152547
H  H243  1  0.54520000  0.80730000  0.26840000  1.0 0.1287152547
H  H244  1  0.54520000  0.69270000  0.73160000  1.0 0.1287152547
H  H245  1  0.05730000  0.20480000  0.51840000  1.0 0.1287152547
H  H246  1  0.94270000  0.20480000  0.98160000  1.0 0.1287152547
H  H247  1  0.45480000  0.69270000  0.76840000  1.0 0.1287152547
H  H248  1  0.94270000  0.29520000  0.01840000  1.0 0.1287152547
H  H249  1  0.95480000  0.30730000  0.73160000  1.0 0.1287152547
H  H250  1  0.55730000  0.79520000  0.98160000  1.0 0.1287152547
H  H251  1  0.04520000  0.30730000  0.76840000  1.0 0.1287152547
H  H252  1  0.04520000  0.19270000  0.23160000  1.0 0.1287152547
H  H253  1  0.55730000  0.70480000  0.01840000  1.0 0.1287152547
H  H254  1  0.44270000  0.70480000  0.48160000  1.0 0.1287152547
H  H255  1  0.95480000  0.19270000  0.26840000  1.0 0.1287152547
H  H256  1  0.44270000  0.79520000  0.51840000  1.0 0.1287152547
H  H257  1  0.72030000  0.18910000  0.90240000  1.0 0.1287152547
H  H258  1  0.93910000  0.52970000  0.65240000  1.0 0.1287152547
H  H259  1  0.27970000  0.18910000  0.59760000  1.0 0.1287152547
H  H260  1  0.27970000  0.31090000  0.40240000  1.0 0.1287152547
H  H261  1  0.93910000  0.97030000  0.34760000  1.0 0.1287152547
H  H262  1  0.06090000  0.97030000  0.15240000  1.0 0.1287152547
H  H263  1  0.72030000  0.31090000  0.09760000  1.0 0.1287152547
H  H264  1  0.06090000  0.52970000  0.84760000  1.0 0.1287152547
H  H265  1  0.22030000  0.68910000  0.40240000  1.0 0.1287152547
H  H266  1  0.43910000  0.02970000  0.15240000  1.0 0.1287152547
H  H267  1  0.77970000  0.68910000  0.09760000  1.0 0.1287152547
H  H268  1  0.77970000  0.81090000  0.90240000  1.0 0.1287152547
H  H269  1  0.43910000  0.47030000  0.84760000  1.0 0.1287152547
H  H270  1  0.56090000  0.47030000  0.65240000  1.0 0.1287152547
H  H271  1  0.22030000  0.81090000  0.59760000  1.0 0.1287152547
H  H272  1  0.56090000  0.02970000  0.34760000  1.0 0.1287152547
H  H273  1  0.27970000  0.81090000  0.09760000  1.0 0.1287152547
H  H274  1  0.06090000  0.47030000  0.34760000  1.0 0.1287152547
H  H275  1  0.72030000  0.81090000  0.40240000  1.0 0.1287152547
H  H276  1  0.72030000  0.68910000  0.59760000  1.0 0.1287152547
H  H277  1  0.06090000  0.02970000  0.65240000  1.0 0.1287152547
H  H278  1  0.93910000  0.02970000  0.84760000  1.0 0.1287152547
H  H279  1  0.27970000  0.68910000  0.90240000  1.0 0.1287152547
H  H280  1  0.93910000  0.47030000  0.15240000  1.0 0.1287152547
H  H281  1  0.77970000  0.31090000  0.59760000  1.0 0.1287152547
H  H282  1  0.56090000  0.97030000  0.84760000  1.0 0.1287152547
H  H283  1  0.22030000  0.31090000  0.90240000  1.0 0.1287152547
H  H284  1  0.22030000  0.18910000  0.09760000  1.0 0.1287152547
H  H285  1  0.56090000  0.52970000  0.15240000  1.0 0.1287152547
H  H286  1  0.43910000  0.52970000  0.34760000  1.0 0.1287152547
H  H287  1  0.77970000  0.18910000  0.40240000  1.0 0.1287152547
H  H288  1  0.43910000  0.97030000  0.65240000  1.0 0.1287152547
H  H289  1  0.76750000  0.21590000  0.91410000  1.0 0.1206461058
H  H290  1  0.96590000  0.48250000  0.66410000  1.0 0.1206461058
H  H291  1  0.23250000  0.21590000  0.58590000  1.0 0.1206461058
H  H292  1  0.23250000  0.28410000  0.41410000  1.0 0.1206461058
H  H293  1  0.96590000  0.01750000  0.33590000  1.0 0.1206461058
H  H294  1  0.03410000  0.01750000  0.16410000  1.0 0.1206461058
H  H295  1  0.76750000  0.28410000  0.08590000  1.0 0.1206461058
H  H296  1  0.03410000  0.48250000  0.83590000  1.0 0.1206461058
H  H297  1  0.26750000  0.71590000  0.41410000  1.0 0.1206461058
H  H298  1  0.46590000  0.98250000  0.16410000  1.0 0.1206461058
H  H299  1  0.73250000  0.71590000  0.08590000  1.0 0.1206461058
H  H300  1  0.73250000  0.78410000  0.91410000  1.0 0.1206461058
H  H301  1  0.46590000  0.51750000  0.83590000  1.0 0.1206461058
H  H302  1  0.53410000  0.51750000  0.66410000  1.0 0.1206461058
H  H303  1  0.26750000  0.78410000  0.58590000  1.0 0.1206461058
H  H304  1  0.53410000  0.98250000  0.33590000  1.0 0.1206461058
H  H305  1  0.23250000  0.78410000  0.08590000  1.0 0.1206461058
H  H306  1  0.03410000  0.51750000  0.33590000  1.0 0.1206461058
H  H307  1  0.76750000  0.78410000  0.41410000  1.0 0.1206461058
H  H308  1  0.76750000  0.71590000  0.58590000  1.0 0.1206461058
H  H309  1  0.03410000  0.98250000  0.66410000  1.0 0.1206461058
H  H310  1  0.96590000  0.98250000  0.83590000  1.0 0.1206461058
H  H311  1  0.23250000  0.71590000  0.91410000  1.0 0.1206461058
H  H312  1  0.96590000  0.51750000  0.16410000  1.0 0.1206461058
H  H313  1  0.73250000  0.28410000  0.58590000  1.0 0.1206461058
H  H314  1  0.53410000  0.01750000  0.83590000  1.0 0.1206461058
H  H315  1  0.26750000  0.28410000  0.91410000  1.0 0.1206461058
H  H316  1  0.26750000  0.21590000  0.08590000  1.0 0.1206461058
H  H317  1  0.53410000  0.48250000  0.16410000  1.0 0.1206461058
H  H318  1  0.46590000  0.48250000  0.33590000  1.0 0.1206461058
H  H319  1  0.73250000  0.21590000  0.41410000  1.0 0.1206461058
H  H320  1  0.46590000  0.01750000  0.66410000  1.0 0.1206461058
H  H321  1  0.70910000  0.21330000  0.92280000  1.0 0.1398649014
H  H322  1  0.96330000  0.54090000  0.67280000  1.0 0.1398649014
H  H323  1  0.29090000  0.21330000  0.57720000  1.0 0.1398649014
H  H324  1  0.29090000  0.28670000  0.42280000  1.0 0.1398649014
H  H325  1  0.96330000  0.95910000  0.32720000  1.0 0.1398649014
H  H326  1  0.03670000  0.95910000  0.17280000  1.0 0.1398649014
H  H327  1  0.70910000  0.28670000  0.07720000  1.0 0.1398649014
H  H328  1  0.03670000  0.54090000  0.82720000  1.0 0.1398649014
H  H329  1  0.20910000  0.71330000  0.42280000  1.0 0.1398649014
H  H330  1  0.46330000  0.04090000  0.17280000  1.0 0.1398649014
H  H331  1  0.79090000  0.71330000  0.07720000  1.0 0.1398649014
H  H332  1  0.79090000  0.78670000  0.92280000  1.0 0.1398649014
H  H333  1  0.46330000  0.45910000  0.82720000  1.0 0.1398649014
H  H334  1  0.53670000  0.45910000  0.67280000  1.0 0.1398649014
H  H335  1  0.20910000  0.78670000  0.57720000  1.0 0.1398649014
H  H336  1  0.53670000  0.04090000  0.32720000  1.0 0.1398649014
H  H337  1  0.29090000  0.78670000  0.07720000  1.0 0.1398649014
H  H338  1  0.03670000  0.45910000  0.32720000  1.0 0.1398649014
H  H339  1  0.70910000  0.78670000  0.42280000  1.0 0.1398649014
H  H340  1  0.70910000  0.71330000  0.57720000  1.0 0.1398649014
H  H341  1  0.03670000  0.04090000  0.67280000  1.0 0.1398649014
H  H342  1  0.96330000  0.04090000  0.82720000  1.0 0.1398649014
H  H343  1  0.29090000  0.71330000  0.92280000  1.0 0.1398649014
H  H344  1  0.96330000  0.45910000  0.17280000  1.0 0.1398649014
H  H345  1  0.79090000  0.28670000  0.57720000  1.0 0.1398649014
H  H346  1  0.53670000  0.95910000  0.82720000  1.0 0.1398649014
H  H347  1  0.20910000  0.28670000  0.92280000  1.0 0.1398649014
H  H348  1  0.20910000  0.21330000  0.07720000  1.0 0.1398649014
H  H349  1  0.53670000  0.54090000  0.17280000  1.0 0.1398649014
H  H350  1  0.46330000  0.54090000  0.32720000  1.0 0.1398649014
H  H351  1  0.79090000  0.21330000  0.42280000  1.0 0.1398649014
H  H352  1  0.46330000  0.95910000  0.67280000  1.0 0.1398649014
H  H353  1  0.66000000  0.29180000  0.84830000  1.0 0.1206461058
H  H354  1  0.04180000  0.59000000  0.59830000  1.0 0.1206461058
H  H355  1  0.34000000  0.29180000  0.65170000  1.0 0.1206461058
H  H356  1  0.34000000  0.20820000  0.34830000  1.0 0.1206461058
H  H357  1  0.04180000  0.91000000  0.40170000  1.0 0.1206461058
H  H358  1  0.95820000  0.91000000  0.09830000  1.0 0.1206461058
H  H359  1  0.66000000  0.20820000  0.15170000  1.0 0.1206461058
H  H360  1  0.95820000  0.59000000  0.90170000  1.0 0.1206461058
H  H361  1  0.16000000  0.79180000  0.34830000  1.0 0.1206461058
H  H362  1  0.54180000  0.09000000  0.09830000  1.0 0.1206461058
H  H363  1  0.84000000  0.79180000  0.15170000  1.0 0.1206461058
H  H364  1  0.84000000  0.70820000  0.84830000  1.0 0.1206461058
H  H365  1  0.54180000  0.41000000  0.90170000  1.0 0.1206461058
H  H366  1  0.45820000  0.41000000  0.59830000  1.0 0.1206461058
H  H367  1  0.16000000  0.70820000  0.65170000  1.0 0.1206461058
H  H368  1  0.45820000  0.09000000  0.40170000  1.0 0.1206461058
H  H369  1  0.34000000  0.70820000  0.15170000  1.0 0.1206461058
H  H370  1  0.95820000  0.41000000  0.40170000  1.0 0.1206461058
H  H371  1  0.66000000  0.70820000  0.34830000  1.0 0.1206461058
H  H372  1  0.66000000  0.79180000  0.65170000  1.0 0.1206461058
H  H373  1  0.95820000  0.09000000  0.59830000  1.0 0.1206461058
H  H374  1  0.04180000  0.09000000  0.90170000  1.0 0.1206461058
H  H375  1  0.34000000  0.79180000  0.84830000  1.0 0.1206461058
H  H376  1  0.04180000  0.41000000  0.09830000  1.0 0.1206461058
H  H377  1  0.84000000  0.20820000  0.65170000  1.0 0.1206461058
H  H378  1  0.45820000  0.91000000  0.90170000  1.0 0.1206461058
H  H379  1  0.16000000  0.20820000  0.84830000  1.0 0.1206461058
H  H380  1  0.16000000  0.29180000  0.15170000  1.0 0.1206461058
H  H381  1  0.45820000  0.59000000  0.09830000  1.0 0.1206461058
H  H382  1  0.54180000  0.59000000  0.40170000  1.0 0.1206461058
H  H383  1  0.84000000  0.29180000  0.34830000  1.0 0.1206461058
H  H384  1  0.54180000  0.91000000  0.59830000  1.0 0.1206461058
H  H385  1  0.63060000  0.34710000  0.85200000  1.0 0.1480849782
H  H386  1  0.09710000  0.61940000  0.60200000  1.0 0.1480849782
H  H387  1  0.36940000  0.34710000  0.64800000  1.0 0.1480849782
H  H388  1  0.36940000  0.15290000  0.35200000  1.0 0.1480849782
H  H389  1  0.09710000  0.88060000  0.39800000  1.0 0.1480849782
H  H390  1  0.90290000  0.88060000  0.10200000  1.0 0.1480849782
H  H391  1  0.63060000  0.15290000  0.14800000  1.0 0.1480849782
H  H392  1  0.90290000  0.61940000  0.89800000  1.0 0.1480849782
H  H393  1  0.13060000  0.84710000  0.35200000  1.0 0.1480849782
H  H394  1  0.59710000  0.11940000  0.10200000  1.0 0.1480849782
H  H395  1  0.86940000  0.84710000  0.14800000  1.0 0.1480849782
H  H396  1  0.86940000  0.65290000  0.85200000  1.0 0.1480849782
H  H397  1  0.59710000  0.38060000  0.89800000  1.0 0.1480849782
H  H398  1  0.40290000  0.38060000  0.60200000  1.0 0.1480849782
H  H399  1  0.13060000  0.65290000  0.64800000  1.0 0.1480849782
H  H400  1  0.40290000  0.11940000  0.39800000  1.0 0.1480849782
H  H401  1  0.36940000  0.65290000  0.14800000  1.0 0.1480849782
H  H402  1  0.90290000  0.38060000  0.39800000  1.0 0.1480849782
H  H403  1  0.63060000  0.65290000  0.35200000  1.0 0.1480849782
H  H404  1  0.63060000  0.84710000  0.64800000  1.0 0.1480849782
H  H405  1  0.90290000  0.11940000  0.60200000  1.0 0.1480849782
H  H406  1  0.09710000  0.11940000  0.89800000  1.0 0.1480849782
H  H407  1  0.36940000  0.84710000  0.85200000  1.0 0.1480849782
H  H408  1  0.09710000  0.38060000  0.10200000  1.0 0.1480849782
H  H409  1  0.86940000  0.15290000  0.64800000  1.0 0.1480849782
H  H410  1  0.40290000  0.88060000  0.89800000  1.0 0.1480849782
H  H411  1  0.13060000  0.15290000  0.85200000  1.0 0.1480849782
H  H412  1  0.13060000  0.34710000  0.14800000  1.0 0.1480849782
H  H413  1  0.40290000  0.61940000  0.10200000  1.0 0.1480849782
H  H414  1  0.59710000  0.61940000  0.39800000  1.0 0.1480849782
H  H415  1  0.86940000  0.34710000  0.35200000  1.0 0.1480849782
H  H416  1  0.59710000  0.88060000  0.60200000  1.0 0.1480849782
H  H417  1  0.69140000  0.34650000  0.84550000  1.0 0.1398649014
H  H418  1  0.09650000  0.55860000  0.59550000  1.0 0.1398649014
H  H419  1  0.30860000  0.34650000  0.65450000  1.0 0.1398649014
H  H420  1  0.30860000  0.15350000  0.34550000  1.0 0.1398649014
H  H421  1  0.09650000  0.94140000  0.40450000  1.0 0.1398649014
H  H422  1  0.90350000  0.94140000  0.09550000  1.0 0.1398649014
H  H423  1  0.69140000  0.15350000  0.15450000  1.0 0.1398649014
H  H424  1  0.90350000  0.55860000  0.90450000  1.0 0.1398649014
H  H425  1  0.19140000  0.84650000  0.34550000  1.0 0.1398649014
H  H426  1  0.59650000  0.05860000  0.09550000  1.0 0.1398649014
H  H427  1  0.80860000  0.84650000  0.15450000  1.0 0.1398649014
H  H428  1  0.80860000  0.65350000  0.84550000  1.0 0.1398649014
H  H429  1  0.59650000  0.44140000  0.90450000  1.0 0.1398649014
H  H430  1  0.40350000  0.44140000  0.59550000  1.0 0.1398649014
H  H431  1  0.19140000  0.65350000  0.65450000  1.0 0.1398649014
H  H432  1  0.40350000  0.05860000  0.40450000  1.0 0.1398649014
H  H433  1  0.30860000  0.65350000  0.15450000  1.0 0.1398649014
H  H434  1  0.90350000  0.44140000  0.40450000  1.0 0.1398649014
H  H435  1  0.69140000  0.65350000  0.34550000  1.0 0.1398649014
H  H436  1  0.69140000  0.84650000  0.65450000  1.0 0.1398649014
H  H437  1  0.90350000  0.05860000  0.59550000  1.0 0.1398649014
H  H438  1  0.09650000  0.05860000  0.90450000  1.0 0.1398649014
H  H439  1  0.30860000  0.84650000  0.84550000  1.0 0.1398649014
H  H440  1  0.09650000  0.44140000  0.09550000  1.0 0.1398649014
H  H441  1  0.80860000  0.15350000  0.65450000  1.0 0.1398649014
H  H442  1  0.40350000  0.94140000  0.90450000  1.0 0.1398649014
H  H443  1  0.19140000  0.15350000  0.84550000  1.0 0.1398649014
H  H444  1  0.19140000  0.34650000  0.15450000  1.0 0.1398649014
H  H445  1  0.40350000  0.55860000  0.09550000  1.0 0.1398649014
H  H446  1  0.59650000  0.55860000  0.40450000  1.0 0.1398649014
H  H447  1  0.80860000  0.34650000  0.34550000  1.0 0.1398649014
H  H448  1  0.59650000  0.94140000  0.59550000  1.0 0.1398649014
H  H449  1  0.71570000  0.45670000  0.90760000  1.0 0.1206461058
H  H450  1  0.20670000  0.53430000  0.65760000  1.0 0.1206461058
H  H451  1  0.28430000  0.45670000  0.59240000  1.0 0.1206461058
H  H452  1  0.28430000  0.04330000  0.40760000  1.0 0.1206461058
H  H453  1  0.20670000  0.96570000  0.34240000  1.0 0.1206461058
H  H454  1  0.79330000  0.96570000  0.15760000  1.0 0.1206461058
H  H455  1  0.71570000  0.04330000  0.09240000  1.0 0.1206461058
H  H456  1  0.79330000  0.53430000  0.84240000  1.0 0.1206461058
H  H457  1  0.21570000  0.95670000  0.40760000  1.0 0.1206461058
H  H458  1  0.70670000  0.03430000  0.15760000  1.0 0.1206461058
H  H459  1  0.78430000  0.95670000  0.09240000  1.0 0.1206461058
H  H460  1  0.78430000  0.54330000  0.90760000  1.0 0.1206461058
H  H461  1  0.70670000  0.46570000  0.84240000  1.0 0.1206461058
H  H462  1  0.29330000  0.46570000  0.65760000  1.0 0.1206461058
H  H463  1  0.21570000  0.54330000  0.59240000  1.0 0.1206461058
H  H464  1  0.29330000  0.03430000  0.34240000  1.0 0.1206461058
H  H465  1  0.28430000  0.54330000  0.09240000  1.0 0.1206461058
H  H466  1  0.79330000  0.46570000  0.34240000  1.0 0.1206461058
H  H467  1  0.71570000  0.54330000  0.40760000  1.0 0.1206461058
H  H468  1  0.71570000  0.95670000  0.59240000  1.0 0.1206461058
H  H469  1  0.79330000  0.03430000  0.65760000  1.0 0.1206461058
H  H470  1  0.20670000  0.03430000  0.84240000  1.0 0.1206461058
H  H471  1  0.28430000  0.95670000  0.90760000  1.0 0.1206461058
H  H472  1  0.20670000  0.46570000  0.15760000  1.0 0.1206461058
H  H473  1  0.78430000  0.04330000  0.59240000  1.0 0.1206461058
H  H474  1  0.29330000  0.96570000  0.84240000  1.0 0.1206461058
H  H475  1  0.21570000  0.04330000  0.90760000  1.0 0.1206461058
H  H476  1  0.21570000  0.45670000  0.09240000  1.0 0.1206461058
H  H477  1  0.29330000  0.53430000  0.15760000  1.0 0.1206461058
H  H478  1  0.70670000  0.53430000  0.34240000  1.0 0.1206461058
H  H479  1  0.78430000  0.45670000  0.40760000  1.0 0.1206461058
H  H480  1  0.70670000  0.96570000  0.65760000  1.0 0.1206461058
H  H481  1  0.70710000  0.42540000  0.92700000  1.0 0.1398649014
H  H482  1  0.17540000  0.54290000  0.67700000  1.0 0.1398649014
H  H483  1  0.29290000  0.42540000  0.57300000  1.0 0.1398649014
H  H484  1  0.29290000  0.07460000  0.42700000  1.0 0.1398649014
H  H485  1  0.17540000  0.95710000  0.32300000  1.0 0.1398649014
H  H486  1  0.82460000  0.95710000  0.17700000  1.0 0.1398649014
H  H487  1  0.70710000  0.07460000  0.07300000  1.0 0.1398649014
H  H488  1  0.82460000  0.54290000  0.82300000  1.0 0.1398649014
H  H489  1  0.20710000  0.92540000  0.42700000  1.0 0.1398649014
H  H490  1  0.67540000  0.04290000  0.17700000  1.0 0.1398649014
H  H491  1  0.79290000  0.92540000  0.07300000  1.0 0.1398649014
H  H492  1  0.79290000  0.57460000  0.92700000  1.0 0.1398649014
H  H493  1  0.67540000  0.45710000  0.82300000  1.0 0.1398649014
H  H494  1  0.32460000  0.45710000  0.67700000  1.0 0.1398649014
H  H495  1  0.20710000  0.57460000  0.57300000  1.0 0.1398649014
H  H496  1  0.32460000  0.04290000  0.32300000  1.0 0.1398649014
H  H497  1  0.29290000  0.57460000  0.07300000  1.0 0.1398649014
H  H498  1  0.82460000  0.45710000  0.32300000  1.0 0.1398649014
H  H499  1  0.70710000  0.57460000  0.42700000  1.0 0.1398649014
H  H500  1  0.70710000  0.92540000  0.57300000  1.0 0.1398649014
H  H501  1  0.82460000  0.04290000  0.67700000  1.0 0.1398649014
H  H502  1  0.17540000  0.04290000  0.82300000  1.0 0.1398649014
H  H503  1  0.29290000  0.92540000  0.92700000  1.0 0.1398649014
H  H504  1  0.17540000  0.45710000  0.17700000  1.0 0.1398649014
H  H505  1  0.79290000  0.07460000  0.57300000  1.0 0.1398649014
H  H506  1  0.32460000  0.95710000  0.82300000  1.0 0.1398649014
H  H507  1  0.20710000  0.07460000  0.92700000  1.0 0.1398649014
H  H508  1  0.20710000  0.42540000  0.07300000  1.0 0.1398649014
H  H509  1  0.32460000  0.54290000  0.17700000  1.0 0.1398649014
H  H510  1  0.67540000  0.54290000  0.32300000  1.0 0.1398649014
H  H511  1  0.79290000  0.42540000  0.42700000  1.0 0.1398649014
H  H512  1  0.67540000  0.95710000  0.67700000  1.0 0.1398649014
H  H513  1  0.76460000  0.42730000  0.91750000  1.0 0.1206461058
H  H514  1  0.17730000  0.48540000  0.66750000  1.0 0.1206461058
H  H515  1  0.23540000  0.42730000  0.58250000  1.0 0.1287152547
H  H516  1  0.23540000  0.07270000  0.41750000  1.0 0.1206461058
H  H517  1  0.17730000  0.01460000  0.33250000  1.0 0.1206461058
H  H518  1  0.82270000  0.01460000  0.16750000  1.0 0.1206461058
H  H519  1  0.76460000  0.07270000  0.08250000  1.0 0.1206461058
H  H520  1  0.82270000  0.48540000  0.83250000  1.0 0.1206461058
H  H521  1  0.26460000  0.92730000  0.41750000  1.0 0.1206461058
H  H522  1  0.67730000  0.98540000  0.16750000  1.0 0.1206461058
H  H523  1  0.73540000  0.92730000  0.08250000  1.0 0.1206461058
H  H524  1  0.73540000  0.57270000  0.91750000  1.0 0.1206461058
H  H525  1  0.67730000  0.51460000  0.83250000  1.0 0.1206461058
H  H526  1  0.32270000  0.51460000  0.66750000  1.0 0.1206461058
H  H527  1  0.26460000  0.57270000  0.58250000  1.0 0.1206461058
H  H528  1  0.32270000  0.98540000  0.33250000  1.0 0.1206461058
H  H529  1  0.23540000  0.57270000  0.08250000  1.0 0.1206461058
H  H530  1  0.82270000  0.51460000  0.33250000  1.0 0.1206461058
H  H531  1  0.76460000  0.57270000  0.41750000  1.0 0.1206461058
H  H532  1  0.76460000  0.92730000  0.58250000  1.0 0.1206461058
H  H533  1  0.82270000  0.98540000  0.66750000  1.0 0.1206461058
H  H534  1  0.17730000  0.98540000  0.83250000  1.0 0.1206461058
H  H535  1  0.23540000  0.92730000  0.91750000  1.0 0.1206461058
H  H536  1  0.17730000  0.51460000  0.16750000  1.0 0.1206461058
H  H537  1  0.73540000  0.07270000  0.58250000  1.0 0.1287152547
H  H538  1  0.32270000  0.01460000  0.83250000  1.0 0.1206461058
H  H539  1  0.26460000  0.07270000  0.91750000  1.0 0.1206461058
H  H540  1  0.26460000  0.42730000  0.08250000  1.0 0.1206461058
H  H541  1  0.32270000  0.48540000  0.16750000  1.0 0.1206461058
H  H542  1  0.67730000  0.48540000  0.33250000  1.0 0.1206461058
H  H543  1  0.73540000  0.42730000  0.41750000  1.0 0.1206461058
H  H544  1  0.67730000  0.01460000  0.66750000  1.0 0.1206461058
H  H545  1  0.70770000  0.43470000  0.86530000  1.0 0.1027980641
H  H546  1  0.18470000  0.54230000  0.61530000  1.0 0.1027980641
H  H547  1  0.29230000  0.43470000  0.63470000  1.0 0.1027980641
H  H548  1  0.29230000  0.06530000  0.36530000  1.0 0.1027980641
H  H549  1  0.18470000  0.95770000  0.38470000  1.0 0.1027980641
H  H550  1  0.81530000  0.95770000  0.11530000  1.0 0.1027980641
H  H551  1  0.70770000  0.06530000  0.13470000  1.0 0.1027980641
H  H552  1  0.81530000  0.54230000  0.88470000  1.0 0.1027980641
H  H553  1  0.20770000  0.93470000  0.36530000  1.0 0.1027980641
H  H554  1  0.68470000  0.04230000  0.11530000  1.0 0.1027980641
H  H555  1  0.79230000  0.93470000  0.13470000  1.0 0.1027980641
H  H556  1  0.79230000  0.56530000  0.86530000  1.0 0.1027980641
H  H557  1  0.68470000  0.45770000  0.88470000  1.0 0.1027980641
H  H558  1  0.31530000  0.45770000  0.61530000  1.0 0.1027980641
H  H559  1  0.20770000  0.56530000  0.63470000  1.0 0.1027980641
H  H560  1  0.31530000  0.04230000  0.38470000  1.0 0.1027980641
H  H561  1  0.29230000  0.56530000  0.13470000  1.0 0.1027980641
H  H562  1  0.81530000  0.45770000  0.38470000  1.0 0.1027980641
H  H563  1  0.70770000  0.56530000  0.36530000  1.0 0.1027980641
H  H564  1  0.70770000  0.93470000  0.63470000  1.0 0.1027980641
H  H565  1  0.81530000  0.04230000  0.61530000  1.0 0.1027980641
H  H566  1  0.18470000  0.04230000  0.88470000  1.0 0.1027980641
H  H567  1  0.29230000  0.93470000  0.86530000  1.0 0.1027980641
H  H568  1  0.18470000  0.45770000  0.11530000  1.0 0.1027980641
H  H569  1  0.79230000  0.06530000  0.63470000  1.0 0.1027980641
H  H570  1  0.31530000  0.95770000  0.88470000  1.0 0.1027980641
H  H571  1  0.20770000  0.06530000  0.86530000  1.0 0.1027980641
H  H572  1  0.20770000  0.43470000  0.13470000  1.0 0.1027980641
H  H573  1  0.31530000  0.54230000  0.11530000  1.0 0.1027980641
H  H574  1  0.68470000  0.54230000  0.38470000  1.0 0.1027980641
H  H575  1  0.79230000  0.43470000  0.36530000  1.0 0.1027980641
H  H576  1  0.68470000  0.95770000  0.61530000  1.0 0.1027980641
H  H577  1  0.68530000  0.19250000  0.88110000  1.0 0.1095310217
H  H578  1  0.94250000  0.56470000  0.63110000  1.0 0.1095310217
H  H579  1  0.31470000  0.19250000  0.61890000  1.0 0.1095310217
H  H580  1  0.31470000  0.30750000  0.38110000  1.0 0.1095310217
H  H581  1  0.94250000  0.93530000  0.36890000  1.0 0.1095310217
H  H582  1  0.05750000  0.93530000  0.13110000  1.0 0.1095310217
H  H583  1  0.68530000  0.30750000  0.11890000  1.0 0.1095310217
H  H584  1  0.05750000  0.56470000  0.86890000  1.0 0.1095310217
H  H585  1  0.18530000  0.69250000  0.38110000  1.0 0.1095310217
H  H586  1  0.44250000  0.06470000  0.13110000  1.0 0.1095310217
H  H587  1  0.81470000  0.69250000  0.11890000  1.0 0.1095310217
H  H588  1  0.81470000  0.80750000  0.88110000  1.0 0.1095310217
H  H589  1  0.44250000  0.43530000  0.86890000  1.0 0.1095310217
H  H590  1  0.55750000  0.43530000  0.63110000  1.0 0.1095310217
H  H591  1  0.18530000  0.80750000  0.61890000  1.0 0.1095310217
H  H592  1  0.55750000  0.06470000  0.36890000  1.0 0.1095310217
H  H593  1  0.31470000  0.80750000  0.11890000  1.0 0.1095310217
H  H594  1  0.05750000  0.43530000  0.36890000  1.0 0.1095310217
H  H595  1  0.68530000  0.80750000  0.38110000  1.0 0.1095310217
H  H596  1  0.68530000  0.69250000  0.61890000  1.0 0.1095310217
H  H597  1  0.05750000  0.06470000  0.63110000  1.0 0.1095310217
H  H598  1  0.94250000  0.06470000  0.86890000  1.0 0.1095310217
H  H599  1  0.31470000  0.69250000  0.88110000  1.0 0.1095310217
H  H600  1  0.94250000  0.43530000  0.13110000  1.0 0.1095310217
H  H601  1  0.81470000  0.30750000  0.61890000  1.0 0.1095310217
H  H602  1  0.55750000  0.93530000  0.86890000  1.0 0.1095310217
H  H603  1  0.18530000  0.30750000  0.88110000  1.0 0.1095310217
H  H604  1  0.18530000  0.19250000  0.11890000  1.0 0.1095310217
H  H605  1  0.55750000  0.56470000  0.13110000  1.0 0.1095310217
H  H606  1  0.44250000  0.56470000  0.36890000  1.0 0.1095310217
H  H607  1  0.81470000  0.19250000  0.38110000  1.0 0.1095310217
H  H608  1  0.44250000  0.93530000  0.63110000  1.0 0.1095310217
H  H609  1  0.70720000  0.21910000  0.86210000  1.0 0.1027980641
H  H610  1  0.96910000  0.54280000  0.61210000  1.0 0.1027980641
H  H611  1  0.29280000  0.21910000  0.63790000  1.0 0.1027980641
H  H612  1  0.29280000  0.28090000  0.36210000  1.0 0.1027980641
H  H613  1  0.96910000  0.95720000  0.38790000  1.0 0.1027980641
H  H614  1  0.03090000  0.95720000  0.11210000  1.0 0.1027980641
H  H615  1  0.70720000  0.28090000  0.13790000  1.0 0.1027980641
H  H616  1  0.03090000  0.54280000  0.88790000  1.0 0.1027980641
H  H617  1  0.20720000  0.71910000  0.36210000  1.0 0.1027980641
H  H618  1  0.46910000  0.04280000  0.11210000  1.0 0.1027980641
H  H619  1  0.79280000  0.71910000  0.13790000  1.0 0.1027980641
H  H620  1  0.79280000  0.78090000  0.86210000  1.0 0.1027980641
H  H621  1  0.46910000  0.45720000  0.88790000  1.0 0.1027980641
H  H622  1  0.53090000  0.45720000  0.61210000  1.0 0.1027980641
H  H623  1  0.20720000  0.78090000  0.63790000  1.0 0.1027980641
H  H624  1  0.53090000  0.04280000  0.38790000  1.0 0.1027980641
H  H625  1  0.29280000  0.78090000  0.13790000  1.0 0.1027980641
H  H626  1  0.03090000  0.45720000  0.38790000  1.0 0.1027980641
H  H627  1  0.70720000  0.78090000  0.36210000  1.0 0.1027980641
H  H628  1  0.70720000  0.71910000  0.63790000  1.0 0.1027980641
H  H629  1  0.03090000  0.04280000  0.61210000  1.0 0.1027980641
H  H630  1  0.96910000  0.04280000  0.88790000  1.0 0.1027980641
H  H631  1  0.29280000  0.71910000  0.86210000  1.0 0.1027980641
H  H632  1  0.96910000  0.45720000  0.11210000  1.0 0.1027980641
H  H633  1  0.79280000  0.28090000  0.63790000  1.0 0.1027980641
H  H634  1  0.53090000  0.95720000  0.88790000  1.0 0.1027980641
H  H635  1  0.20720000  0.28090000  0.86210000  1.0 0.1027980641
H  H636  1  0.20720000  0.21910000  0.13790000  1.0 0.1027980641
H  H637  1  0.53090000  0.54280000  0.11210000  1.0 0.1027980641
H  H638  1  0.46910000  0.54280000  0.38790000  1.0 0.1027980641
H  H639  1  0.79280000  0.21910000  0.36210000  1.0 0.1027980641
H  H640  1  0.46910000  0.95720000  0.61210000  1.0 0.1027980641
H  H641  1  0.44090000  0.19000000  0.84350000  1.0 0.1287152547
H  H642  1  0.94000000  0.80910000  0.59350000  1.0 0.1287152547
H  H643  1  0.55910000  0.19000000  0.65650000  1.0 0.1287152547
H  H644  1  0.55910000  0.31000000  0.34350000  1.0 0.1287152547
H  H645  1  0.94000000  0.69090000  0.40650000  1.0 0.1287152547
H  H646  1  0.06000000  0.69090000  0.09350000  1.0 0.1287152547
H  H647  1  0.44090000  0.31000000  0.15650000  1.0 0.1287152547
H  H648  1  0.06000000  0.80910000  0.90650000  1.0 0.1287152547
H  H649  1  0.94090000  0.69000000  0.34350000  1.0 0.1287152547
H  H650  1  0.44000000  0.30910000  0.09350000  1.0 0.1287152547
H  H651  1  0.05910000  0.69000000  0.15650000  1.0 0.1287152547
H  H652  1  0.05910000  0.81000000  0.84350000  1.0 0.1287152547
H  H653  1  0.44000000  0.19090000  0.90650000  1.0 0.1287152547
H  H654  1  0.56000000  0.19090000  0.59350000  1.0 0.1287152547
H  H655  1  0.94090000  0.81000000  0.65650000  1.0 0.1287152547
H  H656  1  0.56000000  0.30910000  0.40650000  1.0 0.1287152547
H  H657  1  0.55910000  0.81000000  0.15650000  1.0 0.1287152547
H  H658  1  0.06000000  0.19090000  0.40650000  1.0 0.1287152547
H  H659  1  0.44090000  0.81000000  0.34350000  1.0 0.1287152547
H  H660  1  0.44090000  0.69000000  0.65650000  1.0 0.1287152547
H  H661  1  0.06000000  0.30910000  0.59350000  1.0 0.1287152547
H  H662  1  0.94000000  0.30910000  0.90650000  1.0 0.1287152547
H  H663  1  0.55910000  0.69000000  0.84350000  1.0 0.1287152547
H  H664  1  0.94000000  0.19090000  0.09350000  1.0 0.1287152547
H  H665  1  0.05910000  0.31000000  0.65650000  1.0 0.1287152547
H  H666  1  0.56000000  0.69090000  0.90650000  1.0 0.1287152547
H  H667  1  0.94090000  0.31000000  0.84350000  1.0 0.1287152547
H  H668  1  0.94090000  0.19000000  0.15650000  1.0 0.1287152547
H  H669  1  0.56000000  0.80910000  0.09350000  1.0 0.1287152547
H  H670  1  0.44000000  0.80910000  0.40650000  1.0 0.1287152547
H  H671  1  0.05910000  0.19000000  0.34350000  1.0 0.1287152547
H  H672  1  0.44000000  0.69090000  0.59350000  1.0 0.1287152547
H  H673  1  0.46860000  0.14360000  0.83170000  1.0 0.1206461058
H  H674  1  0.89360000  0.78140000  0.58170000  1.0 0.1206461058
H  H675  1  0.53140000  0.14360000  0.66830000  1.0 0.1206461058
H  H676  1  0.53140000  0.35640000  0.33170000  1.0 0.1206461058
H  H677  1  0.89360000  0.71860000  0.41830000  1.0 0.1206461058
H  H678  1  0.10640000  0.71860000  0.08170000  1.0 0.1206461058
H  H679  1  0.46860000  0.35640000  0.16830000  1.0 0.1206461058
H  H680  1  0.10640000  0.78140000  0.91830000  1.0 0.1206461058
H  H681  1  0.96860000  0.64360000  0.33170000  1.0 0.1206461058
H  H682  1  0.39360000  0.28140000  0.08170000  1.0 0.1206461058
H  H683  1  0.03140000  0.64360000  0.16830000  1.0 0.1206461058
H  H684  1  0.03140000  0.85640000  0.83170000  1.0 0.1206461058
H  H685  1  0.39360000  0.21860000  0.91830000  1.0 0.1206461058
H  H686  1  0.60640000  0.21860000  0.58170000  1.0 0.1206461058
H  H687  1  0.96860000  0.85640000  0.66830000  1.0 0.1206461058
H  H688  1  0.60640000  0.28140000  0.41830000  1.0 0.1206461058
H  H689  1  0.53140000  0.85640000  0.16830000  1.0 0.1206461058
H  H690  1  0.10640000  0.21860000  0.41830000  1.0 0.1206461058
H  H691  1  0.46860000  0.85640000  0.33170000  1.0 0.1206461058
H  H692  1  0.46860000  0.64360000  0.66830000  1.0 0.1206461058
H  H693  1  0.10640000  0.28140000  0.58170000  1.0 0.1206461058
H  H694  1  0.89360000  0.28140000  0.91830000  1.0 0.1206461058
H  H695  1  0.53140000  0.64360000  0.83170000  1.0 0.1206461058
H  H696  1  0.89360000  0.21860000  0.08170000  1.0 0.1206461058
H  H697  1  0.03140000  0.35640000  0.66830000  1.0 0.1206461058
H  H698  1  0.60640000  0.71860000  0.91830000  1.0 0.1206461058
H  H699  1  0.96860000  0.35640000  0.83170000  1.0 0.1206461058
H  H700  1  0.96860000  0.14360000  0.16830000  1.0 0.1206461058
H  H701  1  0.60640000  0.78140000  0.08170000  1.0 0.1206461058
H  H702  1  0.39360000  0.78140000  0.41830000  1.0 0.1206461058
H  H703  1  0.03140000  0.14360000  0.33170000  1.0 0.1206461058
H  H704  1  0.39360000  0.71860000  0.58170000  1.0 0.1206461058
H  H705  1  0.46620000  0.20240000  0.82330000  1.0 0.1398649014
H  H706  1  0.95240000  0.78380000  0.57330000  1.0 0.1398649014
H  H707  1  0.53380000  0.20240000  0.67670000  1.0 0.1398649014
H  H708  1  0.53380000  0.29760000  0.32330000  1.0 0.1398649014
H  H709  1  0.95240000  0.71620000  0.42670000  1.0 0.1398649014
H  H710  1  0.04760000  0.71620000  0.07330000  1.0 0.1398649014
H  H711  1  0.46620000  0.29760000  0.17670000  1.0 0.1398649014
H  H712  1  0.04760000  0.78380000  0.92670000  1.0 0.1398649014
H  H713  1  0.96620000  0.70240000  0.32330000  1.0 0.1398649014
H  H714  1  0.45240000  0.28380000  0.07330000  1.0 0.1398649014
H  H715  1  0.03380000  0.70240000  0.17670000  1.0 0.1398649014
H  H716  1  0.03380000  0.79760000  0.82330000  1.0 0.1398649014
H  H717  1  0.45240000  0.21620000  0.92670000  1.0 0.1398649014
H  H718  1  0.54760000  0.21620000  0.57330000  1.0 0.1398649014
H  H719  1  0.96620000  0.79760000  0.67670000  1.0 0.1398649014
H  H720  1  0.54760000  0.28380000  0.42670000  1.0 0.1398649014
H  H721  1  0.53380000  0.79760000  0.17670000  1.0 0.1398649014
H  H722  1  0.04760000  0.21620000  0.42670000  1.0 0.1398649014
H  H723  1  0.46620000  0.79760000  0.32330000  1.0 0.1398649014
H  H724  1  0.46620000  0.70240000  0.67670000  1.0 0.1398649014
H  H725  1  0.04760000  0.28380000  0.57330000  1.0 0.1398649014
H  H726  1  0.95240000  0.28380000  0.92670000  1.0 0.1398649014
H  H727  1  0.53380000  0.70240000  0.82330000  1.0 0.1398649014
H  H728  1  0.95240000  0.21620000  0.07330000  1.0 0.1398649014
H  H729  1  0.03380000  0.29760000  0.67670000  1.0 0.1398649014
H  H730  1  0.54760000  0.71620000  0.92670000  1.0 0.1398649014
H  H731  1  0.96620000  0.29760000  0.82330000  1.0 0.1398649014
H  H732  1  0.96620000  0.20240000  0.17670000  1.0 0.1398649014
H  H733  1  0.54760000  0.78380000  0.07330000  1.0 0.1398649014
H  H734  1  0.45240000  0.78380000  0.42670000  1.0 0.1398649014
H  H735  1  0.03380000  0.20240000  0.32330000  1.0 0.1398649014
H  H736  1  0.45240000  0.71620000  0.57330000  1.0 0.1398649014
H  H737  1  0.70780000  0.19520000  0.83880000  1.0 0.1095310217
H  H738  1  0.94520000  0.54220000  0.58880000  1.0 0.1095310217
H  H739  1  0.29220000  0.19520000  0.66120000  1.0 0.1095310217
H  H740  1  0.29220000  0.30480000  0.33880000  1.0 0.1095310217
H  H741  1  0.94520000  0.95780000  0.41120000  1.0 0.1095310217
H  H742  1  0.05480000  0.95780000  0.08880000  1.0 0.1095310217
H  H743  1  0.70780000  0.30480000  0.16120000  1.0 0.1095310217
H  H744  1  0.05480000  0.54220000  0.91120000  1.0 0.1095310217
H  H745  1  0.20780000  0.69520000  0.33880000  1.0 0.1095310217
H  H746  1  0.44520000  0.04220000  0.08880000  1.0 0.1095310217
H  H747  1  0.79220000  0.69520000  0.16120000  1.0 0.1095310217
H  H748  1  0.79220000  0.80480000  0.83880000  1.0 0.1095310217
H  H749  1  0.44520000  0.45780000  0.91120000  1.0 0.1095310217
H  H750  1  0.55480000  0.45780000  0.58880000  1.0 0.1095310217
H  H751  1  0.20780000  0.80480000  0.66120000  1.0 0.1095310217
H  H752  1  0.55480000  0.04220000  0.41120000  1.0 0.1095310217
H  H753  1  0.29220000  0.80480000  0.16120000  1.0 0.1095310217
H  H754  1  0.05480000  0.45780000  0.41120000  1.0 0.1095310217
H  H755  1  0.70780000  0.80480000  0.33880000  1.0 0.1095310217
H  H756  1  0.70780000  0.69520000  0.66120000  1.0 0.1095310217
H  H757  1  0.05480000  0.04220000  0.58880000  1.0 0.1095310217
H  H758  1  0.94520000  0.04220000  0.91120000  1.0 0.1095310217
H  H759  1  0.29220000  0.69520000  0.83880000  1.0 0.1095310217
H  H760  1  0.94520000  0.45780000  0.08880000  1.0 0.1095310217
H  H761  1  0.79220000  0.30480000  0.66120000  1.0 0.1095310217
H  H762  1  0.55480000  0.95780000  0.91120000  1.0 0.1095310217
H  H763  1  0.20780000  0.30480000  0.83880000  1.0 0.1095310217
H  H764  1  0.20780000  0.19520000  0.16120000  1.0 0.1095310217
H  H765  1  0.55480000  0.54220000  0.08880000  1.0 0.1095310217
H  H766  1  0.44520000  0.54220000  0.41120000  1.0 0.1095310217
H  H767  1  0.79220000  0.19520000  0.33880000  1.0 0.1095310217
H  H768  1  0.44520000  0.95780000  0.58880000  1.0 0.1095310217
H  H769  1  0.67700000  0.20610000  0.81950000  1.0 0.1287152547
H  H770  1  0.95610000  0.57300000  0.56950000  1.0 0.1287152547
H  H771  1  0.32300000  0.20610000  0.68050000  1.0 0.1287152547
H  H772  1  0.32300000  0.29390000  0.31950000  1.0 0.1287152547
H  H773  1  0.95610000  0.92700000  0.43050000  1.0 0.1287152547
H  H774  1  0.04390000  0.92700000  0.06950000  1.0 0.1287152547
H  H775  1  0.67700000  0.29390000  0.18050000  1.0 0.1287152547
H  H776  1  0.04390000  0.57300000  0.93050000  1.0 0.1287152547
H  H777  1  0.17700000  0.70610000  0.31950000  1.0 0.1287152547
H  H778  1  0.45610000  0.07300000  0.06950000  1.0 0.1287152547
H  H779  1  0.82300000  0.70610000  0.18050000  1.0 0.1287152547
H  H780  1  0.82300000  0.79390000  0.81950000  1.0 0.1287152547
H  H781  1  0.45610000  0.42700000  0.93050000  1.0 0.1287152547
H  H782  1  0.54390000  0.42700000  0.56950000  1.0 0.1287152547
H  H783  1  0.17700000  0.79390000  0.68050000  1.0 0.1287152547
H  H784  1  0.54390000  0.07300000  0.43050000  1.0 0.1287152547
H  H785  1  0.32300000  0.79390000  0.18050000  1.0 0.1287152547
H  H786  1  0.04390000  0.42700000  0.43050000  1.0 0.1287152547
H  H787  1  0.67700000  0.79390000  0.31950000  1.0 0.1287152547
H  H788  1  0.67700000  0.70610000  0.68050000  1.0 0.1287152547
H  H789  1  0.04390000  0.07300000  0.56950000  1.0 0.1287152547
H  H790  1  0.95610000  0.07300000  0.93050000  1.0 0.1287152547
H  H791  1  0.32300000  0.70610000  0.81950000  1.0 0.1287152547
H  H792  1  0.95610000  0.42700000  0.06950000  1.0 0.1287152547
H  H793  1  0.82300000  0.29390000  0.68050000  1.0 0.1287152547
H  H794  1  0.54390000  0.92700000  0.93050000  1.0 0.1287152547
H  H795  1  0.17700000  0.29390000  0.81950000  1.0 0.1287152547
H  H796  1  0.17700000  0.20610000  0.18050000  1.0 0.1287152547
H  H797  1  0.54390000  0.57300000  0.06950000  1.0 0.1287152547
H  H798  1  0.45610000  0.57300000  0.43050000  1.0 0.1287152547
H  H799  1  0.82300000  0.20610000  0.31950000  1.0 0.1287152547
H  H800  1  0.45610000  0.92700000  0.56950000  1.0 0.1287152547
H  H801  1  0.67910000  0.14740000  0.82800000  1.0 0.1095310217
H  H802  1  0.89740000  0.57090000  0.57800000  1.0 0.1095310217
H  H803  1  0.32090000  0.14740000  0.67200000  1.0 0.1095310217
H  H804  1  0.32090000  0.35260000  0.32800000  1.0 0.1095310217
H  H805  1  0.89740000  0.92910000  0.42200000  1.0 0.1095310217
H  H806  1  0.10260000  0.92910000  0.07800000  1.0 0.1095310217
H  H807  1  0.67910000  0.35260000  0.17200000  1.0 0.1095310217
H  H808  1  0.10260000  0.57090000  0.92200000  1.0 0.1095310217
H  H809  1  0.17910000  0.64740000  0.32800000  1.0 0.1095310217
H  H810  1  0.39740000  0.07090000  0.07800000  1.0 0.1095310217
H  H811  1  0.82090000  0.64740000  0.17200000  1.0 0.1095310217
H  H812  1  0.82090000  0.85260000  0.82800000  1.0 0.1095310217
H  H813  1  0.39740000  0.42910000  0.92200000  1.0 0.1095310217
H  H814  1  0.60260000  0.42910000  0.57800000  1.0 0.1095310217
H  H815  1  0.17910000  0.85260000  0.67200000  1.0 0.1095310217
H  H816  1  0.60260000  0.07090000  0.42200000  1.0 0.1095310217
H  H817  1  0.32090000  0.85260000  0.17200000  1.0 0.1095310217
H  H818  1  0.10260000  0.42910000  0.42200000  1.0 0.1095310217
H  H819  1  0.67910000  0.85260000  0.32800000  1.0 0.1095310217
H  H820  1  0.67910000  0.64740000  0.67200000  1.0 0.1095310217
H  H821  1  0.10260000  0.07090000  0.57800000  1.0 0.1095310217
H  H822  1  0.89740000  0.07090000  0.92200000  1.0 0.1095310217
H  H823  1  0.32090000  0.64740000  0.82800000  1.0 0.1095310217
H  H824  1  0.89740000  0.42910000  0.07800000  1.0 0.1095310217
H  H825  1  0.82090000  0.35260000  0.67200000  1.0 0.1095310217
H  H826  1  0.60260000  0.92910000  0.92200000  1.0 0.1095310217
H  H827  1  0.17910000  0.35260000  0.82800000  1.0 0.1095310217
H  H828  1  0.17910000  0.14740000  0.17200000  1.0 0.1095310217
H  H829  1  0.60260000  0.57090000  0.07800000  1.0 0.1095310217
H  H830  1  0.39740000  0.57090000  0.42200000  1.0 0.1095310217
H  H831  1  0.82090000  0.14740000  0.32800000  1.0 0.1095310217
H  H832  1  0.39740000  0.92910000  0.57800000  1.0 0.1095310217
H  H833  1  0.61600000  0.23720000  0.89820000  1.0 0.1287152547
H  H834  1  0.98720000  0.63400000  0.64820000  1.0 0.1287152547
H  H835  1  0.38400000  0.23720000  0.60180000  1.0 0.1287152547
H  H836  1  0.38400000  0.26280000  0.39820000  1.0 0.1287152547
H  H837  1  0.98720000  0.86600000  0.35180000  1.0 0.1287152547
H  H838  1  0.01280000  0.86600000  0.14820000  1.0 0.1287152547
H  H839  1  0.61600000  0.26280000  0.10180000  1.0 0.1287152547
H  H840  1  0.01280000  0.63400000  0.85180000  1.0 0.1287152547
H  H841  1  0.11600000  0.73720000  0.39820000  1.0 0.1287152547
H  H842  1  0.48720000  0.13400000  0.14820000  1.0 0.1287152547
H  H843  1  0.88400000  0.73720000  0.10180000  1.0 0.1287152547
H  H844  1  0.88400000  0.76280000  0.89820000  1.0 0.1287152547
H  H845  1  0.48720000  0.36600000  0.85180000  1.0 0.1287152547
H  H846  1  0.51280000  0.36600000  0.64820000  1.0 0.1287152547
H  H847  1  0.11600000  0.76280000  0.60180000  1.0 0.1287152547
H  H848  1  0.51280000  0.13400000  0.35180000  1.0 0.1287152547
H  H849  1  0.38400000  0.76280000  0.10180000  1.0 0.1287152547
H  H850  1  0.01280000  0.36600000  0.35180000  1.0 0.1287152547
H  H851  1  0.61600000  0.76280000  0.39820000  1.0 0.1287152547
H  H852  1  0.61600000  0.73720000  0.60180000  1.0 0.1287152547
H  H853  1  0.01280000  0.13400000  0.64820000  1.0 0.1287152547
H  H854  1  0.98720000  0.13400000  0.85180000  1.0 0.1287152547
H  H855  1  0.38400000  0.73720000  0.89820000  1.0 0.1287152547
H  H856  1  0.98720000  0.36600000  0.14820000  1.0 0.1287152547
H  H857  1  0.88400000  0.26280000  0.60180000  1.0 0.1287152547
H  H858  1  0.51280000  0.86600000  0.85180000  1.0 0.1287152547
H  H859  1  0.11600000  0.26280000  0.89820000  1.0 0.1287152547
H  H860  1  0.11600000  0.23720000  0.10180000  1.0 0.1287152547
H  H861  1  0.51280000  0.63400000  0.14820000  1.0 0.1287152547
H  H862  1  0.48720000  0.63400000  0.35180000  1.0 0.1287152547
H  H863  1  0.88400000  0.23720000  0.39820000  1.0 0.1287152547
H  H864  1  0.48720000  0.86600000  0.64820000  1.0 0.1287152547
H  H865  1  0.56270000  0.20360000  0.90110000  1.0 0.1480849782
H  H866  1  0.95360000  0.68730000  0.65110000  1.0 0.1480849782
H  H867  1  0.43730000  0.20360000  0.59890000  1.0 0.1480849782
H  H868  1  0.43730000  0.29640000  0.40110000  1.0 0.1480849782
H  H869  1  0.95360000  0.81270000  0.34890000  1.0 0.1480849782
H  H870  1  0.04640000  0.81270000  0.15110000  1.0 0.1480849782
H  H871  1  0.56270000  0.29640000  0.09890000  1.0 0.1480849782
H  H872  1  0.04640000  0.68730000  0.84890000  1.0 0.1480849782
H  H873  1  0.06270000  0.70360000  0.40110000  1.0 0.1480849782
H  H874  1  0.45360000  0.18730000  0.15110000  1.0 0.1480849782
H  H875  1  0.93730000  0.70360000  0.09890000  1.0 0.1480849782
H  H876  1  0.93730000  0.79640000  0.90110000  1.0 0.1480849782
H  H877  1  0.45360000  0.31270000  0.84890000  1.0 0.1480849782
H  H878  1  0.54640000  0.31270000  0.65110000  1.0 0.1480849782
H  H879  1  0.06270000  0.79640000  0.59890000  1.0 0.1480849782
H  H880  1  0.54640000  0.18730000  0.34890000  1.0 0.1480849782
H  H881  1  0.43730000  0.79640000  0.09890000  1.0 0.1480849782
H  H882  1  0.04640000  0.31270000  0.34890000  1.0 0.1480849782
H  H883  1  0.56270000  0.79640000  0.40110000  1.0 0.1480849782
H  H884  1  0.56270000  0.70360000  0.59890000  1.0 0.1480849782
H  H885  1  0.04640000  0.18730000  0.65110000  1.0 0.1480849782
H  H886  1  0.95360000  0.18730000  0.84890000  1.0 0.1480849782
H  H887  1  0.43730000  0.70360000  0.90110000  1.0 0.1480849782
H  H888  1  0.95360000  0.31270000  0.15110000  1.0 0.1480849782
H  H889  1  0.93730000  0.29640000  0.59890000  1.0 0.1480849782
H  H890  1  0.54640000  0.81270000  0.84890000  1.0 0.1480849782
H  H891  1  0.06270000  0.29640000  0.90110000  1.0 0.1480849782
H  H892  1  0.06270000  0.20360000  0.09890000  1.0 0.1480849782
H  H893  1  0.54640000  0.68730000  0.15110000  1.0 0.1480849782
H  H894  1  0.45360000  0.68730000  0.34890000  1.0 0.1480849782
H  H895  1  0.93730000  0.20360000  0.40110000  1.0 0.1480849782
H  H896  1  0.45360000  0.81270000  0.65110000  1.0 0.1480849782
H  H897  1  0.55950000  0.26580000  0.89670000  1.0 0.1398649014
H  H898  1  0.01580000  0.69050000  0.64670000  1.0 0.1398649014
H  H899  1  0.44050000  0.26580000  0.60330000  1.0 0.1398649014
H  H900  1  0.44050000  0.23420000  0.39670000  1.0 0.1398649014
H  H901  1  0.01580000  0.80950000  0.35330000  1.0 0.1398649014
H  H902  1  0.98420000  0.80950000  0.14670000  1.0 0.1398649014
H  H903  1  0.55950000  0.23420000  0.10330000  1.0 0.1398649014
H  H904  1  0.98420000  0.69050000  0.85330000  1.0 0.1398649014
H  H905  1  0.05950000  0.76580000  0.39670000  1.0 0.1398649014
H  H906  1  0.51580000  0.19050000  0.14670000  1.0 0.1398649014
H  H907  1  0.94050000  0.76580000  0.10330000  1.0 0.1398649014
H  H908  1  0.94050000  0.73420000  0.89670000  1.0 0.1398649014
H  H909  1  0.51580000  0.30950000  0.85330000  1.0 0.1398649014
H  H910  1  0.48420000  0.30950000  0.64670000  1.0 0.1398649014
H  H911  1  0.05950000  0.73420000  0.60330000  1.0 0.1398649014
H  H912  1  0.48420000  0.19050000  0.35330000  1.0 0.1398649014
H  H913  1  0.44050000  0.73420000  0.10330000  1.0 0.1398649014
H  H914  1  0.98420000  0.30950000  0.35330000  1.0 0.1398649014
H  H915  1  0.55950000  0.73420000  0.39670000  1.0 0.1398649014
H  H916  1  0.55950000  0.76580000  0.60330000  1.0 0.1398649014
H  H917  1  0.98420000  0.19050000  0.64670000  1.0 0.1398649014
H  H918  1  0.01580000  0.19050000  0.85330000  1.0 0.1398649014
H  H919  1  0.44050000  0.76580000  0.89670000  1.0 0.1398649014
H  H920  1  0.01580000  0.30950000  0.14670000  1.0 0.1398649014
H  H921  1  0.94050000  0.23420000  0.60330000  1.0 0.1398649014
H  H922  1  0.48420000  0.80950000  0.85330000  1.0 0.1398649014
H  H923  1  0.05950000  0.23420000  0.89670000  1.0 0.1398649014
H  H924  1  0.05950000  0.26580000  0.10330000  1.0 0.1398649014
H  H925  1  0.48420000  0.69050000  0.14670000  1.0 0.1398649014
H  H926  1  0.51580000  0.69050000  0.35330000  1.0 0.1398649014
H  H927  1  0.94050000  0.26580000  0.39670000  1.0 0.1398649014
H  H928  1  0.51580000  0.80950000  0.64670000  1.0 0.1398649014
H  H929  1  0.44660000  0.22160000  0.86560000  1.0 0.1027980641
H  H930  1  0.97160000  0.80340000  0.61560000  1.0 0.1027980641
H  H931  1  0.55340000  0.22160000  0.63440000  1.0 0.1027980641
H  H932  1  0.55340000  0.27840000  0.36560000  1.0 0.1027980641
H  H933  1  0.97160000  0.69660000  0.38440000  1.0 0.1027980641
H  H934  1  0.02840000  0.69660000  0.11560000  1.0 0.1027980641
H  H935  1  0.44660000  0.27840000  0.13440000  1.0 0.1027980641
H  H936  1  0.02840000  0.80340000  0.88440000  1.0 0.1027980641
H  H937  1  0.94660000  0.72160000  0.36560000  1.0 0.1027980641
H  H938  1  0.47160000  0.30340000  0.11560000  1.0 0.1027980641
H  H939  1  0.05340000  0.72160000  0.13440000  1.0 0.1027980641
H  H940  1  0.05340000  0.77840000  0.86560000  1.0 0.1027980641
H  H941  1  0.47160000  0.19660000  0.88440000  1.0 0.1027980641
H  H942  1  0.52840000  0.19660000  0.61560000  1.0 0.1027980641
H  H943  1  0.94660000  0.77840000  0.63440000  1.0 0.1027980641
H  H944  1  0.52840000  0.30340000  0.38440000  1.0 0.1027980641
H  H945  1  0.55340000  0.77840000  0.13440000  1.0 0.1027980641
H  H946  1  0.02840000  0.19660000  0.38440000  1.0 0.1027980641
H  H947  1  0.44660000  0.77840000  0.36560000  1.0 0.1027980641
H  H948  1  0.44660000  0.72160000  0.63440000  1.0 0.1027980641
H  H949  1  0.02840000  0.30340000  0.61560000  1.0 0.1027980641
H  H950  1  0.97160000  0.30340000  0.88440000  1.0 0.1027980641
H  H951  1  0.55340000  0.72160000  0.86560000  1.0 0.1027980641
H  H952  1  0.97160000  0.19660000  0.11560000  1.0 0.1027980641
H  H953  1  0.05340000  0.27840000  0.63440000  1.0 0.1027980641
H  H954  1  0.52840000  0.69660000  0.88440000  1.0 0.1027980641
H  H955  1  0.94660000  0.27840000  0.86560000  1.0 0.1027980641
H  H956  1  0.94660000  0.22160000  0.13440000  1.0 0.1027980641
H  H957  1  0.52840000  0.80340000  0.11560000  1.0 0.1027980641
H  H958  1  0.47160000  0.80340000  0.38440000  1.0 0.1027980641
H  H959  1  0.05340000  0.22160000  0.36560000  1.0 0.1027980641
H  H960  1  0.47160000  0.69660000  0.61560000  1.0 0.1027980641
C  C1  1  0.74000000  0.30000000  0.96620000  1.0 0.0795272306
C  C2  1  0.05000000  0.51000000  0.71620000  1.0 0.0795272306
C  C3  1  0.26000000  0.30000000  0.53380000  1.0 0.0795272306
C  C4  1  0.26000000  0.20000000  0.46620000  1.0 0.0795272306
C  C5  1  0.05000000  0.99000000  0.28380000  1.0 0.0795272306
C  C6  1  0.95000000  0.99000000  0.21620000  1.0 0.0795272306
C  C7  1  0.74000000  0.20000000  0.03380000  1.0 0.0795272306
C  C8  1  0.95000000  0.51000000  0.78380000  1.0 0.0795272306
C  C9  1  0.24000000  0.80000000  0.46620000  1.0 0.0795272306
C  C10  1  0.55000000  0.01000000  0.21620000  1.0 0.0795272306
C  C11  1  0.76000000  0.80000000  0.03380000  1.0 0.0795272306
C  C12  1  0.76000000  0.70000000  0.96620000  1.0 0.0795272306
C  C13  1  0.55000000  0.49000000  0.78380000  1.0 0.0795272306
C  C14  1  0.45000000  0.49000000  0.71620000  1.0 0.0795272306
C  C15  1  0.24000000  0.70000000  0.53380000  1.0 0.0795272306
C  C16  1  0.45000000  0.01000000  0.28380000  1.0 0.0795272306
C  C17  1  0.26000000  0.70000000  0.03380000  1.0 0.0795272306
C  C18  1  0.95000000  0.49000000  0.28380000  1.0 0.0795272306
C  C19  1  0.74000000  0.70000000  0.46620000  1.0 0.0795272306
C  C20  1  0.74000000  0.80000000  0.53380000  1.0 0.0795272306
C  C21  1  0.95000000  0.01000000  0.71620000  1.0 0.0795272306
C  C22  1  0.05000000  0.01000000  0.78380000  1.0 0.0795272306
C  C23  1  0.26000000  0.80000000  0.96620000  1.0 0.0795272306
C  C24  1  0.05000000  0.49000000  0.21620000  1.0 0.0795272306
C  C25  1  0.76000000  0.20000000  0.53380000  1.0 0.0795272306
C  C26  1  0.45000000  0.99000000  0.78380000  1.0 0.0795272306
C  C27  1  0.24000000  0.20000000  0.96620000  1.0 0.0795272306
C  C28  1  0.24000000  0.30000000  0.03380000  1.0 0.0795272306
C  C29  1  0.45000000  0.51000000  0.21620000  1.0 0.0795272306
C  C30  1  0.55000000  0.51000000  0.28380000  1.0 0.0795272306
C  C31  1  0.76000000  0.30000000  0.46620000  1.0 0.0795272306
C  C32  1  0.55000000  0.99000000  0.71620000  1.0 0.0795272306
C  C33  1  0.71900000  0.30400000  0.94790000  1.0 -0.1500337174
C  C34  1  0.05400000  0.53100000  0.69790000  1.0 -0.1500337174
C  C35  1  0.28100000  0.30400000  0.55210000  1.0 -0.1500337174
C  C36  1  0.28100000  0.19600000  0.44790000  1.0 -0.1500337174
C  C37  1  0.05400000  0.96900000  0.30210000  1.0 -0.1500337174
C  C38  1  0.94600000  0.96900000  0.19790000  1.0 -0.1500337174
C  C39  1  0.71900000  0.19600000  0.05210000  1.0 -0.1500337174
C  C40  1  0.94600000  0.53100000  0.80210000  1.0 -0.1500337174
C  C41  1  0.21900000  0.80400000  0.44790000  1.0 -0.1500337174
C  C42  1  0.55400000  0.03100000  0.19790000  1.0 -0.1500337174
C  C43  1  0.78100000  0.80400000  0.05210000  1.0 -0.1500337174
C  C44  1  0.78100000  0.69600000  0.94790000  1.0 -0.1500337174
C  C45  1  0.55400000  0.46900000  0.80210000  1.0 -0.1500337174
C  C46  1  0.44600000  0.46900000  0.69790000  1.0 -0.1500337174
C  C47  1  0.21900000  0.69600000  0.55210000  1.0 -0.1500337174
C  C48  1  0.44600000  0.03100000  0.30210000  1.0 -0.1500337174
C  C49  1  0.28100000  0.69600000  0.05210000  1.0 -0.1500337174
C  C50  1  0.94600000  0.46900000  0.30210000  1.0 -0.1500337174
C  C51  1  0.71900000  0.69600000  0.44790000  1.0 -0.1500337174
C  C52  1  0.71900000  0.80400000  0.55210000  1.0 -0.1500337174
C  C53  1  0.94600000  0.03100000  0.69790000  1.0 -0.1500337174
C  C54  1  0.05400000  0.03100000  0.80210000  1.0 -0.1500337174
C  C55  1  0.28100000  0.80400000  0.94790000  1.0 -0.1500337174
C  C56  1  0.05400000  0.46900000  0.19790000  1.0 -0.1500337174
C  C57  1  0.78100000  0.19600000  0.55210000  1.0 -0.1500337174
C  C58  1  0.44600000  0.96900000  0.80210000  1.0 -0.1500337174
C  C59  1  0.21900000  0.19600000  0.94790000  1.0 -0.1500337174
C  C60  1  0.21900000  0.30400000  0.05210000  1.0 -0.1500337174
C  C61  1  0.44600000  0.53100000  0.19790000  1.0 -0.1500337174
C  C62  1  0.55400000  0.53100000  0.30210000  1.0 -0.1500337174
C  C63  1  0.78100000  0.30400000  0.44790000  1.0 -0.1500337174
C  C64  1  0.55400000  0.96900000  0.69790000  1.0 -0.1500337174
C  C65  1  0.74790000  0.31840000  0.93220000  1.0 0.1287152547
C  C66  1  0.06840000  0.50210000  0.68220000  1.0 0.1287152547
C  C67  1  0.25210000  0.31840000  0.56780000  1.0 0.1287152547
C  C68  1  0.25210000  0.18160000  0.43220000  1.0 0.1287152547
C  C69  1  0.06840000  0.99790000  0.31780000  1.0 0.1287152547
C  C70  1  0.93160000  0.99790000  0.18220000  1.0 0.1287152547
C  C71  1  0.74790000  0.18160000  0.06780000  1.0 0.1287152547
C  C72  1  0.93160000  0.50210000  0.81780000  1.0 0.1287152547
C  C73  1  0.24790000  0.81840000  0.43220000  1.0 0.1287152547
C  C74  1  0.56840000  0.00210000  0.18220000  1.0 0.1287152547
C  C75  1  0.75210000  0.81840000  0.06780000  1.0 0.1287152547
C  C76  1  0.75210000  0.68160000  0.93220000  1.0 0.1287152547
C  C77  1  0.56840000  0.49790000  0.81780000  1.0 0.1287152547
C  C78  1  0.43160000  0.49790000  0.68220000  1.0 0.1287152547
C  C79  1  0.24790000  0.68160000  0.56780000  1.0 0.1287152547
C  C80  1  0.43160000  0.00210000  0.31780000  1.0 0.1287152547
C  C81  1  0.25210000  0.68160000  0.06780000  1.0 0.1287152547
C  C82  1  0.93160000  0.49790000  0.31780000  1.0 0.1287152547
C  C83  1  0.74790000  0.68160000  0.43220000  1.0 0.1287152547
C  C84  1  0.74790000  0.81840000  0.56780000  1.0 0.1287152547
C  C85  1  0.93160000  0.00210000  0.68220000  1.0 0.1287152547
C  C86  1  0.06840000  0.00210000  0.81780000  1.0 0.1287152547
C  C87  1  0.25210000  0.81840000  0.93220000  1.0 0.1287152547
C  C88  1  0.06840000  0.49790000  0.18220000  1.0 0.1287152547
C  C89  1  0.75210000  0.18160000  0.56780000  1.0 0.1287152547
C  C90  1  0.43160000  0.99790000  0.81780000  1.0 0.1287152547
C  C91  1  0.24790000  0.18160000  0.93220000  1.0 0.1287152547
C  C92  1  0.24790000  0.31840000  0.06780000  1.0 0.1287152547
C  C93  1  0.43160000  0.50210000  0.18220000  1.0 0.1287152547
C  C94  1  0.56840000  0.50210000  0.31780000  1.0 0.1287152547
C  C95  1  0.75210000  0.31840000  0.43220000  1.0 0.1287152547
C  C96  1  0.56840000  0.99790000  0.68220000  1.0 0.1287152547
C  C97  1  0.80100000  0.33300000  0.93570000  1.0 -0.1923869809
C  C98  1  0.08300000  0.44900000  0.68570000  1.0 -0.1923869809
C  C99  1  0.19900000  0.33300000  0.56430000  1.0 -0.1923869809
C  C100  1  0.19900000  0.16700000  0.43570000  1.0 -0.1923869809
C  C101  1  0.08300000  0.05100000  0.31430000  1.0 -0.1923869809
C  C102  1  0.91700000  0.05100000  0.18570000  1.0 -0.1923869809
C  C103  1  0.80100000  0.16700000  0.06430000  1.0 -0.1923869809
C  C104  1  0.91700000  0.44900000  0.81430000  1.0 -0.1923869809
C  C105  1  0.30100000  0.83300000  0.43570000  1.0 -0.1923869809
C  C106  1  0.58300000  0.94900000  0.18570000  1.0 -0.1923869809
C  C107  1  0.69900000  0.83300000  0.06430000  1.0 -0.1923869809
C  C108  1  0.69900000  0.66700000  0.93570000  1.0 -0.1923869809
C  C109  1  0.58300000  0.55100000  0.81430000  1.0 -0.1923869809
C  C110  1  0.41700000  0.55100000  0.68570000  1.0 -0.1923869809
C  C111  1  0.30100000  0.66700000  0.56430000  1.0 -0.1923869809
C  C112  1  0.41700000  0.94900000  0.31430000  1.0 -0.1923869809
C  C113  1  0.19900000  0.66700000  0.06430000  1.0 -0.1923869809
C  C114  1  0.91700000  0.55100000  0.31430000  1.0 -0.1923869809
C  C115  1  0.80100000  0.66700000  0.43570000  1.0 -0.1923869809
C  C116  1  0.80100000  0.83300000  0.56430000  1.0 -0.1923869809
C  C117  1  0.91700000  0.94900000  0.68570000  1.0 -0.1923869809
C  C118  1  0.08300000  0.94900000  0.81430000  1.0 -0.1923869809
C  C119  1  0.19900000  0.83300000  0.93570000  1.0 -0.1923869809
C  C120  1  0.08300000  0.55100000  0.18570000  1.0 -0.1923869809
C  C121  1  0.69900000  0.16700000  0.56430000  1.0 -0.1923869809
C  C122  1  0.41700000  0.05100000  0.81430000  1.0 -0.1923869809
C  C123  1  0.30100000  0.16700000  0.93570000  1.0 -0.1923869809
C  C124  1  0.30100000  0.33300000  0.06430000  1.0 -0.1923869809
C  C125  1  0.41700000  0.44900000  0.18570000  1.0 -0.1923869809
C  C126  1  0.58300000  0.44900000  0.31430000  1.0 -0.1923869809
C  C127  1  0.69900000  0.33300000  0.43570000  1.0 -0.1923869809
C  C128  1  0.58300000  0.05100000  0.68570000  1.0 -0.1923869809
C  C129  1  0.82500000  0.32800000  0.95440000  1.0 0.0673708842
C  C130  1  0.07800000  0.42500000  0.70440000  1.0 0.0673708842
C  C131  1  0.17500000  0.32800000  0.54560000  1.0 0.0673708842
C  C132  1  0.17500000  0.17200000  0.45440000  1.0 0.0673708842
C  C133  1  0.07800000  0.07500000  0.29560000  1.0 0.0673708842
C  C134  1  0.92200000  0.07500000  0.20440000  1.0 0.0673708842
C  C135  1  0.82500000  0.17200000  0.04560000  1.0 0.0673708842
C  C136  1  0.92200000  0.42500000  0.79560000  1.0 0.0673708842
C  C137  1  0.32500000  0.82800000  0.45440000  1.0 0.0673708842
C  C138  1  0.57800000  0.92500000  0.20440000  1.0 0.0673708842
C  C139  1  0.67500000  0.82800000  0.04560000  1.0 0.0673708842
C  C140  1  0.67500000  0.67200000  0.95440000  1.0 0.0673708842
C  C141  1  0.57800000  0.57500000  0.79560000  1.0 0.0673708842
C  C142  1  0.42200000  0.57500000  0.70440000  1.0 0.0673708842
C  C143  1  0.32500000  0.67200000  0.54560000  1.0 0.0673708842
C  C144  1  0.42200000  0.92500000  0.29560000  1.0 0.0673708842
C  C145  1  0.17500000  0.67200000  0.04560000  1.0 0.0673708842
C  C146  1  0.92200000  0.57500000  0.29560000  1.0 0.0673708842
C  C147  1  0.82500000  0.67200000  0.45440000  1.0 0.0673708842
C  C148  1  0.82500000  0.82800000  0.54560000  1.0 0.0673708842
C  C149  1  0.92200000  0.92500000  0.70440000  1.0 0.0673708842
C  C150  1  0.07800000  0.92500000  0.79560000  1.0 0.0673708842
C  C151  1  0.17500000  0.82800000  0.95440000  1.0 0.0673708842
C  C152  1  0.07800000  0.57500000  0.20440000  1.0 0.0673708842
C  C153  1  0.67500000  0.17200000  0.54560000  1.0 0.0673708842
C  C154  1  0.42200000  0.07500000  0.79560000  1.0 0.0673708842
C  C155  1  0.32500000  0.17200000  0.95440000  1.0 0.0673708842
C  C156  1  0.32500000  0.32800000  0.04560000  1.0 0.0673708842
C  C157  1  0.42200000  0.42500000  0.20440000  1.0 0.0673708842
C  C158  1  0.57800000  0.42500000  0.29560000  1.0 0.0673708842
C  C159  1  0.67500000  0.32800000  0.45440000  1.0 0.0673708842
C  C160  1  0.57800000  0.07500000  0.70440000  1.0 0.0673708842
C  C161  1  0.58000000  0.08400000  0.79230000  1.0 0.0795272306
C  C162  1  0.83400000  0.67000000  0.54230000  1.0 0.0795272306
C  C163  1  0.42000000  0.08400000  0.70770000  1.0 0.0795272306
C  C164  1  0.42000000  0.41600000  0.29230000  1.0 0.0795272306
C  C165  1  0.83400000  0.83000000  0.45770000  1.0 0.0795272306
C  C166  1  0.16600000  0.83000000  0.04230000  1.0 0.0795272306
C  C167  1  0.58000000  0.41600000  0.20770000  1.0 0.0795272306
C  C168  1  0.16600000  0.67000000  0.95770000  1.0 0.0795272306
C  C169  1  0.08000000  0.58400000  0.29230000  1.0 0.0795272306
C  C170  1  0.33400000  0.17000000  0.04230000  1.0 0.0795272306
C  C171  1  0.92000000  0.58400000  0.20770000  1.0 0.0795272306
C  C172  1  0.92000000  0.91600000  0.79230000  1.0 0.0795272306
C  C173  1  0.33400000  0.33000000  0.95770000  1.0 0.0795272306
C  C174  1  0.66600000  0.33000000  0.54230000  1.0 0.0795272306
C  C175  1  0.08000000  0.91600000  0.70770000  1.0 0.0795272306
C  C176  1  0.66600000  0.17000000  0.45770000  1.0 0.0795272306
C  C177  1  0.42000000  0.91600000  0.20770000  1.0 0.0795272306
C  C178  1  0.16600000  0.33000000  0.45770000  1.0 0.0795272306
C  C179  1  0.58000000  0.91600000  0.29230000  1.0 0.0795272306
C  C180  1  0.58000000  0.58400000  0.70770000  1.0 0.0795272306
C  C181  1  0.16600000  0.17000000  0.54230000  1.0 0.0795272306
C  C182  1  0.83400000  0.17000000  0.95770000  1.0 0.0795272306
C  C183  1  0.42000000  0.58400000  0.79230000  1.0 0.0795272306
C  C184  1  0.83400000  0.33000000  0.04230000  1.0 0.0795272306
C  C185  1  0.92000000  0.41600000  0.70770000  1.0 0.0795272306
C  C186  1  0.66600000  0.83000000  0.95770000  1.0 0.0795272306
C  C187  1  0.08000000  0.41600000  0.79230000  1.0 0.0795272306
C  C188  1  0.08000000  0.08400000  0.20770000  1.0 0.0795272306
C  C189  1  0.66600000  0.67000000  0.04230000  1.0 0.0795272306
C  C190  1  0.33400000  0.67000000  0.45770000  1.0 0.0795272306
C  C191  1  0.92000000  0.08400000  0.29230000  1.0 0.0795272306
C  C192  1  0.33400000  0.83000000  0.54230000  1.0 0.0795272306
C  C193  1  0.58100000  0.10600000  0.81120000  1.0 -0.1973695469
C  C194  1  0.85600000  0.66900000  0.56120000  1.0 -0.1973695469
C  C195  1  0.41900000  0.10600000  0.68880000  1.0 -0.1973695469
C  C196  1  0.41900000  0.39400000  0.31120000  1.0 -0.1973695469
C  C197  1  0.85600000  0.83100000  0.43880000  1.0 -0.1973695469
C  C198  1  0.14400000  0.83100000  0.06120000  1.0 -0.1973695469
C  C199  1  0.58100000  0.39400000  0.18880000  1.0 -0.1973695469
C  C200  1  0.14400000  0.66900000  0.93880000  1.0 -0.1973695469
C  C201  1  0.08100000  0.60600000  0.31120000  1.0 -0.1973695469
C  C202  1  0.35600000  0.16900000  0.06120000  1.0 -0.1973695469
C  C203  1  0.91900000  0.60600000  0.18880000  1.0 -0.1973695469
C  C204  1  0.91900000  0.89400000  0.81120000  1.0 -0.1973695469
C  C205  1  0.35600000  0.33100000  0.93880000  1.0 -0.1973695469
C  C206  1  0.64400000  0.33100000  0.56120000  1.0 -0.1973695469
C  C207  1  0.08100000  0.89400000  0.68880000  1.0 -0.1973695469
C  C208  1  0.64400000  0.16900000  0.43880000  1.0 -0.1973695469
C  C209  1  0.41900000  0.89400000  0.18880000  1.0 -0.1973695469
C  C210  1  0.14400000  0.33100000  0.43880000  1.0 -0.1973695469
C  C211  1  0.58100000  0.89400000  0.31120000  1.0 -0.1973695469
C  C212  1  0.58100000  0.60600000  0.68880000  1.0 -0.1973695469
C  C213  1  0.14400000  0.16900000  0.56120000  1.0 -0.1973695469
C  C214  1  0.85600000  0.16900000  0.93880000  1.0 -0.1973695469
C  C215  1  0.41900000  0.60600000  0.81120000  1.0 -0.1973695469
C  C216  1  0.85600000  0.33100000  0.06120000  1.0 -0.1973695469
C  C217  1  0.91900000  0.39400000  0.68880000  1.0 -0.1973695469
C  C218  1  0.64400000  0.83100000  0.93880000  1.0 -0.1973695469
C  C219  1  0.08100000  0.39400000  0.81120000  1.0 -0.1973695469
C  C220  1  0.08100000  0.10600000  0.18880000  1.0 -0.1973695469
C  C221  1  0.64400000  0.66900000  0.06120000  1.0 -0.1973695469
C  C222  1  0.35600000  0.66900000  0.43880000  1.0 -0.1973695469
C  C223  1  0.91900000  0.10600000  0.31120000  1.0 -0.1973695469
C  C224  1  0.35600000  0.83100000  0.56120000  1.0 -0.1973695469
C  C225  1  0.56800000  0.16100000  0.81410000  1.0 0.1480849782
C  C226  1  0.91100000  0.68200000  0.56410000  1.0 0.1480849782
C  C227  1  0.43200000  0.16100000  0.68590000  1.0 0.1480849782
C  C228  1  0.43200000  0.33900000  0.31410000  1.0 0.1480849782
C  C229  1  0.91100000  0.81800000  0.43590000  1.0 0.1480849782
C  C230  1  0.08900000  0.81800000  0.06410000  1.0 0.1480849782
C  C231  1  0.56800000  0.33900000  0.18590000  1.0 0.1480849782
C  C232  1  0.08900000  0.68200000  0.93590000  1.0 0.1480849782
C  C233  1  0.06800000  0.66100000  0.31410000  1.0 0.1480849782
C  C234  1  0.41100000  0.18200000  0.06410000  1.0 0.1480849782
C  C235  1  0.93200000  0.66100000  0.18590000  1.0 0.1480849782
C  C236  1  0.93200000  0.83900000  0.81410000  1.0 0.1480849782
C  C237  1  0.41100000  0.31800000  0.93590000  1.0 0.1480849782
C  C238  1  0.58900000  0.31800000  0.56410000  1.0 0.1480849782
C  C239  1  0.06800000  0.83900000  0.68590000  1.0 0.1480849782
C  C240  1  0.58900000  0.18200000  0.43590000  1.0 0.1480849782
C  C241  1  0.43200000  0.83900000  0.18590000  1.0 0.1480849782
C  C242  1  0.08900000  0.31800000  0.43590000  1.0 0.1480849782
C  C243  1  0.56800000  0.83900000  0.31410000  1.0 0.1480849782
C  C244  1  0.56800000  0.66100000  0.68590000  1.0 0.1480849782
C  C245  1  0.08900000  0.18200000  0.56410000  1.0 0.1480849782
C  C246  1  0.91100000  0.18200000  0.93590000  1.0 0.1480849782
C  C247  1  0.43200000  0.66100000  0.81410000  1.0 0.1480849782
C  C248  1  0.91100000  0.31800000  0.06410000  1.0 0.1480849782
C  C249  1  0.93200000  0.33900000  0.68590000  1.0 0.1480849782
C  C250  1  0.58900000  0.81800000  0.93590000  1.0 0.1480849782
C  C251  1  0.06800000  0.33900000  0.81410000  1.0 0.1480849782
C  C252  1  0.06800000  0.16100000  0.18590000  1.0 0.1480849782
C  C253  1  0.58900000  0.68200000  0.06410000  1.0 0.1480849782
C  C254  1  0.41100000  0.68200000  0.43590000  1.0 0.1480849782
C  C255  1  0.93200000  0.16100000  0.31410000  1.0 0.1480849782
C  C256  1  0.41100000  0.81800000  0.56410000  1.0 0.1480849782
C  C257  1  0.55300000  0.19400000  0.79810000  1.0 -0.1613579164
C  C258  1  0.94400000  0.69700000  0.54810000  1.0 -0.1613579164
C  C259  1  0.44700000  0.19400000  0.70190000  1.0 -0.1613579164
C  C260  1  0.44700000  0.30600000  0.29810000  1.0 -0.1613579164
C  C261  1  0.94400000  0.80300000  0.45190000  1.0 -0.1613579164
C  C262  1  0.05600000  0.80300000  0.04810000  1.0 -0.1613579164
C  C263  1  0.55300000  0.30600000  0.20190000  1.0 -0.1613579164
C  C264  1  0.05600000  0.69700000  0.95190000  1.0 -0.1613579164
C  C265  1  0.05300000  0.69400000  0.29810000  1.0 -0.1613579164
C  C266  1  0.44400000  0.19700000  0.04810000  1.0 -0.1613579164
C  C267  1  0.94700000  0.69400000  0.20190000  1.0 -0.1613579164
C  C268  1  0.94700000  0.80600000  0.79810000  1.0 -0.1613579164
C  C269  1  0.44400000  0.30300000  0.95190000  1.0 -0.1613579164
C  C270  1  0.55600000  0.30300000  0.54810000  1.0 -0.1613579164
C  C271  1  0.05300000  0.80600000  0.70190000  1.0 -0.1613579164
C  C272  1  0.55600000  0.19700000  0.45190000  1.0 -0.1613579164
C  C273  1  0.44700000  0.80600000  0.20190000  1.0 -0.1613579164
C  C274  1  0.05600000  0.30300000  0.45190000  1.0 -0.1613579164
C  C275  1  0.55300000  0.80600000  0.29810000  1.0 -0.1613579164
C  C276  1  0.55300000  0.69400000  0.70190000  1.0 -0.1613579164
C  C277  1  0.05600000  0.19700000  0.54810000  1.0 -0.1613579164
C  C278  1  0.94400000  0.19700000  0.95190000  1.0 -0.1613579164
C  C279  1  0.44700000  0.69400000  0.79810000  1.0 -0.1613579164
C  C280  1  0.94400000  0.30300000  0.04810000  1.0 -0.1613579164
C  C281  1  0.94700000  0.30600000  0.70190000  1.0 -0.1613579164
C  C282  1  0.55600000  0.80300000  0.95190000  1.0 -0.1613579164
C  C283  1  0.05300000  0.30600000  0.79810000  1.0 -0.1613579164
C  C284  1  0.05300000  0.19400000  0.20190000  1.0 -0.1613579164
C  C285  1  0.55600000  0.69700000  0.04810000  1.0 -0.1613579164
C  C286  1  0.44400000  0.69700000  0.45190000  1.0 -0.1613579164
C  C287  1  0.94700000  0.19400000  0.29810000  1.0 -0.1613579164
C  C288  1  0.44400000  0.80300000  0.54810000  1.0 -0.1613579164
C  C289  1  0.55300000  0.17000000  0.77940000  1.0 0.0399734332
C  C290  1  0.92000000  0.69700000  0.52940000  1.0 0.0399734332
C  C291  1  0.44700000  0.17000000  0.72060000  1.0 0.0399734332
C  C292  1  0.44700000  0.33000000  0.27940000  1.0 0.0399734332
C  C293  1  0.92000000  0.80300000  0.47060000  1.0 0.0399734332
C  C294  1  0.08000000  0.80300000  0.02940000  1.0 0.0399734332
C  C295  1  0.55300000  0.33000000  0.22060000  1.0 0.0399734332
C  C296  1  0.08000000  0.69700000  0.97060000  1.0 0.0399734332
C  C297  1  0.05300000  0.67000000  0.27940000  1.0 0.0399734332
C  C298  1  0.42000000  0.19700000  0.02940000  1.0 0.0399734332
C  C299  1  0.94700000  0.67000000  0.22060000  1.0 0.0399734332
C  C300  1  0.94700000  0.83000000  0.77940000  1.0 0.0399734332
C  C301  1  0.42000000  0.30300000  0.97060000  1.0 0.0399734332
C  C302  1  0.58000000  0.30300000  0.52940000  1.0 0.0399734332
C  C303  1  0.05300000  0.83000000  0.72060000  1.0 0.0399734332
C  C304  1  0.58000000  0.19700000  0.47060000  1.0 0.0399734332
C  C305  1  0.44700000  0.83000000  0.22060000  1.0 0.0399734332
C  C306  1  0.08000000  0.30300000  0.47060000  1.0 0.0399734332
C  C307  1  0.55300000  0.83000000  0.27940000  1.0 0.0399734332
C  C308  1  0.55300000  0.67000000  0.72060000  1.0 0.0399734332
C  C309  1  0.08000000  0.19700000  0.52940000  1.0 0.0399734332
C  C310  1  0.92000000  0.19700000  0.97060000  1.0 0.0399734332
C  C311  1  0.44700000  0.67000000  0.77940000  1.0 0.0399734332
C  C312  1  0.92000000  0.30300000  0.02940000  1.0 0.0399734332
C  C313  1  0.94700000  0.33000000  0.72060000  1.0 0.0399734332
C  C314  1  0.58000000  0.80300000  0.97060000  1.0 0.0399734332
C  C315  1  0.05300000  0.33000000  0.77940000  1.0 0.0399734332
C  C316  1  0.05300000  0.17000000  0.22060000  1.0 0.0399734332
C  C317  1  0.58000000  0.69700000  0.02940000  1.0 0.0399734332
C  C318  1  0.42000000  0.69700000  0.47060000  1.0 0.0399734332
C  C319  1  0.94700000  0.17000000  0.27940000  1.0 0.0399734332
C  C320  1  0.42000000  0.80300000  0.52940000  1.0 0.0399734332
C  C321  1  0.72600000  0.32290000  0.91200000  1.0 -0.0457654134
C  C322  1  0.07290000  0.52400000  0.66200000  1.0 -0.0457654134
C  C323  1  0.27400000  0.32290000  0.58800000  1.0 -0.0457654134
C  C324  1  0.27400000  0.17710000  0.41200000  1.0 -0.0457654134
C  C325  1  0.07290000  0.97600000  0.33800000  1.0 -0.0457654134
C  C326  1  0.92710000  0.97600000  0.16200000  1.0 -0.0457654134
C  C327  1  0.72600000  0.17710000  0.08800000  1.0 -0.0457654134
C  C328  1  0.92710000  0.52400000  0.83800000  1.0 -0.0457654134
C  C329  1  0.22600000  0.82290000  0.41200000  1.0 -0.0457654134
C  C330  1  0.57290000  0.02400000  0.16200000  1.0 -0.0457654134
C  C331  1  0.77400000  0.82290000  0.08800000  1.0 -0.0457654134
C  C332  1  0.77400000  0.67710000  0.91200000  1.0 -0.0457654134
C  C333  1  0.57290000  0.47600000  0.83800000  1.0 -0.0457654134
C  C334  1  0.42710000  0.47600000  0.66200000  1.0 -0.0457654134
C  C335  1  0.22600000  0.67710000  0.58800000  1.0 -0.0457654134
C  C336  1  0.42710000  0.02400000  0.33800000  1.0 -0.0457654134
C  C337  1  0.27400000  0.67710000  0.08800000  1.0 -0.0457654134
C  C338  1  0.92710000  0.47600000  0.33800000  1.0 -0.0457654134
C  C339  1  0.72600000  0.67710000  0.41200000  1.0 -0.0457654134
C  C340  1  0.72600000  0.82290000  0.58800000  1.0 -0.0457654134
C  C341  1  0.92710000  0.02400000  0.66200000  1.0 -0.0457654134
C  C342  1  0.07290000  0.02400000  0.83800000  1.0 -0.0457654134
C  C343  1  0.27400000  0.82290000  0.91200000  1.0 -0.0457654134
C  C344  1  0.07290000  0.47600000  0.16200000  1.0 -0.0457654134
C  C345  1  0.77400000  0.17710000  0.58800000  1.0 -0.0457654134
C  C346  1  0.42710000  0.97600000  0.83800000  1.0 -0.0457654134
C  C347  1  0.22600000  0.17710000  0.91200000  1.0 -0.0457654134
C  C348  1  0.22600000  0.32290000  0.08800000  1.0 -0.0457654134
C  C349  1  0.42710000  0.52400000  0.16200000  1.0 -0.0457654134
C  C350  1  0.57290000  0.52400000  0.33800000  1.0 -0.0457654134
C  C351  1  0.77400000  0.32290000  0.41200000  1.0 -0.0457654134
C  C352  1  0.57290000  0.97600000  0.66200000  1.0 -0.0457654134
C  C353  1  0.71600000  0.27270000  0.90200000  1.0 0.0927938103
C  C354  1  0.02270000  0.53400000  0.65200000  1.0 0.0927938103
C  C355  1  0.28400000  0.27270000  0.59800000  1.0 0.0927938103
C  C356  1  0.28400000  0.22730000  0.40200000  1.0 0.0927938103
C  C357  1  0.02270000  0.96600000  0.34800000  1.0 0.0927938103
C  C358  1  0.97730000  0.96600000  0.15200000  1.0 0.0927938103
C  C359  1  0.71600000  0.22730000  0.09800000  1.0 0.0927938103
C  C360  1  0.97730000  0.53400000  0.84800000  1.0 0.0927938103
C  C361  1  0.21600000  0.77270000  0.40200000  1.0 0.0927938103
C  C362  1  0.52270000  0.03400000  0.15200000  1.0 0.0927938103
C  C363  1  0.78400000  0.77270000  0.09800000  1.0 0.0927938103
C  C364  1  0.78400000  0.72730000  0.90200000  1.0 0.0927938103
C  C365  1  0.52270000  0.46600000  0.84800000  1.0 0.0927938103
C  C366  1  0.47730000  0.46600000  0.65200000  1.0 0.0927938103
C  C367  1  0.21600000  0.72730000  0.59800000  1.0 0.0927938103
C  C368  1  0.47730000  0.03400000  0.34800000  1.0 0.0927938103
C  C369  1  0.28400000  0.72730000  0.09800000  1.0 0.0927938103
C  C370  1  0.97730000  0.46600000  0.34800000  1.0 0.0927938103
C  C371  1  0.71600000  0.72730000  0.40200000  1.0 0.0927938103
C  C372  1  0.71600000  0.77270000  0.59800000  1.0 0.0927938103
C  C373  1  0.97730000  0.03400000  0.65200000  1.0 0.0927938103
C  C374  1  0.02270000  0.03400000  0.84800000  1.0 0.0927938103
C  C375  1  0.28400000  0.77270000  0.90200000  1.0 0.0927938103
C  C376  1  0.02270000  0.46600000  0.15200000  1.0 0.0927938103
C  C377  1  0.78400000  0.22730000  0.59800000  1.0 0.0927938103
C  C378  1  0.47730000  0.96600000  0.84800000  1.0 0.0927938103
C  C379  1  0.21600000  0.22730000  0.90200000  1.0 0.0927938103
C  C380  1  0.21600000  0.27270000  0.09800000  1.0 0.0927938103
C  C381  1  0.47730000  0.53400000  0.15200000  1.0 0.0927938103
C  C382  1  0.52270000  0.53400000  0.34800000  1.0 0.0927938103
C  C383  1  0.78400000  0.27270000  0.40200000  1.0 0.0927938103
C  C384  1  0.52270000  0.96600000  0.65200000  1.0 0.0927938103
C  C385  1  0.69200000  0.27400000  0.88320000  1.0 0.0209629261
C  C386  1  0.02400000  0.55800000  0.63320000  1.0 0.0209629261
C  C387  1  0.30800000  0.27400000  0.61680000  1.0 0.0209629261
C  C388  1  0.30800000  0.22600000  0.38320000  1.0 0.0209629261
C  C389  1  0.02400000  0.94200000  0.36680000  1.0 0.0209629261
C  C390  1  0.97600000  0.94200000  0.13320000  1.0 0.0209629261
C  C391  1  0.69200000  0.22600000  0.11680000  1.0 0.0209629261
C  C392  1  0.97600000  0.55800000  0.86680000  1.0 0.0209629261
C  C393  1  0.19200000  0.77400000  0.38320000  1.0 0.0209629261
C  C394  1  0.52400000  0.05800000  0.13320000  1.0 0.0209629261
C  C395  1  0.80800000  0.77400000  0.11680000  1.0 0.0209629261
C  C396  1  0.80800000  0.72600000  0.88320000  1.0 0.0209629261
C  C397  1  0.52400000  0.44200000  0.86680000  1.0 0.0209629261
C  C398  1  0.47600000  0.44200000  0.63320000  1.0 0.0209629261
C  C399  1  0.19200000  0.72600000  0.61680000  1.0 0.0209629261
C  C400  1  0.47600000  0.05800000  0.36680000  1.0 0.0209629261
C  C401  1  0.30800000  0.72600000  0.11680000  1.0 0.0209629261
C  C402  1  0.97600000  0.44200000  0.36680000  1.0 0.0209629261
C  C403  1  0.69200000  0.72600000  0.38320000  1.0 0.0209629261
C  C404  1  0.69200000  0.77400000  0.61680000  1.0 0.0209629261
C  C405  1  0.97600000  0.05800000  0.63320000  1.0 0.0209629261
C  C406  1  0.02400000  0.05800000  0.86680000  1.0 0.0209629261
C  C407  1  0.30800000  0.77400000  0.88320000  1.0 0.0209629261
C  C408  1  0.02400000  0.44200000  0.13320000  1.0 0.0209629261
C  C409  1  0.80800000  0.22600000  0.61680000  1.0 0.0209629261
C  C410  1  0.47600000  0.94200000  0.86680000  1.0 0.0209629261
C  C411  1  0.19200000  0.22600000  0.88320000  1.0 0.0209629261
C  C412  1  0.19200000  0.27400000  0.11680000  1.0 0.0209629261
C  C413  1  0.47600000  0.55800000  0.13320000  1.0 0.0209629261
C  C414  1  0.52400000  0.55800000  0.36680000  1.0 0.0209629261
C  C415  1  0.80800000  0.27400000  0.38320000  1.0 0.0209629261
C  C416  1  0.52400000  0.94200000  0.63320000  1.0 0.0209629261
C  C417  1  0.68240000  0.32620000  0.87450000  1.0 0.0795272306
C  C418  1  0.07620000  0.56760000  0.62450000  1.0 0.0795272306
C  C419  1  0.31760000  0.32620000  0.62550000  1.0 0.0795272306
C  C420  1  0.31760000  0.17380000  0.37450000  1.0 0.0795272306
C  C421  1  0.07620000  0.93240000  0.37550000  1.0 0.0795272306
C  C422  1  0.92380000  0.93240000  0.12450000  1.0 0.0795272306
C  C423  1  0.68240000  0.17380000  0.12550000  1.0 0.0795272306
C  C424  1  0.92380000  0.56760000  0.87550000  1.0 0.0795272306
C  C425  1  0.18240000  0.82620000  0.37450000  1.0 0.0795272306
C  C426  1  0.57620000  0.06760000  0.12450000  1.0 0.0795272306
C  C427  1  0.81760000  0.82620000  0.12550000  1.0 0.0795272306
C  C428  1  0.81760000  0.67380000  0.87450000  1.0 0.0795272306
C  C429  1  0.57620000  0.43240000  0.87550000  1.0 0.0795272306
C  C430  1  0.42380000  0.43240000  0.62450000  1.0 0.0795272306
C  C431  1  0.18240000  0.67380000  0.62550000  1.0 0.0795272306
C  C432  1  0.42380000  0.06760000  0.37550000  1.0 0.0795272306
C  C433  1  0.31760000  0.67380000  0.12550000  1.0 0.0795272306
C  C434  1  0.92380000  0.43240000  0.37550000  1.0 0.0795272306
C  C435  1  0.68240000  0.67380000  0.37450000  1.0 0.0795272306
C  C436  1  0.68240000  0.82620000  0.62550000  1.0 0.0795272306
C  C437  1  0.92380000  0.06760000  0.62450000  1.0 0.0795272306
C  C438  1  0.07620000  0.06760000  0.87550000  1.0 0.0795272306
C  C439  1  0.31760000  0.82620000  0.87450000  1.0 0.0795272306
C  C440  1  0.07620000  0.43240000  0.12450000  1.0 0.0795272306
C  C441  1  0.81760000  0.17380000  0.62550000  1.0 0.0795272306
C  C442  1  0.42380000  0.93240000  0.87550000  1.0 0.0795272306
C  C443  1  0.18240000  0.17380000  0.87450000  1.0 0.0795272306
C  C444  1  0.18240000  0.32620000  0.12550000  1.0 0.0795272306
C  C445  1  0.42380000  0.56760000  0.12450000  1.0 0.0795272306
C  C446  1  0.57620000  0.56760000  0.37550000  1.0 0.0795272306
C  C447  1  0.81760000  0.32620000  0.37450000  1.0 0.0795272306
C  C448  1  0.57620000  0.93240000  0.62450000  1.0 0.0795272306
C  C449  1  0.69200000  0.37620000  0.88480000  1.0 0.0011276731
C  C450  1  0.12620000  0.55800000  0.63480000  1.0 0.0011276731
C  C451  1  0.30800000  0.37620000  0.61520000  1.0 0.0011276731
C  C452  1  0.30800000  0.12380000  0.38480000  1.0 0.0011276731
C  C453  1  0.12620000  0.94200000  0.36520000  1.0 0.0011276731
C  C454  1  0.87380000  0.94200000  0.13480000  1.0 0.0011276731
C  C455  1  0.69200000  0.12380000  0.11520000  1.0 0.0011276731
C  C456  1  0.87380000  0.55800000  0.86520000  1.0 0.0011276731
C  C457  1  0.19200000  0.87620000  0.38480000  1.0 0.0011276731
C  C458  1  0.62620000  0.05800000  0.13480000  1.0 0.0011276731
C  C459  1  0.80800000  0.87620000  0.11520000  1.0 0.0011276731
C  C460  1  0.80800000  0.62380000  0.88480000  1.0 0.0011276731
C  C461  1  0.62620000  0.44200000  0.86520000  1.0 0.0011276731
C  C462  1  0.37380000  0.44200000  0.63480000  1.0 0.0011276731
C  C463  1  0.19200000  0.62380000  0.61520000  1.0 0.0011276731
C  C464  1  0.37380000  0.05800000  0.36520000  1.0 0.0011276731
C  C465  1  0.30800000  0.62380000  0.11520000  1.0 0.0011276731
C  C466  1  0.87380000  0.44200000  0.36520000  1.0 0.0011276731
C  C467  1  0.69200000  0.62380000  0.38480000  1.0 0.0011276731
C  C468  1  0.69200000  0.87620000  0.61520000  1.0 0.0011276731
C  C469  1  0.87380000  0.05800000  0.63480000  1.0 0.0011276731
C  C470  1  0.12620000  0.05800000  0.86520000  1.0 0.0011276731
C  C471  1  0.30800000  0.87620000  0.88480000  1.0 0.0011276731
C  C472  1  0.12620000  0.44200000  0.13480000  1.0 0.0011276731
C  C473  1  0.80800000  0.12380000  0.61520000  1.0 0.0011276731
C  C474  1  0.37380000  0.94200000  0.86520000  1.0 0.0011276731
C  C475  1  0.19200000  0.12380000  0.88480000  1.0 0.0011276731
C  C476  1  0.19200000  0.37620000  0.11520000  1.0 0.0011276731
C  C477  1  0.37380000  0.55800000  0.13480000  1.0 0.0011276731
C  C478  1  0.62620000  0.55800000  0.36520000  1.0 0.0011276731
C  C479  1  0.80800000  0.37620000  0.38480000  1.0 0.0011276731
C  C480  1  0.62620000  0.94200000  0.63480000  1.0 0.0011276731
C  C481  1  0.71300000  0.37430000  0.90380000  1.0 0.0673708842
C  C482  1  0.12430000  0.53700000  0.65380000  1.0 0.0673708842
C  C483  1  0.28700000  0.37430000  0.59620000  1.0 0.0673708842
C  C484  1  0.28700000  0.12570000  0.40380000  1.0 0.0673708842
C  C485  1  0.12430000  0.96300000  0.34620000  1.0 0.0673708842
C  C486  1  0.87570000  0.96300000  0.15380000  1.0 0.0673708842
C  C487  1  0.71300000  0.12570000  0.09620000  1.0 0.0673708842
C  C488  1  0.87570000  0.53700000  0.84620000  1.0 0.0673708842
C  C489  1  0.21300000  0.87430000  0.40380000  1.0 0.0673708842
C  C490  1  0.62430000  0.03700000  0.15380000  1.0 0.0673708842
C  C491  1  0.78700000  0.87430000  0.09620000  1.0 0.0673708842
C  C492  1  0.78700000  0.62570000  0.90380000  1.0 0.0673708842
C  C493  1  0.62430000  0.46300000  0.84620000  1.0 0.0673708842
C  C494  1  0.37570000  0.46300000  0.65380000  1.0 0.0673708842
C  C495  1  0.21300000  0.62570000  0.59620000  1.0 0.0673708842
C  C496  1  0.37570000  0.03700000  0.34620000  1.0 0.0673708842
C  C497  1  0.28700000  0.62570000  0.09620000  1.0 0.0673708842
C  C498  1  0.87570000  0.46300000  0.34620000  1.0 0.0673708842
C  C499  1  0.71300000  0.62570000  0.40380000  1.0 0.0673708842
C  C500  1  0.71300000  0.87430000  0.59620000  1.0 0.0673708842
C  C501  1  0.87570000  0.03700000  0.65380000  1.0 0.0673708842
C  C502  1  0.12430000  0.03700000  0.84620000  1.0 0.0673708842
C  C503  1  0.28700000  0.87430000  0.90380000  1.0 0.0673708842
C  C504  1  0.12430000  0.46300000  0.15380000  1.0 0.0673708842
C  C505  1  0.78700000  0.12570000  0.59620000  1.0 0.0673708842
C  C506  1  0.37570000  0.96300000  0.84620000  1.0 0.0673708842
C  C507  1  0.21300000  0.12570000  0.90380000  1.0 0.0673708842
C  C508  1  0.21300000  0.37430000  0.09620000  1.0 0.0673708842
C  C509  1  0.37570000  0.53700000  0.15380000  1.0 0.0673708842
C  C510  1  0.62430000  0.53700000  0.34620000  1.0 0.0673708842
C  C511  1  0.78700000  0.37430000  0.40380000  1.0 0.0673708842
C  C512  1  0.62430000  0.96300000  0.65380000  1.0 0.0673708842
C  C513  1  0.73000000  0.21800000  0.91120000  1.0 -0.4479390852
C  C514  1  0.96800000  0.52000000  0.66120000  1.0 -0.4479390852
C  C515  1  0.27000000  0.21800000  0.58880000  1.0 -0.4479390852
C  C516  1  0.27000000  0.28200000  0.41120000  1.0 -0.4479390852
C  C517  1  0.96800000  0.98000000  0.33880000  1.0 -0.4479390852
C  C518  1  0.03200000  0.98000000  0.16120000  1.0 -0.4479390852
C  C519  1  0.73000000  0.28200000  0.08880000  1.0 -0.4479390852
C  C520  1  0.03200000  0.52000000  0.83880000  1.0 -0.4479390852
C  C521  1  0.23000000  0.71800000  0.41120000  1.0 -0.4479390852
C  C522  1  0.46800000  0.02000000  0.16120000  1.0 -0.4479390852
C  C523  1  0.77000000  0.71800000  0.08880000  1.0 -0.4479390852
C  C524  1  0.77000000  0.78200000  0.91120000  1.0 -0.4479390852
C  C525  1  0.46800000  0.48000000  0.83880000  1.0 -0.4479390852
C  C526  1  0.53200000  0.48000000  0.66120000  1.0 -0.4479390852
C  C527  1  0.23000000  0.78200000  0.58880000  1.0 -0.4479390852
C  C528  1  0.53200000  0.02000000  0.33880000  1.0 -0.4479390852
C  C529  1  0.27000000  0.78200000  0.08880000  1.0 -0.4479390852
C  C530  1  0.03200000  0.48000000  0.33880000  1.0 -0.4479390852
C  C531  1  0.73000000  0.78200000  0.41120000  1.0 -0.4479390852
C  C532  1  0.73000000  0.71800000  0.58880000  1.0 -0.4479390852
C  C533  1  0.03200000  0.02000000  0.66120000  1.0 -0.4479390852
C  C534  1  0.96800000  0.02000000  0.83880000  1.0 -0.4479390852
C  C535  1  0.27000000  0.71800000  0.91120000  1.0 -0.4479390852
C  C536  1  0.96800000  0.48000000  0.16120000  1.0 -0.4479390852
C  C537  1  0.77000000  0.28200000  0.58880000  1.0 -0.4479390852
C  C538  1  0.53200000  0.98000000  0.83880000  1.0 -0.4479390852
C  C539  1  0.23000000  0.28200000  0.91120000  1.0 -0.4479390852
C  C540  1  0.23000000  0.21800000  0.08880000  1.0 -0.4479390852
C  C541  1  0.53200000  0.52000000  0.16120000  1.0 -0.4479390852
C  C542  1  0.46800000  0.52000000  0.33880000  1.0 -0.4479390852
C  C543  1  0.77000000  0.21800000  0.41120000  1.0 -0.4479390852
C  C544  1  0.46800000  0.98000000  0.66120000  1.0 -0.4479390852
C  C545  1  0.66400000  0.32800000  0.85300000  1.0 -0.4479390852
C  C546  1  0.07800000  0.58600000  0.60300000  1.0 -0.4479390852
C  C547  1  0.33600000  0.32800000  0.64700000  1.0 -0.4479390852
C  C548  1  0.33600000  0.17200000  0.35300000  1.0 -0.4479390852
C  C549  1  0.07800000  0.91400000  0.39700000  1.0 -0.4479390852
C  C550  1  0.92200000  0.91400000  0.10300000  1.0 -0.4479390852
C  C551  1  0.66400000  0.17200000  0.14700000  1.0 -0.4479390852
C  C552  1  0.92200000  0.58600000  0.89700000  1.0 -0.4479390852
C  C553  1  0.16400000  0.82800000  0.35300000  1.0 -0.4479390852
C  C554  1  0.57800000  0.08600000  0.10300000  1.0 -0.4479390852
C  C555  1  0.83600000  0.82800000  0.14700000  1.0 -0.4479390852
C  C556  1  0.83600000  0.67200000  0.85300000  1.0 -0.4479390852
C  C557  1  0.57800000  0.41400000  0.89700000  1.0 -0.4479390852
C  C558  1  0.42200000  0.41400000  0.60300000  1.0 -0.4479390852
C  C559  1  0.16400000  0.67200000  0.64700000  1.0 -0.4479390852
C  C560  1  0.42200000  0.08600000  0.39700000  1.0 -0.4479390852
C  C561  1  0.33600000  0.67200000  0.14700000  1.0 -0.4479390852
C  C562  1  0.92200000  0.41400000  0.39700000  1.0 -0.4479390852
C  C563  1  0.66400000  0.67200000  0.35300000  1.0 -0.4479390852
C  C564  1  0.66400000  0.82800000  0.64700000  1.0 -0.4479390852
C  C565  1  0.92200000  0.08600000  0.60300000  1.0 -0.4479390852
C  C566  1  0.07800000  0.08600000  0.89700000  1.0 -0.4479390852
C  C567  1  0.33600000  0.82800000  0.85300000  1.0 -0.4479390852
C  C568  1  0.07800000  0.41400000  0.10300000  1.0 -0.4479390852
C  C569  1  0.83600000  0.17200000  0.64700000  1.0 -0.4479390852
C  C570  1  0.42200000  0.91400000  0.89700000  1.0 -0.4479390852
C  C571  1  0.16400000  0.17200000  0.85300000  1.0 -0.4479390852
C  C572  1  0.16400000  0.32800000  0.14700000  1.0 -0.4479390852
C  C573  1  0.42200000  0.58600000  0.10300000  1.0 -0.4479390852
C  C574  1  0.57800000  0.58600000  0.39700000  1.0 -0.4479390852
C  C575  1  0.83600000  0.32800000  0.35300000  1.0 -0.4479390852
C  C576  1  0.57800000  0.91400000  0.60300000  1.0 -0.4479390852
C  C577  1  0.72600000  0.42570000  0.91500000  1.0 -0.4355495357
C  C578  1  0.17570000  0.52400000  0.66500000  1.0 -0.4355495357
C  C579  1  0.27400000  0.42570000  0.58500000  1.0 -0.4355495357
C  C580  1  0.27400000  0.07430000  0.41500000  1.0 -0.4355495357
C  C581  1  0.17570000  0.97600000  0.33500000  1.0 -0.4355495357
C  C582  1  0.82430000  0.97600000  0.16500000  1.0 -0.4355495357
C  C583  1  0.72600000  0.07430000  0.08500000  1.0 -0.4355495357
C  C584  1  0.82430000  0.52400000  0.83500000  1.0 -0.4355495357
C  C585  1  0.22600000  0.92570000  0.41500000  1.0 -0.4355495357
C  C586  1  0.67570000  0.02400000  0.16500000  1.0 -0.4355495357
C  C587  1  0.77400000  0.92570000  0.08500000  1.0 -0.4355495357
C  C588  1  0.77400000  0.57430000  0.91500000  1.0 -0.4355495357
C  C589  1  0.67570000  0.47600000  0.83500000  1.0 -0.4355495357
C  C590  1  0.32430000  0.47600000  0.66500000  1.0 -0.4355495357
C  C591  1  0.22600000  0.57430000  0.58500000  1.0 -0.4355495357
C  C592  1  0.32430000  0.02400000  0.33500000  1.0 -0.4355495357
C  C593  1  0.27400000  0.57430000  0.08500000  1.0 -0.4355495357
C  C594  1  0.82430000  0.47600000  0.33500000  1.0 -0.4355495357
C  C595  1  0.72600000  0.57430000  0.41500000  1.0 -0.4355495357
C  C596  1  0.72600000  0.92570000  0.58500000  1.0 -0.4355495357
C  C597  1  0.82430000  0.02400000  0.66500000  1.0 -0.4355495357
C  C598  1  0.17570000  0.02400000  0.83500000  1.0 -0.4355495357
C  C599  1  0.27400000  0.92570000  0.91500000  1.0 -0.4355495357
C  C600  1  0.17570000  0.47600000  0.16500000  1.0 -0.4355495357
C  C601  1  0.77400000  0.07430000  0.58500000  1.0 -0.4355495357
C  C602  1  0.32430000  0.97600000  0.83500000  1.0 -0.4355495357
C  C603  1  0.22600000  0.07430000  0.91500000  1.0 -0.4355495357
C  C604  1  0.22600000  0.42570000  0.08500000  1.0 -0.4355495357
C  C605  1  0.32430000  0.52400000  0.16500000  1.0 -0.4355495357
C  C606  1  0.67570000  0.52400000  0.33500000  1.0 -0.4355495357
C  C607  1  0.77400000  0.42570000  0.41500000  1.0 -0.4355495357
C  C608  1  0.67570000  0.97600000  0.66500000  1.0 -0.4355495357
C  C609  1  0.68030000  0.43000000  0.87500000  1.0 -0.2674008653
C  C610  1  0.18000000  0.56970000  0.62500000  1.0 -0.2674008653
C  C611  1  0.31970000  0.43000000  0.62500000  1.0 -0.2674008653
C  C612  1  0.31970000  0.07000000  0.37500000  1.0 -0.2674008653
C  C613  1  0.18000000  0.93030000  0.37500000  1.0 -0.2674008653
C  C614  1  0.82000000  0.93030000  0.12500000  1.0 -0.2674008653
C  C615  1  0.68030000  0.07000000  0.12500000  1.0 -0.2674008653
C  C616  1  0.82000000  0.56970000  0.87500000  1.0 -0.2674008653
C  C617  1  0.31970000  0.57000000  0.12500000  1.0 -0.2674008653
C  C618  1  0.82000000  0.43030000  0.37500000  1.0 -0.2674008653
C  C619  1  0.68030000  0.57000000  0.37500000  1.0 -0.2674008653
C  C620  1  0.68030000  0.93000000  0.62500000  1.0 -0.2674008653
C  C621  1  0.82000000  0.06970000  0.62500000  1.0 -0.2674008653
C  C622  1  0.18000000  0.06970000  0.87500000  1.0 -0.2674008653
C  C623  1  0.31970000  0.93000000  0.87500000  1.0 -0.2674008653
C  C624  1  0.18000000  0.43030000  0.12500000  1.0 -0.2674008653
C  C625  1  0.68060000  0.22180000  0.87210000  1.0 -0.2581922979
C  C626  1  0.97180000  0.56940000  0.62210000  1.0 -0.2581922979
C  C627  1  0.31940000  0.22180000  0.62790000  1.0 -0.2581922979
C  C628  1  0.31940000  0.27820000  0.37210000  1.0 -0.2581922979
C  C629  1  0.97180000  0.93060000  0.37790000  1.0 -0.2581922979
C  C630  1  0.02820000  0.93060000  0.12210000  1.0 -0.2581922979
C  C631  1  0.68060000  0.27820000  0.12790000  1.0 -0.2581922979
C  C632  1  0.02820000  0.56940000  0.87790000  1.0 -0.2581922979
C  C633  1  0.18060000  0.72180000  0.37210000  1.0 -0.2581922979
C  C634  1  0.47180000  0.06940000  0.12210000  1.0 -0.2581922979
C  C635  1  0.81940000  0.72180000  0.12790000  1.0 -0.2581922979
C  C636  1  0.81940000  0.77820000  0.87210000  1.0 -0.2581922979
C  C637  1  0.47180000  0.43060000  0.87790000  1.0 -0.2581922979
C  C638  1  0.52820000  0.43060000  0.62210000  1.0 -0.2581922979
C  C639  1  0.18060000  0.77820000  0.62790000  1.0 -0.2581922979
C  C640  1  0.52820000  0.06940000  0.37790000  1.0 -0.2581922979
C  C641  1  0.31940000  0.77820000  0.12790000  1.0 -0.2581922979
C  C642  1  0.02820000  0.43060000  0.37790000  1.0 -0.2581922979
C  C643  1  0.68060000  0.77820000  0.37210000  1.0 -0.2581922979
C  C644  1  0.68060000  0.72180000  0.62790000  1.0 -0.2581922979
C  C645  1  0.02820000  0.06940000  0.62210000  1.0 -0.2581922979
C  C646  1  0.97180000  0.06940000  0.87790000  1.0 -0.2581922979
C  C647  1  0.31940000  0.72180000  0.87210000  1.0 -0.2581922979
C  C648  1  0.97180000  0.43060000  0.12210000  1.0 -0.2581922979
C  C649  1  0.81940000  0.27820000  0.62790000  1.0 -0.2581922979
C  C650  1  0.52820000  0.93060000  0.87790000  1.0 -0.2581922979
C  C651  1  0.18060000  0.27820000  0.87210000  1.0 -0.2581922979
C  C652  1  0.18060000  0.22180000  0.12790000  1.0 -0.2581922979
C  C653  1  0.52820000  0.56940000  0.12210000  1.0 -0.2581922979
C  C654  1  0.47180000  0.56940000  0.37790000  1.0 -0.2581922979
C  C655  1  0.81940000  0.22180000  0.37210000  1.0 -0.2581922979
C  C656  1  0.47180000  0.93060000  0.62210000  1.0 -0.2581922979
C  C657  1  0.57760000  0.22070000  0.87260000  1.0 0.054192192
C  C658  1  0.97070000  0.67240000  0.62260000  1.0 0.054192192
C  C659  1  0.42240000  0.22070000  0.62740000  1.0 0.054192192
C  C660  1  0.42240000  0.27930000  0.37260000  1.0 0.054192192
C  C661  1  0.97070000  0.82760000  0.37740000  1.0 0.054192192
C  C662  1  0.02930000  0.82760000  0.12260000  1.0 0.054192192
C  C663  1  0.57760000  0.27930000  0.12740000  1.0 0.054192192
C  C664  1  0.02930000  0.67240000  0.87740000  1.0 0.054192192
C  C665  1  0.07760000  0.72070000  0.37260000  1.0 0.054192192
C  C666  1  0.47070000  0.17240000  0.12260000  1.0 0.054192192
C  C667  1  0.92240000  0.72070000  0.12740000  1.0 0.054192192
C  C668  1  0.92240000  0.77930000  0.87260000  1.0 0.054192192
C  C669  1  0.47070000  0.32760000  0.87740000  1.0 0.054192192
C  C670  1  0.52930000  0.32760000  0.62260000  1.0 0.054192192
C  C671  1  0.07760000  0.77930000  0.62740000  1.0 0.054192192
C  C672  1  0.52930000  0.17240000  0.37740000  1.0 0.054192192
C  C673  1  0.42240000  0.77930000  0.12740000  1.0 0.054192192
C  C674  1  0.02930000  0.32760000  0.37740000  1.0 0.054192192
C  C675  1  0.57760000  0.77930000  0.37260000  1.0 0.054192192
C  C676  1  0.57760000  0.72070000  0.62740000  1.0 0.054192192
C  C677  1  0.02930000  0.17240000  0.62260000  1.0 0.054192192
C  C678  1  0.97070000  0.17240000  0.87740000  1.0 0.054192192
C  C679  1  0.42240000  0.72070000  0.87260000  1.0 0.054192192
C  C680  1  0.97070000  0.32760000  0.12260000  1.0 0.054192192
C  C681  1  0.92240000  0.27930000  0.62740000  1.0 0.054192192
C  C682  1  0.52930000  0.82760000  0.87740000  1.0 0.054192192
C  C683  1  0.07760000  0.27930000  0.87260000  1.0 0.054192192
C  C684  1  0.07760000  0.22070000  0.12740000  1.0 0.054192192
C  C685  1  0.52930000  0.67240000  0.12260000  1.0 0.054192192
C  C686  1  0.47070000  0.67240000  0.37740000  1.0 0.054192192
C  C687  1  0.92240000  0.22070000  0.37260000  1.0 0.054192192
C  C688  1  0.47070000  0.82760000  0.62260000  1.0 0.054192192
C  C689  1  0.52820000  0.21330000  0.86410000  1.0 0.0209629261
C  C690  1  0.96330000  0.72180000  0.61410000  1.0 0.0209629261
C  C691  1  0.47180000  0.21330000  0.63590000  1.0 0.0209629261
C  C692  1  0.47180000  0.28670000  0.36410000  1.0 0.0209629261
C  C693  1  0.96330000  0.77820000  0.38590000  1.0 0.0209629261
C  C694  1  0.03670000  0.77820000  0.11410000  1.0 0.0209629261
C  C695  1  0.52820000  0.28670000  0.13590000  1.0 0.0209629261
C  C696  1  0.03670000  0.72180000  0.88590000  1.0 0.0209629261
C  C697  1  0.02820000  0.71330000  0.36410000  1.0 0.0209629261
C  C698  1  0.46330000  0.22180000  0.11410000  1.0 0.0209629261
C  C699  1  0.97180000  0.71330000  0.13590000  1.0 0.0209629261
C  C700  1  0.97180000  0.78670000  0.86410000  1.0 0.0209629261
C  C701  1  0.46330000  0.27820000  0.88590000  1.0 0.0209629261
C  C702  1  0.53670000  0.27820000  0.61410000  1.0 0.0209629261
C  C703  1  0.02820000  0.78670000  0.63590000  1.0 0.0209629261
C  C704  1  0.53670000  0.22180000  0.38590000  1.0 0.0209629261
C  C705  1  0.47180000  0.78670000  0.13590000  1.0 0.0209629261
C  C706  1  0.03670000  0.27820000  0.38590000  1.0 0.0209629261
C  C707  1  0.52820000  0.78670000  0.36410000  1.0 0.0209629261
C  C708  1  0.52820000  0.71330000  0.63590000  1.0 0.0209629261
C  C709  1  0.03670000  0.22180000  0.61410000  1.0 0.0209629261
C  C710  1  0.96330000  0.22180000  0.88590000  1.0 0.0209629261
C  C711  1  0.47180000  0.71330000  0.86410000  1.0 0.0209629261
C  C712  1  0.96330000  0.27820000  0.11410000  1.0 0.0209629261
C  C713  1  0.97180000  0.28670000  0.63590000  1.0 0.0209629261
C  C714  1  0.53670000  0.77820000  0.88590000  1.0 0.0209629261
C  C715  1  0.02820000  0.28670000  0.86410000  1.0 0.0209629261
C  C716  1  0.02820000  0.21330000  0.13590000  1.0 0.0209629261
C  C717  1  0.53670000  0.72180000  0.11410000  1.0 0.0209629261
C  C718  1  0.46330000  0.72180000  0.38590000  1.0 0.0209629261
C  C719  1  0.97180000  0.21330000  0.36410000  1.0 0.0209629261
C  C720  1  0.46330000  0.77820000  0.61410000  1.0 0.0209629261
C  C721  1  0.52400000  0.19450000  0.84430000  1.0 0.0795272306
C  C722  1  0.94450000  0.72600000  0.59430000  1.0 0.0795272306
C  C723  1  0.47600000  0.19450000  0.65570000  1.0 0.0795272306
C  C724  1  0.47600000  0.30550000  0.34430000  1.0 0.0795272306
C  C725  1  0.94450000  0.77400000  0.40570000  1.0 0.0795272306
C  C726  1  0.05550000  0.77400000  0.09430000  1.0 0.0795272306
C  C727  1  0.52400000  0.30550000  0.15570000  1.0 0.0795272306
C  C728  1  0.05550000  0.72600000  0.90570000  1.0 0.0795272306
C  C729  1  0.02400000  0.69450000  0.34430000  1.0 0.0795272306
C  C730  1  0.44450000  0.22600000  0.09430000  1.0 0.0795272306
C  C731  1  0.97600000  0.69450000  0.15570000  1.0 0.0795272306
C  C732  1  0.97600000  0.80550000  0.84430000  1.0 0.0795272306
C  C733  1  0.44450000  0.27400000  0.90570000  1.0 0.0795272306
C  C734  1  0.55550000  0.27400000  0.59430000  1.0 0.0795272306
C  C735  1  0.02400000  0.80550000  0.65570000  1.0 0.0795272306
C  C736  1  0.55550000  0.22600000  0.40570000  1.0 0.0795272306
C  C737  1  0.47600000  0.80550000  0.15570000  1.0 0.0795272306
C  C738  1  0.05550000  0.27400000  0.40570000  1.0 0.0795272306
C  C739  1  0.52400000  0.80550000  0.34430000  1.0 0.0795272306
C  C740  1  0.52400000  0.69450000  0.65570000  1.0 0.0795272306
C  C741  1  0.05550000  0.22600000  0.59430000  1.0 0.0795272306
C  C742  1  0.94450000  0.22600000  0.90570000  1.0 0.0795272306
C  C743  1  0.47600000  0.69450000  0.84430000  1.0 0.0795272306
C  C744  1  0.94450000  0.27400000  0.09430000  1.0 0.0795272306
C  C745  1  0.97600000  0.30550000  0.65570000  1.0 0.0795272306
C  C746  1  0.55550000  0.77400000  0.90570000  1.0 0.0795272306
C  C747  1  0.02400000  0.30550000  0.84430000  1.0 0.0795272306
C  C748  1  0.02400000  0.19450000  0.15570000  1.0 0.0795272306
C  C749  1  0.55550000  0.72600000  0.09430000  1.0 0.0795272306
C  C750  1  0.44450000  0.72600000  0.40570000  1.0 0.0795272306
C  C751  1  0.97600000  0.19450000  0.34430000  1.0 0.0795272306
C  C752  1  0.44450000  0.77400000  0.59430000  1.0 0.0795272306
C  C753  1  0.57000000  0.18600000  0.83470000  1.0 -0.073056348
C  C754  1  0.93600000  0.68000000  0.58470000  1.0 -0.073056348
C  C755  1  0.43000000  0.18600000  0.66530000  1.0 -0.073056348
C  C756  1  0.43000000  0.31400000  0.33470000  1.0 -0.073056348
C  C757  1  0.93600000  0.82000000  0.41530000  1.0 -0.073056348
C  C758  1  0.06400000  0.82000000  0.08470000  1.0 -0.073056348
C  C759  1  0.57000000  0.31400000  0.16530000  1.0 -0.073056348
C  C760  1  0.06400000  0.68000000  0.91530000  1.0 -0.073056348
C  C761  1  0.07000000  0.68600000  0.33470000  1.0 -0.073056348
C  C762  1  0.43600000  0.18000000  0.08470000  1.0 -0.073056348
C  C763  1  0.93000000  0.68600000  0.16530000  1.0 -0.073056348
C  C764  1  0.93000000  0.81400000  0.83470000  1.0 -0.073056348
C  C765  1  0.43600000  0.32000000  0.91530000  1.0 -0.073056348
C  C766  1  0.56400000  0.32000000  0.58470000  1.0 -0.073056348
C  C767  1  0.07000000  0.81400000  0.66530000  1.0 -0.073056348
C  C768  1  0.56400000  0.18000000  0.41530000  1.0 -0.073056348
C  C769  1  0.43000000  0.81400000  0.16530000  1.0 -0.073056348
C  C770  1  0.06400000  0.32000000  0.41530000  1.0 -0.073056348
C  C771  1  0.57000000  0.81400000  0.33470000  1.0 -0.073056348
C  C772  1  0.57000000  0.68600000  0.66530000  1.0 -0.073056348
C  C773  1  0.06400000  0.18000000  0.58470000  1.0 -0.073056348
C  C774  1  0.93600000  0.18000000  0.91530000  1.0 -0.073056348
C  C775  1  0.43000000  0.68600000  0.83470000  1.0 -0.073056348
C  C776  1  0.93600000  0.32000000  0.08470000  1.0 -0.073056348
C  C777  1  0.93000000  0.31400000  0.66530000  1.0 -0.073056348
C  C778  1  0.56400000  0.82000000  0.91530000  1.0 -0.073056348
C  C779  1  0.07000000  0.31400000  0.83470000  1.0 -0.073056348
C  C780  1  0.07000000  0.18600000  0.16530000  1.0 -0.073056348
C  C781  1  0.56400000  0.68000000  0.08470000  1.0 -0.073056348
C  C782  1  0.43600000  0.68000000  0.41530000  1.0 -0.073056348
C  C783  1  0.93000000  0.18600000  0.33470000  1.0 -0.073056348
C  C784  1  0.43600000  0.82000000  0.58470000  1.0 -0.073056348
C  C785  1  0.62330000  0.19700000  0.84280000  1.0 0.1027980641
C  C786  1  0.94700000  0.62670000  0.59280000  1.0 0.1027980641
C  C787  1  0.37670000  0.19700000  0.65720000  1.0 0.1027980641
C  C788  1  0.37670000  0.30300000  0.34280000  1.0 0.1027980641
C  C789  1  0.94700000  0.87330000  0.40720000  1.0 0.1027980641
C  C790  1  0.05300000  0.87330000  0.09280000  1.0 0.1027980641
C  C791  1  0.62330000  0.30300000  0.15720000  1.0 0.1027980641
C  C792  1  0.05300000  0.62670000  0.90720000  1.0 0.1027980641
C  C793  1  0.12330000  0.69700000  0.34280000  1.0 0.1027980641
C  C794  1  0.44700000  0.12670000  0.09280000  1.0 0.1027980641
C  C795  1  0.87670000  0.69700000  0.15720000  1.0 0.1027980641
C  C796  1  0.87670000  0.80300000  0.84280000  1.0 0.1027980641
C  C797  1  0.44700000  0.37330000  0.90720000  1.0 0.1027980641
C  C798  1  0.55300000  0.37330000  0.59280000  1.0 0.1027980641
C  C799  1  0.12330000  0.80300000  0.65720000  1.0 0.1027980641
C  C800  1  0.55300000  0.12670000  0.40720000  1.0 0.1027980641
C  C801  1  0.37670000  0.80300000  0.15720000  1.0 0.1027980641
C  C802  1  0.05300000  0.37330000  0.40720000  1.0 0.1027980641
C  C803  1  0.62330000  0.80300000  0.34280000  1.0 0.1027980641
C  C804  1  0.62330000  0.69700000  0.65720000  1.0 0.1027980641
C  C805  1  0.05300000  0.12670000  0.59280000  1.0 0.1027980641
C  C806  1  0.94700000  0.12670000  0.90720000  1.0 0.1027980641
C  C807  1  0.37670000  0.69700000  0.84280000  1.0 0.1027980641
C  C808  1  0.94700000  0.37330000  0.09280000  1.0 0.1027980641
C  C809  1  0.87670000  0.30300000  0.65720000  1.0 0.1027980641
C  C810  1  0.55300000  0.87330000  0.90720000  1.0 0.1027980641
C  C811  1  0.12330000  0.30300000  0.84280000  1.0 0.1027980641
C  C812  1  0.12330000  0.19700000  0.15720000  1.0 0.1027980641
C  C813  1  0.55300000  0.62670000  0.09280000  1.0 0.1027980641
C  C814  1  0.44700000  0.62670000  0.40720000  1.0 0.1027980641
C  C815  1  0.87670000  0.19700000  0.34280000  1.0 0.1027980641
C  C816  1  0.44700000  0.87330000  0.59280000  1.0 0.1027980641
C  C817  1  0.62480000  0.21400000  0.86260000  1.0 0.0136785158
C  C818  1  0.96400000  0.62520000  0.61260000  1.0 0.0136785158
C  C819  1  0.37520000  0.21400000  0.63740000  1.0 0.0136785158
C  C820  1  0.37520000  0.28600000  0.36260000  1.0 0.0136785158
C  C821  1  0.96400000  0.87480000  0.38740000  1.0 0.0136785158
C  C822  1  0.03600000  0.87480000  0.11260000  1.0 0.0136785158
C  C823  1  0.62480000  0.28600000  0.13740000  1.0 0.0136785158
C  C824  1  0.03600000  0.62520000  0.88740000  1.0 0.0136785158
C  C825  1  0.12480000  0.71400000  0.36260000  1.0 0.0136785158
C  C826  1  0.46400000  0.12520000  0.11260000  1.0 0.0136785158
C  C827  1  0.87520000  0.71400000  0.13740000  1.0 0.0136785158
C  C828  1  0.87520000  0.78600000  0.86260000  1.0 0.0136785158
C  C829  1  0.46400000  0.37480000  0.88740000  1.0 0.0136785158
C  C830  1  0.53600000  0.37480000  0.61260000  1.0 0.0136785158
C  C831  1  0.12480000  0.78600000  0.63740000  1.0 0.0136785158
C  C832  1  0.53600000  0.12520000  0.38740000  1.0 0.0136785158
C  C833  1  0.37520000  0.78600000  0.13740000  1.0 0.0136785158
C  C834  1  0.03600000  0.37480000  0.38740000  1.0 0.0136785158
C  C835  1  0.62480000  0.78600000  0.36260000  1.0 0.0136785158
C  C836  1  0.62480000  0.71400000  0.63740000  1.0 0.0136785158
C  C837  1  0.03600000  0.12520000  0.61260000  1.0 0.0136785158
C  C838  1  0.96400000  0.12520000  0.88740000  1.0 0.0136785158
C  C839  1  0.37520000  0.71400000  0.86260000  1.0 0.0136785158
C  C840  1  0.96400000  0.37480000  0.11260000  1.0 0.0136785158
C  C841  1  0.87520000  0.28600000  0.63740000  1.0 0.0136785158
C  C842  1  0.53600000  0.87480000  0.88740000  1.0 0.0136785158
C  C843  1  0.12480000  0.28600000  0.86260000  1.0 0.0136785158
C  C844  1  0.12480000  0.21400000  0.13740000  1.0 0.0136785158
C  C845  1  0.53600000  0.62520000  0.11260000  1.0 0.0136785158
C  C846  1  0.46400000  0.62520000  0.38740000  1.0 0.0136785158
C  C847  1  0.87520000  0.21400000  0.36260000  1.0 0.0136785158
C  C848  1  0.46400000  0.87480000  0.61260000  1.0 0.0136785158
C  C849  1  0.47500000  0.22500000  0.87500000  1.0 -0.2581922979
C  C850  1  0.97500000  0.77500000  0.62500000  1.0 -0.2581922979
C  C851  1  0.52500000  0.22500000  0.62500000  1.0 -0.2581922979
C  C852  1  0.52500000  0.27500000  0.37500000  1.0 -0.2581922979
C  C853  1  0.97500000  0.72500000  0.37500000  1.0 -0.2581922979
C  C854  1  0.02500000  0.72500000  0.12500000  1.0 -0.2581922979
C  C855  1  0.47500000  0.27500000  0.12500000  1.0 -0.2581922979
C  C856  1  0.02500000  0.77500000  0.87500000  1.0 -0.2581922979
C  C857  1  0.52500000  0.77500000  0.12500000  1.0 -0.2581922979
C  C858  1  0.02500000  0.22500000  0.37500000  1.0 -0.2581922979
C  C859  1  0.47500000  0.77500000  0.37500000  1.0 -0.2581922979
C  C860  1  0.47500000  0.72500000  0.62500000  1.0 -0.2581922979
C  C861  1  0.02500000  0.27500000  0.62500000  1.0 -0.2581922979
C  C862  1  0.97500000  0.27500000  0.87500000  1.0 -0.2581922979
C  C863  1  0.52500000  0.72500000  0.87500000  1.0 -0.2581922979
C  C864  1  0.97500000  0.22500000  0.12500000  1.0 -0.2581922979
C  C865  1  0.47000000  0.18100000  0.83480000  1.0 -0.4257434661
C  C866  1  0.93100000  0.78000000  0.58480000  1.0 -0.4257434661
C  C867  1  0.53000000  0.18100000  0.66520000  1.0 -0.4257434661
C  C868  1  0.53000000  0.31900000  0.33480000  1.0 -0.4257434661
C  C869  1  0.93100000  0.72000000  0.41520000  1.0 -0.4257434661
C  C870  1  0.06900000  0.72000000  0.08480000  1.0 -0.4257434661
C  C871  1  0.47000000  0.31900000  0.16520000  1.0 -0.4257434661
C  C872  1  0.06900000  0.78000000  0.91520000  1.0 -0.4257434661
C  C873  1  0.97000000  0.68100000  0.33480000  1.0 -0.4257434661
C  C874  1  0.43100000  0.28000000  0.08480000  1.0 -0.4257434661
C  C875  1  0.03000000  0.68100000  0.16520000  1.0 -0.4257434661
C  C876  1  0.03000000  0.81900000  0.83480000  1.0 -0.4257434661
C  C877  1  0.43100000  0.22000000  0.91520000  1.0 -0.4257434661
C  C878  1  0.56900000  0.22000000  0.58480000  1.0 -0.4257434661
C  C879  1  0.97000000  0.81900000  0.66520000  1.0 -0.4257434661
C  C880  1  0.56900000  0.28000000  0.41520000  1.0 -0.4257434661
C  C881  1  0.53000000  0.81900000  0.16520000  1.0 -0.4257434661
C  C882  1  0.06900000  0.22000000  0.41520000  1.0 -0.4257434661
C  C883  1  0.47000000  0.81900000  0.33480000  1.0 -0.4257434661
C  C884  1  0.47000000  0.68100000  0.66520000  1.0 -0.4257434661
C  C885  1  0.06900000  0.28000000  0.58480000  1.0 -0.4257434661
C  C886  1  0.93100000  0.28000000  0.91520000  1.0 -0.4257434661
C  C887  1  0.53000000  0.68100000  0.83480000  1.0 -0.4257434661
C  C888  1  0.93100000  0.22000000  0.08480000  1.0 -0.4257434661
C  C889  1  0.03000000  0.31900000  0.66520000  1.0 -0.4257434661
C  C890  1  0.56900000  0.72000000  0.91520000  1.0 -0.4257434661
C  C891  1  0.97000000  0.31900000  0.83480000  1.0 -0.4257434661
C  C892  1  0.97000000  0.18100000  0.16520000  1.0 -0.4257434661
C  C893  1  0.56900000  0.78000000  0.08480000  1.0 -0.4257434661
C  C894  1  0.43100000  0.78000000  0.41520000  1.0 -0.4257434661
C  C895  1  0.03000000  0.18100000  0.33480000  1.0 -0.4257434661
C  C896  1  0.43100000  0.72000000  0.58480000  1.0 -0.4257434661
C  C897  1  0.67710000  0.18500000  0.83110000  1.0 -0.4029311779
C  C898  1  0.93500000  0.57290000  0.58110000  1.0 -0.4029311779
C  C899  1  0.32290000  0.18500000  0.66890000  1.0 -0.4029311779
C  C900  1  0.32290000  0.31500000  0.33110000  1.0 -0.4029311779
C  C901  1  0.93500000  0.92710000  0.41890000  1.0 -0.4029311779
C  C902  1  0.06500000  0.92710000  0.08110000  1.0 -0.4029311779
C  C903  1  0.67710000  0.31500000  0.16890000  1.0 -0.4029311779
C  C904  1  0.06500000  0.57290000  0.91890000  1.0 -0.4029311779
C  C905  1  0.17710000  0.68500000  0.33110000  1.0 -0.4029311779
C  C906  1  0.43500000  0.07290000  0.08110000  1.0 -0.4029311779
C  C907  1  0.82290000  0.68500000  0.16890000  1.0 -0.4029311779
C  C908  1  0.82290000  0.81500000  0.83110000  1.0 -0.4029311779
C  C909  1  0.43500000  0.42710000  0.91890000  1.0 -0.4029311779
C  C910  1  0.56500000  0.42710000  0.58110000  1.0 -0.4029311779
C  C911  1  0.17710000  0.81500000  0.66890000  1.0 -0.4029311779
C  C912  1  0.56500000  0.07290000  0.41890000  1.0 -0.4029311779
C  C913  1  0.32290000  0.81500000  0.16890000  1.0 -0.4029311779
C  C914  1  0.06500000  0.42710000  0.41890000  1.0 -0.4029311779
C  C915  1  0.67710000  0.81500000  0.33110000  1.0 -0.4029311779
C  C916  1  0.67710000  0.68500000  0.66890000  1.0 -0.4029311779
C  C917  1  0.06500000  0.07290000  0.58110000  1.0 -0.4029311779
C  C918  1  0.93500000  0.07290000  0.91890000  1.0 -0.4029311779
C  C919  1  0.32290000  0.68500000  0.83110000  1.0 -0.4029311779
C  C920  1  0.93500000  0.42710000  0.08110000  1.0 -0.4029311779
C  C921  1  0.82290000  0.31500000  0.66890000  1.0 -0.4029311779
C  C922  1  0.56500000  0.92710000  0.91890000  1.0 -0.4029311779
C  C923  1  0.17710000  0.31500000  0.83110000  1.0 -0.4029311779
C  C924  1  0.17710000  0.18500000  0.16890000  1.0 -0.4029311779
C  C925  1  0.56500000  0.57290000  0.08110000  1.0 -0.4029311779
C  C926  1  0.43500000  0.57290000  0.41890000  1.0 -0.4029311779
C  C927  1  0.82290000  0.18500000  0.33110000  1.0 -0.4029311779
C  C928  1  0.43500000  0.92710000  0.58110000  1.0 -0.4029311779
C  C929  1  0.57900000  0.23300000  0.89420000  1.0 -0.4143836581
C  C930  1  0.98300000  0.67100000  0.64420000  1.0 -0.4143836581
C  C931  1  0.42100000  0.23300000  0.60580000  1.0 -0.4143836581
C  C932  1  0.42100000  0.26700000  0.39420000  1.0 -0.4143836581
C  C933  1  0.98300000  0.82900000  0.35580000  1.0 -0.4143836581
C  C934  1  0.01700000  0.82900000  0.14420000  1.0 -0.4143836581
C  C935  1  0.57900000  0.26700000  0.10580000  1.0 -0.4143836581
C  C936  1  0.01700000  0.67100000  0.85580000  1.0 -0.4143836581
C  C937  1  0.07900000  0.73300000  0.39420000  1.0 -0.4143836581
C  C938  1  0.48300000  0.17100000  0.14420000  1.0 -0.4143836581
C  C939  1  0.92100000  0.73300000  0.10580000  1.0 -0.4143836581
C  C940  1  0.92100000  0.76700000  0.89420000  1.0 -0.4143836581
C  C941  1  0.48300000  0.32900000  0.85580000  1.0 -0.4143836581
C  C942  1  0.51700000  0.32900000  0.64420000  1.0 -0.4143836581
C  C943  1  0.07900000  0.76700000  0.60580000  1.0 -0.4143836581
C  C944  1  0.51700000  0.17100000  0.35580000  1.0 -0.4143836581
C  C945  1  0.42100000  0.76700000  0.10580000  1.0 -0.4143836581
C  C946  1  0.01700000  0.32900000  0.35580000  1.0 -0.4143836581
C  C947  1  0.57900000  0.76700000  0.39420000  1.0 -0.4143836581
C  C948  1  0.57900000  0.73300000  0.60580000  1.0 -0.4143836581
C  C949  1  0.01700000  0.17100000  0.64420000  1.0 -0.4143836581
C  C950  1  0.98300000  0.17100000  0.85580000  1.0 -0.4143836581
C  C951  1  0.42100000  0.73300000  0.89420000  1.0 -0.4143836581
C  C952  1  0.98300000  0.32900000  0.14420000  1.0 -0.4143836581
C  C953  1  0.92100000  0.26700000  0.60580000  1.0 -0.4143836581
C  C954  1  0.51700000  0.82900000  0.85580000  1.0 -0.4143836581
C  C955  1  0.07900000  0.26700000  0.89420000  1.0 -0.4143836581
C  C956  1  0.07900000  0.23300000  0.10580000  1.0 -0.4143836581
C  C957  1  0.51700000  0.67100000  0.14420000  1.0 -0.4143836581
C  C958  1  0.48300000  0.67100000  0.35580000  1.0 -0.4143836581
C  C959  1  0.92100000  0.23300000  0.39420000  1.0 -0.4143836581
C  C960  1  0.48300000  0.82900000  0.64420000  1.0 -0.4143836581
N  N1  1  0.79300000  0.31290000  0.96950000  1.0 -0.1800158488
N  N2  1  0.06290000  0.45700000  0.71950000  1.0 -0.1800158488
N  N3  1  0.20700000  0.31290000  0.53050000  1.0 -0.1800158488
N  N4  1  0.20700000  0.18710000  0.46950000  1.0 -0.1800158488
N  N5  1  0.06290000  0.04300000  0.28050000  1.0 -0.1800158488
N  N6  1  0.93710000  0.04300000  0.21950000  1.0 -0.1800158488
N  N7  1  0.79300000  0.18710000  0.03050000  1.0 -0.1800158488
N  N8  1  0.93710000  0.45700000  0.78050000  1.0 -0.1800158488
N  N9  1  0.29300000  0.81290000  0.46950000  1.0 -0.1800158488
N  N10  1  0.56290000  0.95700000  0.21950000  1.0 -0.1800158488
N  N11  1  0.70700000  0.81290000  0.03050000  1.0 -0.1800158488
N  N12  1  0.70700000  0.68710000  0.96950000  1.0 -0.1800158488
N  N13  1  0.56290000  0.54300000  0.78050000  1.0 -0.1800158488
N  N14  1  0.43710000  0.54300000  0.71950000  1.0 -0.1800158488
N  N15  1  0.29300000  0.68710000  0.53050000  1.0 -0.1800158488
N  N16  1  0.43710000  0.95700000  0.28050000  1.0 -0.1800158488
N  N17  1  0.20700000  0.68710000  0.03050000  1.0 -0.1800158488
N  N18  1  0.93710000  0.54300000  0.28050000  1.0 -0.1800158488
N  N19  1  0.79300000  0.68710000  0.46950000  1.0 -0.1800158488
N  N20  1  0.79300000  0.81290000  0.53050000  1.0 -0.1800158488
N  N21  1  0.93710000  0.95700000  0.71950000  1.0 -0.1800158488
N  N22  1  0.06290000  0.95700000  0.78050000  1.0 -0.1800158488
N  N23  1  0.20700000  0.81290000  0.96950000  1.0 -0.1800158488
N  N24  1  0.06290000  0.54300000  0.21950000  1.0 -0.1800158488
N  N25  1  0.70700000  0.18710000  0.53050000  1.0 -0.1800158488
N  N26  1  0.43710000  0.04300000  0.78050000  1.0 -0.1800158488
N  N27  1  0.29300000  0.18710000  0.96950000  1.0 -0.1800158488
N  N28  1  0.29300000  0.31290000  0.03050000  1.0 -0.1800158488
N  N29  1  0.43710000  0.45700000  0.21950000  1.0 -0.1800158488
N  N30  1  0.56290000  0.45700000  0.28050000  1.0 -0.1800158488
N  N31  1  0.70700000  0.31290000  0.46950000  1.0 -0.1800158488
N  N32  1  0.56290000  0.04300000  0.71950000  1.0 -0.1800158488
N  N33  1  0.56310000  0.11370000  0.77700000  1.0 -0.1973695469
N  N34  1  0.86370000  0.68690000  0.52700000  1.0 -0.1973695469
N  N35  1  0.43690000  0.11370000  0.72300000  1.0 -0.1973695469
N  N36  1  0.43690000  0.38630000  0.27700000  1.0 -0.1923869809
N  N37  1  0.86370000  0.81310000  0.47300000  1.0 -0.1973695469
N  N38  1  0.13630000  0.81310000  0.02700000  1.0 -0.1973695469
N  N39  1  0.56310000  0.38630000  0.22300000  1.0 -0.1923869809
N  N40  1  0.13630000  0.68690000  0.97300000  1.0 -0.1973695469
N  N41  1  0.06310000  0.61370000  0.27700000  1.0 -0.1923869809
N  N42  1  0.36370000  0.18690000  0.02700000  1.0 -0.1973695469
N  N43  1  0.93690000  0.61370000  0.22300000  1.0 -0.1923869809
N  N44  1  0.93690000  0.88630000  0.77700000  1.0 -0.1973695469
N  N45  1  0.36370000  0.31310000  0.97300000  1.0 -0.1973695469
N  N46  1  0.63630000  0.31310000  0.52700000  1.0 -0.1973695469
N  N47  1  0.06310000  0.88630000  0.72300000  1.0 -0.1973695469
N  N48  1  0.63630000  0.18690000  0.47300000  1.0 -0.1973695469
N  N49  1  0.43690000  0.88630000  0.22300000  1.0 -0.1923869809
N  N50  1  0.13630000  0.31310000  0.47300000  1.0 -0.1973695469
N  N51  1  0.56310000  0.88630000  0.27700000  1.0 -0.1973695469
N  N52  1  0.56310000  0.61370000  0.72300000  1.0 -0.1973695469
N  N53  1  0.13630000  0.18690000  0.52700000  1.0 -0.1973695469
N  N54  1  0.86370000  0.18690000  0.97300000  1.0 -0.1973695469
N  N55  1  0.43690000  0.61370000  0.77700000  1.0 -0.1973695469
N  N56  1  0.86370000  0.31310000  0.02700000  1.0 -0.1973695469
N  N57  1  0.93690000  0.38630000  0.72300000  1.0 -0.1973695469
N  N58  1  0.63630000  0.81310000  0.97300000  1.0 -0.1973695469
N  N59  1  0.06310000  0.38630000  0.77700000  1.0 -0.1973695469
N  N60  1  0.06310000  0.11370000  0.22300000  1.0 -0.1923869809
N  N61  1  0.63630000  0.68690000  0.02700000  1.0 -0.1973695469
N  N62  1  0.36370000  0.68690000  0.47300000  1.0 -0.1973695469
N  N63  1  0.93690000  0.11370000  0.27700000  1.0 -0.1923869809
N  N64  1  0.36370000  0.81310000  0.52700000  1.0 -0.1973695469
F  F1  1  0.51720000  0.82680000  0.70170000  1.0 -0.3826475056
F  F2  1  0.48030000  0.88100000  0.72350000  1.0 -0.3826475056
F  F3  1  0.39860000  0.85760000  0.71330000  1.0 -0.3470477209
F  F4  1  0.43550000  0.80340000  0.69160000  1.0 -0.3826475056
F  F5  1  0.45880000  0.88990000  0.69270000  1.0 -0.3920628606
F  F6  1  0.45700000  0.79450000  0.72240000  1.0 -0.3826475056
F  F7  1  0.92320000  0.26720000  0.45170000  1.0 -0.3826475056
F  F8  1  0.86900000  0.23030000  0.47350000  1.0 -0.3826475056
F  F9  1  0.89240000  0.14860000  0.46330000  1.0 -0.3470477209
F  F10  1  0.94660000  0.18550000  0.44160000  1.0 -0.3826475056
F  F11  1  0.86010000  0.20880000  0.44270000  1.0 -0.3920628606
F  F12  1  0.95550000  0.20700000  0.47240000  1.0 -0.3826475056
F  F13  1  0.51720000  0.67320000  0.29830000  1.0 -0.3826475056
F  F14  1  0.48030000  0.61900000  0.27650000  1.0 -0.3826475056
F  F15  1  0.39860000  0.64240000  0.28670000  1.0 -0.3470477209
F  F16  1  0.43550000  0.69660000  0.30840000  1.0 -0.3826475056
F  F17  1  0.45880000  0.61010000  0.30730000  1.0 -0.3920628606
F  F18  1  0.45700000  0.70550000  0.27760000  1.0 -0.3826475056
F  F19  1  0.48280000  0.67320000  0.20170000  1.0 -0.3826475056
F  F20  1  0.51970000  0.61900000  0.22350000  1.0 -0.3826475056
F  F21  1  0.60140000  0.64240000  0.21330000  1.0 -0.3470477209
F  F22  1  0.56450000  0.69660000  0.19160000  1.0 -0.3826475056
F  F23  1  0.54120000  0.61010000  0.19270000  1.0 -0.3920628606
F  F24  1  0.54300000  0.70550000  0.22240000  1.0 -0.3826475056
F  F25  1  0.07680000  0.26720000  0.04830000  1.0 -0.3826475056
F  F26  1  0.13100000  0.23030000  0.02650000  1.0 -0.3826475056
F  F27  1  0.10760000  0.14860000  0.03670000  1.0 -0.3470477209
F  F28  1  0.05340000  0.18550000  0.05840000  1.0 -0.3826475056
F  F29  1  0.13990000  0.20880000  0.05730000  1.0 -0.3920628606
F  F30  1  0.04450000  0.20700000  0.02760000  1.0 -0.3826475056
F  F31  1  0.07680000  0.23280000  0.95170000  1.0 -0.3826475056
F  F32  1  0.13100000  0.26970000  0.97350000  1.0 -0.3826475056
F  F33  1  0.10760000  0.35140000  0.96330000  1.0 -0.3470477209
F  F34  1  0.05340000  0.31450000  0.94160000  1.0 -0.3826475056
F  F35  1  0.13990000  0.29120000  0.94270000  1.0 -0.3920628606
F  F36  1  0.04450000  0.29300000  0.97240000  1.0 -0.3826475056
F  F37  1  0.48280000  0.82680000  0.79830000  1.0 -0.3826475056
F  F38  1  0.51970000  0.88100000  0.77650000  1.0 -0.3826475056
F  F39  1  0.60140000  0.85760000  0.78670000  1.0 -0.3470477209
F  F40  1  0.56450000  0.80340000  0.80840000  1.0 -0.3826475056
F  F41  1  0.54120000  0.88990000  0.80730000  1.0 -0.3920628606
F  F42  1  0.54300000  0.79450000  0.77760000  1.0 -0.3826475056
F  F43  1  0.92320000  0.23280000  0.54830000  1.0 -0.3826475056
F  F44  1  0.86900000  0.26970000  0.52650000  1.0 -0.3826475056
F  F45  1  0.89240000  0.35140000  0.53670000  1.0 -0.3470477209
F  F46  1  0.94660000  0.31450000  0.55840000  1.0 -0.3826475056
F  F47  1  0.86010000  0.29120000  0.55730000  1.0 -0.3920628606
F  F48  1  0.95550000  0.29300000  0.52760000  1.0 -0.3826475056
F  F49  1  0.01720000  0.32680000  0.20170000  1.0 -0.3826475056
F  F50  1  0.98030000  0.38100000  0.22350000  1.0 -0.3826475056
F  F51  1  0.89860000  0.35760000  0.21330000  1.0 -0.3470477209
F  F52  1  0.93550000  0.30340000  0.19160000  1.0 -0.3826475056
F  F53  1  0.95880000  0.38990000  0.19270000  1.0 -0.3920628606
F  F54  1  0.95700000  0.29450000  0.22240000  1.0 -0.3826475056
F  F55  1  0.42320000  0.76720000  0.95170000  1.0 -0.3826475056
F  F56  1  0.36900000  0.73030000  0.97350000  1.0 -0.3826475056
F  F57  1  0.39240000  0.64860000  0.96330000  1.0 -0.3470477209
F  F58  1  0.44660000  0.68550000  0.94160000  1.0 -0.3826475056
F  F59  1  0.36010000  0.70880000  0.94270000  1.0 -0.3920628606
F  F60  1  0.45550000  0.70700000  0.97240000  1.0 -0.3826475056
F  F61  1  0.01720000  0.17320000  0.79830000  1.0 -0.3826475056
F  F62  1  0.98030000  0.11900000  0.77650000  1.0 -0.3826475056
F  F63  1  0.89860000  0.14240000  0.78670000  1.0 -0.3470477209
F  F64  1  0.93550000  0.19660000  0.80840000  1.0 -0.3826475056
F  F65  1  0.95880000  0.11010000  0.80730000  1.0 -0.3920628606
F  F66  1  0.95700000  0.20550000  0.77760000  1.0 -0.3826475056
F  F67  1  0.98280000  0.17320000  0.70170000  1.0 -0.3826475056
F  F68  1  0.01970000  0.11900000  0.72350000  1.0 -0.3826475056
F  F69  1  0.10140000  0.14240000  0.71330000  1.0 -0.3470477209
F  F70  1  0.06450000  0.19660000  0.69160000  1.0 -0.3826475056
F  F71  1  0.04120000  0.11010000  0.69270000  1.0 -0.3920628606
F  F72  1  0.04300000  0.20550000  0.72240000  1.0 -0.3826475056
F  F73  1  0.57680000  0.76720000  0.54830000  1.0 -0.3826475056
F  F74  1  0.63100000  0.73030000  0.52650000  1.0 -0.3826475056
F  F75  1  0.60760000  0.64860000  0.53670000  1.0 -0.3470477209
F  F76  1  0.55340000  0.68550000  0.55840000  1.0 -0.3826475056
F  F77  1  0.63990000  0.70880000  0.55730000  1.0 -0.3920628606
F  F78  1  0.54450000  0.70700000  0.52760000  1.0 -0.3826475056
F  F79  1  0.57680000  0.73280000  0.45170000  1.0 -0.3826475056
F  F80  1  0.63100000  0.76970000  0.47350000  1.0 -0.3826475056
F  F81  1  0.60760000  0.85140000  0.46330000  1.0 -0.3470477209
F  F82  1  0.55340000  0.81450000  0.44160000  1.0 -0.3826475056
F  F83  1  0.63990000  0.79120000  0.44270000  1.0 -0.3920628606
F  F84  1  0.54450000  0.79300000  0.47240000  1.0 -0.3826475056
F  F85  1  0.98280000  0.32680000  0.29830000  1.0 -0.3826475056
F  F86  1  0.01970000  0.38100000  0.27650000  1.0 -0.3826475056
F  F87  1  0.10140000  0.35760000  0.28670000  1.0 -0.3470477209
F  F88  1  0.06450000  0.30340000  0.30840000  1.0 -0.3826475056
F  F89  1  0.04120000  0.38990000  0.30730000  1.0 -0.3920628606
F  F90  1  0.04300000  0.29450000  0.27760000  1.0 -0.3826475056
F  F91  1  0.42320000  0.73280000  0.04830000  1.0 -0.3826475056
F  F92  1  0.36900000  0.76970000  0.02650000  1.0 -0.3826475056
F  F93  1  0.39240000  0.85140000  0.03670000  1.0 -0.3470477209
F  F94  1  0.44660000  0.81450000  0.05840000  1.0 -0.3826475056
F  F95  1  0.36010000  0.79120000  0.05730000  1.0 -0.3920628606
F  F96  1  0.45550000  0.79300000  0.02760000  1.0 -0.3826475056
F  F97  1  0.48280000  0.17320000  0.29830000  1.0 -0.3826475056
F  F98  1  0.51970000  0.11900000  0.27650000  1.0 -0.3826475056
F  F99  1  0.60140000  0.14240000  0.28670000  1.0 -0.3470477209
F  F100  1  0.56450000  0.19660000  0.30840000  1.0 -0.3826475056
F  F101  1  0.54120000  0.11010000  0.30730000  1.0 -0.3920628606
F  F102  1  0.54300000  0.20550000  0.27760000  1.0 -0.3826475056
F  F103  1  0.07680000  0.73280000  0.54830000  1.0 -0.3826475056
F  F104  1  0.13100000  0.76970000  0.52650000  1.0 -0.3826475056
F  F105  1  0.10760000  0.85140000  0.53670000  1.0 -0.3470477209
F  F106  1  0.05340000  0.81450000  0.55840000  1.0 -0.3826475056
F  F107  1  0.13990000  0.79120000  0.55730000  1.0 -0.3920628606
F  F108  1  0.04450000  0.79300000  0.52760000  1.0 -0.3826475056
F  F109  1  0.48280000  0.32680000  0.70170000  1.0 -0.3826475056
F  F110  1  0.51970000  0.38100000  0.72350000  1.0 -0.3826475056
F  F111  1  0.60140000  0.35760000  0.71330000  1.0 -0.3470477209
F  F112  1  0.56450000  0.30340000  0.69160000  1.0 -0.3826475056
F  F113  1  0.54120000  0.38990000  0.69270000  1.0 -0.3920628606
F  F114  1  0.54300000  0.29450000  0.72240000  1.0 -0.3826475056
F  F115  1  0.51720000  0.32680000  0.79830000  1.0 -0.3826475056
F  F116  1  0.48030000  0.38100000  0.77650000  1.0 -0.3826475056
F  F117  1  0.39860000  0.35760000  0.78670000  1.0 -0.3470477209
F  F118  1  0.43550000  0.30340000  0.80840000  1.0 -0.3826475056
F  F119  1  0.45880000  0.38990000  0.80730000  1.0 -0.3920628606
F  F120  1  0.45700000  0.29450000  0.77760000  1.0 -0.3826475056
F  F121  1  0.92320000  0.73280000  0.95170000  1.0 -0.3826475056
F  F122  1  0.86900000  0.76970000  0.97350000  1.0 -0.3826475056
F  F123  1  0.89240000  0.85140000  0.96330000  1.0 -0.3470477209
F  F124  1  0.94660000  0.81450000  0.94160000  1.0 -0.3826475056
F  F125  1  0.86010000  0.79120000  0.94270000  1.0 -0.3920628606
F  F126  1  0.95550000  0.79300000  0.97240000  1.0 -0.3826475056
F  F127  1  0.92320000  0.76720000  0.04830000  1.0 -0.3826475056
F  F128  1  0.86900000  0.73030000  0.02650000  1.0 -0.3826475056
F  F129  1  0.89240000  0.64860000  0.03670000  1.0 -0.3470477209
F  F130  1  0.94660000  0.68550000  0.05840000  1.0 -0.3826475056
F  F131  1  0.86010000  0.70880000  0.05730000  1.0 -0.3920628606
F  F132  1  0.95550000  0.70700000  0.02760000  1.0 -0.3826475056
F  F133  1  0.51720000  0.17320000  0.20170000  1.0 -0.3826475056
F  F134  1  0.48030000  0.11900000  0.22350000  1.0 -0.3826475056
F  F135  1  0.39860000  0.14240000  0.21330000  1.0 -0.3470477209
F  F136  1  0.43550000  0.19660000  0.19160000  1.0 -0.3826475056
F  F137  1  0.45880000  0.11010000  0.19270000  1.0 -0.3920628606
F  F138  1  0.45700000  0.20550000  0.22240000  1.0 -0.3826475056
F  F139  1  0.07680000  0.76720000  0.45170000  1.0 -0.3826475056
F  F140  1  0.13100000  0.73030000  0.47350000  1.0 -0.3826475056
F  F141  1  0.10760000  0.64860000  0.46330000  1.0 -0.3470477209
F  F142  1  0.05340000  0.68550000  0.44160000  1.0 -0.3826475056
F  F143  1  0.13990000  0.70880000  0.44270000  1.0 -0.3920628606
F  F144  1  0.04450000  0.70700000  0.47240000  1.0 -0.3826475056
F  F145  1  0.98280000  0.67320000  0.79830000  1.0 -0.3826475056
F  F146  1  0.01970000  0.61900000  0.77650000  1.0 -0.3826475056
F  F147  1  0.10140000  0.64240000  0.78670000  1.0 -0.3470477209
F  F148  1  0.06450000  0.69660000  0.80840000  1.0 -0.3826475056
F  F149  1  0.04120000  0.61010000  0.80730000  1.0 -0.3920628606
F  F150  1  0.04300000  0.70550000  0.77760000  1.0 -0.3826475056
F  F151  1  0.57680000  0.23280000  0.04830000  1.0 -0.3826475056
F  F152  1  0.63100000  0.26970000  0.02650000  1.0 -0.3826475056
F  F153  1  0.60760000  0.35140000  0.03670000  1.0 -0.3470477209
F  F154  1  0.55340000  0.31450000  0.05840000  1.0 -0.3826475056
F  F155  1  0.63990000  0.29120000  0.05730000  1.0 -0.3920628606
F  F156  1  0.54450000  0.29300000  0.02760000  1.0 -0.3826475056
F  F157  1  0.98280000  0.82680000  0.20170000  1.0 -0.3826475056
F  F158  1  0.01970000  0.88100000  0.22350000  1.0 -0.3826475056
F  F159  1  0.10140000  0.85760000  0.21330000  1.0 -0.3470477209
F  F160  1  0.06450000  0.80340000  0.19160000  1.0 -0.3826475056
F  F161  1  0.04120000  0.88990000  0.19270000  1.0 -0.3920628606
F  F162  1  0.04300000  0.79450000  0.22240000  1.0 -0.3826475056
F  F163  1  0.01720000  0.82680000  0.29830000  1.0 -0.3920628606
F  F164  1  0.98030000  0.88100000  0.27650000  1.0 -0.3826475056
F  F165  1  0.89860000  0.85760000  0.28670000  1.0 -0.3470477209
F  F166  1  0.93550000  0.80340000  0.30840000  1.0 -0.3826475056
F  F167  1  0.95880000  0.88990000  0.30730000  1.0 -0.3920628606
F  F168  1  0.95700000  0.79450000  0.27760000  1.0 -0.3826475056
F  F169  1  0.42320000  0.23280000  0.45170000  1.0 -0.3826475056
F  F170  1  0.36900000  0.26970000  0.47350000  1.0 -0.3826475056
F  F171  1  0.39240000  0.35140000  0.46330000  1.0 -0.3470477209
F  F172  1  0.44660000  0.31450000  0.44160000  1.0 -0.3826475056
F  F173  1  0.36010000  0.29120000  0.44270000  1.0 -0.3920628606
F  F174  1  0.45550000  0.29300000  0.47240000  1.0 -0.3826475056
F  F175  1  0.42320000  0.26720000  0.54830000  1.0 -0.3826475056
F  F176  1  0.36900000  0.23030000  0.52650000  1.0 -0.3826475056
F  F177  1  0.39240000  0.14860000  0.53670000  1.0 -0.3470477209
F  F178  1  0.44660000  0.18550000  0.55840000  1.0 -0.3826475056
F  F179  1  0.36010000  0.20880000  0.55730000  1.0 -0.3920628606
F  F180  1  0.45550000  0.20700000  0.52760000  1.0 -0.3826475056
F  F181  1  0.01720000  0.67320000  0.70170000  1.0 -0.3826475056
F  F182  1  0.98030000  0.61900000  0.72350000  1.0 -0.3826475056
F  F183  1  0.89860000  0.64240000  0.71330000  1.0 -0.3470477209
F  F184  1  0.93550000  0.69660000  0.69160000  1.0 -0.3826475056
F  F185  1  0.95880000  0.61010000  0.69270000  1.0 -0.3920628606
F  F186  1  0.95700000  0.70550000  0.72240000  1.0 -0.3826475056
F  F187  1  0.57680000  0.26720000  0.95170000  1.0 -0.3826475056
F  F188  1  0.63100000  0.23030000  0.97350000  1.0 -0.3826475056
F  F189  1  0.60760000  0.14860000  0.96330000  1.0 -0.3470477209
F  F190  1  0.55340000  0.18550000  0.94160000  1.0 -0.3826475056
F  F191  1  0.63990000  0.20880000  0.94270000  1.0 -0.3920628606
F  F192  1  0.54450000  0.20700000  0.97240000  1.0 -0.3826475056
