# DDEC6 charges by PACMAN v1.1 (https://github.com/mtap-research/PACMAN-charge/)
data_QEGHEP_ASR_pacman
_symmetry_space_group_name_H-M   'P 1'
_cell_length_a   14.49480000
_cell_length_b   14.49480000
_cell_length_c   25.36800000
_cell_angle_alpha   83.38110000
_cell_angle_beta   96.61890000
_cell_angle_gamma   116.74500000
_symmetry_Int_Tables_number   1
_chemical_formula_structural   FeNi2H44C31(N3O)6
_chemical_formula_sum   'Fe4 Ni8 H176 C124 N72 O24'
_cell_volume   4715.79391017
_cell_formula_units_Z   4
loop_
 _symmetry_equiv_pos_site_id
 _symmetry_equiv_pos_as_xyz
  1  'x, y, z'
loop_
 _atom_site_type_symbol
 _atom_site_label
 _atom_site_symmetry_multiplicity
 _atom_site_fract_x
 _atom_site_fract_y
 _atom_site_fract_z
 _atom_site_occupancy
 _atom_site_charge
Fe  Fe1  1  0.67381000  0.97981000  0.84800000  1.0 0.1198546815
Fe  Fe2  1  0.02019000  0.32619000  0.34800000  1.0 0.1198546815
Fe  Fe3  1  0.32619000  0.02019000  0.15200000  1.0 0.1198546815
Fe  Fe4  1  0.97981000  0.67381000  0.65200000  1.0 0.1198546815
Ni  Ni1  1  0.35605000  0.81385000  0.72036000  1.0 0.5284316157
Ni  Ni2  1  0.18615000  0.64395000  0.22036000  1.0 0.5284316157
Ni  Ni3  1  0.64395000  0.18615000  0.27964000  1.0 0.5284316157
Ni  Ni4  1  0.81385000  0.35605000  0.77964000  1.0 0.5284316157
Ni  Ni5  1  0.50000000  0.00000000  0.00000000  1.0 0.5557904754
Ni  Ni6  1  0.00000000  0.50000000  0.50000000  1.0 0.5557904754
Ni  Ni7  1  0.90467000  0.90467000  0.75000000  1.0 0.5466157709
Ni  Ni8  1  0.09533000  0.09533000  0.25000000  1.0 0.5466157709
H  H1  1  0.55200000  0.18500000  0.00990000  1.0 0.2519888867
H  H2  1  0.81500000  0.44800000  0.50990000  1.0 0.2519888867
H  H3  1  0.44800000  0.81500000  0.99010000  1.0 0.2519888867
H  H4  1  0.18500000  0.55200000  0.49010000  1.0 0.2519888867
H  H5  1  0.67400000  0.00760000  0.99490000  1.0 0.2586484783
H  H6  1  0.99240000  0.32600000  0.49490000  1.0 0.2586484783
H  H7  1  0.32600000  0.99240000  0.00510000  1.0 0.2586484783
H  H8  1  0.00760000  0.67400000  0.50510000  1.0 0.2586484783
H  H9  1  0.33770000  0.89290000  0.62860000  1.0 0.2586484783
H  H10  1  0.10710000  0.66230000  0.12860000  1.0 0.2586484783
H  H11  1  0.66230000  0.10710000  0.37140000  1.0 0.2586484783
H  H12  1  0.89290000  0.33770000  0.87140000  1.0 0.2586484783
H  H13  1  0.37720000  0.72400000  0.81040000  1.0 0.2586484783
H  H14  1  0.27600000  0.62280000  0.31040000  1.0 0.2586484783
H  H15  1  0.62280000  0.27600000  0.18960000  1.0 0.2586484783
H  H16  1  0.72400000  0.37720000  0.68960000  1.0 0.2586484783
H  H17  1  0.47650000  0.74830000  0.70300000  1.0 0.2387630333
H  H18  1  0.25170000  0.52350000  0.20300000  1.0 0.2387630333
H  H19  1  0.52350000  0.25170000  0.29700000  1.0 0.2387630333
H  H20  1  0.74830000  0.47650000  0.79700000  1.0 0.2387630333
H  H21  1  0.23100000  0.87740000  0.74240000  1.0 0.2519888867
H  H22  1  0.12260000  0.76900000  0.24240000  1.0 0.2519888867
H  H23  1  0.76900000  0.12260000  0.25760000  1.0 0.2519888867
H  H24  1  0.87740000  0.23100000  0.75760000  1.0 0.2519888867
H  H25  1  0.78140000  0.15720000  0.02570000  1.0 0.1275446245
H  H26  1  0.84280000  0.21860000  0.52570000  1.0 0.1275446245
H  H27  1  0.21860000  0.84280000  0.97430000  1.0 0.1275446245
H  H28  1  0.15720000  0.78140000  0.47430000  1.0 0.1275446245
H  H29  1  0.69810000  0.15350000  0.06060000  1.0 0.1102380846
H  H30  1  0.84650000  0.30190000  0.56060000  1.0 0.1102380846
H  H31  1  0.30190000  0.84650000  0.93940000  1.0 0.1102380846
H  H32  1  0.15350000  0.69810000  0.43940000  1.0 0.1102380846
H  H33  1  0.69230000  0.17790000  0.94850000  1.0 0.1275446245
H  H34  1  0.82210000  0.30770000  0.44850000  1.0 0.1275446245
H  H35  1  0.30770000  0.82210000  0.05150000  1.0 0.1275446245
H  H36  1  0.17790000  0.69230000  0.55150000  1.0 0.1275446245
H  H37  1  0.71240000  0.26460000  0.98540000  1.0 0.1102380846
H  H38  1  0.73540000  0.28760000  0.48540000  1.0 0.1102380846
H  H39  1  0.28760000  0.73540000  0.01460000  1.0 0.1102380846
H  H40  1  0.26460000  0.71240000  0.51460000  1.0 0.1102380846
H  H41  1  0.63540000  0.97440000  0.09860000  1.0 0.1102380846
H  H42  1  0.02560000  0.36460000  0.59860000  1.0 0.1102380846
H  H43  1  0.36460000  0.02560000  0.90140000  1.0 0.1102380846
H  H44  1  0.97440000  0.63540000  0.40140000  1.0 0.1102380846
H  H45  1  0.72890000  0.96910000  0.07770000  1.0 0.1102380846
H  H46  1  0.03090000  0.27110000  0.57770000  1.0 0.1102380846
H  H47  1  0.27110000  0.03090000  0.92230000  1.0 0.1102380846
H  H48  1  0.96910000  0.72890000  0.42230000  1.0 0.1102380846
H  H49  1  0.54660000  0.26480000  0.93000000  1.0 0.1001759012
H  H50  1  0.73520000  0.45340000  0.43000000  1.0 0.1001759012
H  H51  1  0.45340000  0.73520000  0.07000000  1.0 0.1001759012
H  H52  1  0.26480000  0.54660000  0.57000000  1.0 0.1001759012
H  H53  1  0.52810000  0.16490000  0.90470000  1.0 0.1102380846
H  H54  1  0.83510000  0.47190000  0.40470000  1.0 0.1102380846
H  H55  1  0.47190000  0.83510000  0.09530000  1.0 0.1102380846
H  H56  1  0.16490000  0.52810000  0.59530000  1.0 0.1198546815
H  H57  1  0.24860000  0.56140000  0.81220000  1.0 0.1102380846
H  H58  1  0.43860000  0.75140000  0.31220000  1.0 0.1102380846
H  H59  1  0.75140000  0.43860000  0.18780000  1.0 0.1102380846
H  H60  1  0.56140000  0.24860000  0.68780000  1.0 0.1102380846
H  H61  1  0.20490000  0.58830000  0.75660000  1.0 0.1102380846
H  H62  1  0.41170000  0.79510000  0.25660000  1.0 0.1102380846
H  H63  1  0.79510000  0.41170000  0.24340000  1.0 0.1102380846
H  H64  1  0.58830000  0.20490000  0.74340000  1.0 0.1102380846
H  H65  1  0.18020000  0.72000000  0.80880000  1.0 0.1198546815
H  H66  1  0.28000000  0.81980000  0.30880000  1.0 0.1198546815
H  H67  1  0.81980000  0.28000000  0.19120000  1.0 0.1198546815
H  H68  1  0.72000000  0.18020000  0.69120000  1.0 0.1198546815
H  H69  1  0.25740000  0.73060000  0.85880000  1.0 0.1198546815
H  H70  1  0.26940000  0.74260000  0.35880000  1.0 0.1198546815
H  H71  1  0.74260000  0.26940000  0.14120000  1.0 0.1198546815
H  H72  1  0.73060000  0.25740000  0.64120000  1.0 0.1198546815
H  H73  1  0.36450000  0.88430000  0.83130000  1.0 0.1275446245
H  H74  1  0.11570000  0.63550000  0.33130000  1.0 0.1275446245
H  H75  1  0.63550000  0.11570000  0.16870000  1.0 0.1275446245
H  H76  1  0.88430000  0.36450000  0.66870000  1.0 0.1275446245
H  H77  1  0.25590000  0.87990000  0.83320000  1.0 0.1102380846
H  H78  1  0.12010000  0.74410000  0.33320000  1.0 0.1198546815
H  H79  1  0.74410000  0.12010000  0.16680000  1.0 0.1102380846
H  H80  1  0.87990000  0.25590000  0.66680000  1.0 0.1102380846
H  H81  1  0.32090000  0.03590000  0.76170000  1.0 0.1102380846
H  H82  1  0.96410000  0.67910000  0.26170000  1.0 0.1102380846
H  H83  1  0.67910000  0.96410000  0.23830000  1.0 0.1102380846
H  H84  1  0.03590000  0.32090000  0.73830000  1.0 0.1102380846
H  H85  1  0.41900000  0.01900000  0.76400000  1.0 0.1198546815
H  H86  1  0.98100000  0.58100000  0.26400000  1.0 0.1198546815
H  H87  1  0.58100000  0.98100000  0.23600000  1.0 0.1198546815
H  H88  1  0.01900000  0.41900000  0.73600000  1.0 0.1275446245
H  H89  1  0.47630000  0.99530000  0.69360000  1.0 0.1275446245
H  H90  1  0.00470000  0.52370000  0.19360000  1.0 0.1275446245
H  H91  1  0.52370000  0.00470000  0.30640000  1.0 0.1275446245
H  H92  1  0.99530000  0.47630000  0.80640000  1.0 0.1275446245
H  H93  1  0.45790000  0.04050000  0.63790000  1.0 0.1198546815
H  H94  1  0.95950000  0.54210000  0.13790000  1.0 0.1198546815
H  H95  1  0.54210000  0.95950000  0.36210000  1.0 0.1198546815
H  H96  1  0.04050000  0.45790000  0.86210000  1.0 0.1198546815
H  H97  1  0.44930000  0.88710000  0.58540000  1.0 0.1198546815
H  H98  1  0.11290000  0.55070000  0.08540000  1.0 0.1198546815
H  H99  1  0.55070000  0.11290000  0.41460000  1.0 0.1198546815
H  H100  1  0.88710000  0.44930000  0.91460000  1.0 0.1198546815
H  H101  1  0.52990000  0.90810000  0.63390000  1.0 0.1198546815
H  H102  1  0.09190000  0.47010000  0.13390000  1.0 0.1198546815
H  H103  1  0.47010000  0.09190000  0.36610000  1.0 0.1198546815
H  H104  1  0.90810000  0.52990000  0.86610000  1.0 0.1198546815
H  H105  1  0.47300000  0.75460000  0.61570000  1.0 0.1198546815
H  H106  1  0.24540000  0.52700000  0.11570000  1.0 0.1198546815
H  H107  1  0.52700000  0.24540000  0.38430000  1.0 0.1198546815
H  H108  1  0.75460000  0.47300000  0.88430000  1.0 0.1198546815
H  H109  1  0.35900000  0.73660000  0.60950000  1.0 0.1275446245
H  H110  1  0.26340000  0.64100000  0.10950000  1.0 0.1275446245
H  H111  1  0.64100000  0.26340000  0.39050000  1.0 0.1275446245
H  H112  1  0.73660000  0.35900000  0.89050000  1.0 0.1275446245
H  H113  1  0.30890000  0.59990000  0.67700000  1.0 0.1102380846
H  H114  1  0.40010000  0.69110000  0.17700000  1.0 0.1102380846
H  H115  1  0.69110000  0.40010000  0.32300000  1.0 0.1102380846
H  H116  1  0.59990000  0.30890000  0.82300000  1.0 0.1102380846
H  H117  1  0.41630000  0.60210000  0.69100000  1.0 0.1102380846
H  H118  1  0.39790000  0.58370000  0.19100000  1.0 0.1102380846
H  H119  1  0.58370000  0.39790000  0.30900000  1.0 0.1102380846
H  H120  1  0.60210000  0.41630000  0.80900000  1.0 0.1102380846
H  H121  1  0.79620000  0.78600000  0.67830000  1.0 0.2586484783
H  H122  1  0.21400000  0.20380000  0.17830000  1.0 0.2586484783
H  H123  1  0.20380000  0.21400000  0.32170000  1.0 0.2586484783
H  H124  1  0.78600000  0.79620000  0.82170000  1.0 0.2586484783
H  H125  1  0.66350000  0.77690000  0.74650000  1.0 0.1198546815
H  H126  1  0.22310000  0.33650000  0.24650000  1.0 0.1198546815
H  H127  1  0.33650000  0.22310000  0.25350000  1.0 0.1198546815
H  H128  1  0.77690000  0.66350000  0.75350000  1.0 0.1198546815
H  H129  1  0.64730000  0.69370000  0.70790000  1.0 0.1198546815
H  H130  1  0.30630000  0.35270000  0.20790000  1.0 0.1198546815
H  H131  1  0.35270000  0.30630000  0.29210000  1.0 0.1198546815
H  H132  1  0.69370000  0.64730000  0.79210000  1.0 0.1198546815
H  H133  1  0.00510000  0.99830000  0.67370000  1.0 0.2519888867
H  H134  1  0.00170000  0.99490000  0.17370000  1.0 0.2519888867
H  H135  1  0.99490000  0.00170000  0.32630000  1.0 0.2519888867
H  H136  1  0.99830000  0.00510000  0.82630000  1.0 0.2519888867
H  H137  1  0.11030000  0.13570000  0.70200000  1.0 0.1198546815
H  H138  1  0.86430000  0.88970000  0.20200000  1.0 0.1198546815
H  H139  1  0.88970000  0.86430000  0.29800000  1.0 0.1198546815
H  H140  1  0.13570000  0.11030000  0.79800000  1.0 0.1198546815
H  H141  1  0.02800000  0.14040000  0.73390000  1.0 0.1102380846
H  H142  1  0.85960000  0.97200000  0.23390000  1.0 0.1102380846
H  H143  1  0.97200000  0.85960000  0.26610000  1.0 0.1102380846
H  H144  1  0.14040000  0.02800000  0.76610000  1.0 0.1102380846
H  H145  1  0.86510000  0.07730000  0.67010000  1.0 0.1001759012
H  H146  1  0.92270000  0.13490000  0.17010000  1.0 0.1001759012
H  H147  1  0.13490000  0.92270000  0.32990000  1.0 0.1001759012
H  H148  1  0.07730000  0.86510000  0.82990000  1.0 0.1001759012
H  H149  1  0.92980000  0.08660000  0.62370000  1.0 0.1102380846
H  H150  1  0.91340000  0.07020000  0.12370000  1.0 0.1102380846
H  H151  1  0.07020000  0.91340000  0.37630000  1.0 0.1102380846
H  H152  1  0.08660000  0.92980000  0.87630000  1.0 0.1102380846
H  H153  1  0.68040000  0.83920000  0.63980000  1.0 0.1001759012
H  H154  1  0.16080000  0.31960000  0.13980000  1.0 0.1001759012
H  H155  1  0.31960000  0.16080000  0.36020000  1.0 0.1001759012
H  H156  1  0.83920000  0.68040000  0.86020000  1.0 0.1001759012
H  H157  1  0.71220000  0.91920000  0.68210000  1.0 0.1102380846
H  H158  1  0.08080000  0.28780000  0.18210000  1.0 0.1102380846
H  H159  1  0.28780000  0.08080000  0.31790000  1.0 0.1102380846
H  H160  1  0.91920000  0.71220000  0.81790000  1.0 0.1102380846
H  H161  1  0.90350000  0.89990000  0.60960000  1.0 0.1607642983
H  H162  1  0.10010000  0.09650000  0.10960000  1.0 0.1607642983
H  H163  1  0.09650000  0.10010000  0.39040000  1.0 0.1607642983
H  H164  1  0.89990000  0.90350000  0.89040000  1.0 0.1607642983
H  H165  1  0.79430000  0.85190000  0.58090000  1.0 0.1495876674
H  H166  1  0.14810000  0.20570000  0.08090000  1.0 0.1495876674
H  H167  1  0.20570000  0.14810000  0.41910000  1.0 0.1495876674
H  H168  1  0.85190000  0.79430000  0.91910000  1.0 0.1495876674
H  H169  1  0.62260000  0.84580000  0.98920000  1.0 0.1495876674
H  H170  1  0.15420000  0.37740000  0.48920000  1.0 0.1495876674
H  H171  1  0.37740000  0.15420000  0.01080000  1.0 0.1495876674
H  H172  1  0.84580000  0.62260000  0.51080000  1.0 0.1495876674
H  H173  1  0.57430000  0.73710000  0.01880000  1.0 0.1393047933
H  H174  1  0.26290000  0.42570000  0.51880000  1.0 0.1393047933
H  H175  1  0.42570000  0.26290000  0.98120000  1.0 0.1393047933
H  H176  1  0.73710000  0.57430000  0.48120000  1.0 0.1393047933
C  C1  1  0.56798000  0.92882000  0.79214000  1.0 0.0113280457
C  C2  1  0.07118000  0.43202000  0.29214000  1.0 0.0113280457
C  C3  1  0.43202000  0.07118000  0.20786000  1.0 0.0113280457
C  C4  1  0.92882000  0.56798000  0.70786000  1.0 0.0113280457
C  C5  1  0.77599000  0.02561000  0.90593000  1.0 0.0203412412
C  C6  1  0.97439000  0.22401000  0.40593000  1.0 0.0203412412
C  C7  1  0.22401000  0.97439000  0.09407000  1.0 0.0203412412
C  C8  1  0.02561000  0.77599000  0.59407000  1.0 0.0203412412
C  C9  1  0.77283000  0.98697000  0.80268000  1.0 0.0284405587
C  C10  1  0.01303000  0.22717000  0.30268000  1.0 0.0284405587
C  C11  1  0.22717000  0.01303000  0.19732000  1.0 0.0284405587
C  C12  1  0.98697000  0.77283000  0.69732000  1.0 0.0284405587
C  C13  1  0.64729000  0.83931000  0.86825000  1.0 0.0113280457
C  C14  1  0.16069000  0.35271000  0.36825000  1.0 0.0113280457
C  C15  1  0.35271000  0.16069000  0.13175000  1.0 0.0113280457
C  C16  1  0.83931000  0.64729000  0.63175000  1.0 0.0113280457
C  C17  1  0.57528000  0.97352000  0.89328000  1.0 0.0113280457
C  C18  1  0.02648000  0.42472000  0.39328000  1.0 0.0113280457
C  C19  1  0.42472000  0.02648000  0.10672000  1.0 0.0113280457
C  C20  1  0.97352000  0.57528000  0.60672000  1.0 0.0113280457
C  C21  1  0.70508000  0.11992000  0.82748000  1.0 -0.0025778503
C  C22  1  0.88008000  0.29492000  0.32748000  1.0 -0.0025778503
C  C23  1  0.29492000  0.88008000  0.17252000  1.0 -0.0025778503
C  C24  1  0.11992000  0.70508000  0.67252000  1.0 -0.0025778503
C  C25  1  0.70870000  0.13630000  0.02710000  1.0 -0.1100105496
C  C26  1  0.86370000  0.29130000  0.52710000  1.0 -0.1100105496
C  C27  1  0.29130000  0.86370000  0.97290000  1.0 -0.1100105496
C  C28  1  0.13630000  0.70870000  0.47290000  1.0 -0.1100105496
C  C29  1  0.67690000  0.19130000  0.98180000  1.0 -0.1205739803
C  C30  1  0.80870000  0.32310000  0.48180000  1.0 -0.1205739803
C  C31  1  0.32310000  0.80870000  0.01820000  1.0 -0.1205739803
C  C32  1  0.19130000  0.67690000  0.51820000  1.0 -0.1205739803
C  C33  1  0.65780000  0.95520000  0.06933000  1.0 -0.0314592945
C  C34  1  0.04480000  0.34220000  0.56933000  1.0 -0.0314592945
C  C35  1  0.34220000  0.04480000  0.93067000  1.0 -0.0314592945
C  C36  1  0.95520000  0.65780000  0.43067000  1.0 -0.0314592945
C  C37  1  0.51424000  0.19056000  0.93461000  1.0 -0.0314592945
C  C38  1  0.80944000  0.48576000  0.43461000  1.0 -0.0314592945
C  C39  1  0.48576000  0.80944000  0.06539000  1.0 -0.0314592945
C  C40  1  0.19056000  0.51424000  0.56539000  1.0 -0.0314592945
C  C41  1  0.26710000  0.60130000  0.77890000  1.0 -0.0025778503
C  C42  1  0.39870000  0.73290000  0.27890000  1.0 -0.0025778503
C  C43  1  0.73290000  0.39870000  0.22110000  1.0 -0.0025778503
C  C44  1  0.60130000  0.26710000  0.72110000  1.0 -0.0025778503
C  C45  1  0.25180000  0.75140000  0.82170000  1.0 -0.1205739803
C  C46  1  0.24860000  0.74820000  0.32170000  1.0 -0.1205739803
C  C47  1  0.74820000  0.24860000  0.17830000  1.0 -0.1205739803
C  C48  1  0.75140000  0.25180000  0.67830000  1.0 -0.1205739803
C  C49  1  0.29470000  0.85510000  0.81556000  1.0 -0.1205739803
C  C50  1  0.14490000  0.70530000  0.31556000  1.0 -0.1205739803
C  C51  1  0.70530000  0.14490000  0.18444000  1.0 -0.1205739803
C  C52  1  0.85510000  0.29470000  0.68444000  1.0 -0.1205739803
C  C53  1  0.35200000  0.00080000  0.74570000  1.0 -0.1027158602
C  C54  1  0.99920000  0.64800000  0.24570000  1.0 -0.1027158602
C  C55  1  0.64800000  0.99920000  0.25430000  1.0 -0.1027158602
C  C56  1  0.00080000  0.35200000  0.75430000  1.0 -0.1027158602
C  C57  1  0.42300000  0.99240000  0.66666667  1.0 -0.0314592945
C  C58  1  0.00760000  0.57700000  0.16660000  1.0 -0.0314592945
C  C59  1  0.57700000  0.00760000  0.33340000  1.0 -0.0314592945
C  C60  1  0.99240000  0.42300000  0.83340000  1.0 -0.0314592945
C  C61  1  0.45760000  0.87220000  0.62300000  1.0 -0.1205739803
C  C62  1  0.12780000  0.54240000  0.12300000  1.0 -0.1205739803
C  C63  1  0.54240000  0.12780000  0.37700000  1.0 -0.1205739803
C  C64  1  0.87220000  0.45760000  0.87700000  1.0 -0.1205739803
C  C65  1  0.42400000  0.77160000  0.62940000  1.0 -0.1599245604
C  C66  1  0.22840000  0.57600000  0.12940000  1.0 -0.1599245604
C  C67  1  0.57600000  0.22840000  0.37060000  1.0 -0.1599245604
C  C68  1  0.77160000  0.42400000  0.87060000  1.0 -0.1599245604
C  C69  1  0.37050000  0.62830000  0.70030000  1.0 0.0203412412
C  C70  1  0.37170000  0.62950000  0.20030000  1.0 0.0203412412
C  C71  1  0.62950000  0.37170000  0.29970000  1.0 0.0203412412
C  C72  1  0.62830000  0.37050000  0.79970000  1.0 0.0203412412
C  C73  1  0.69750000  0.74470000  0.73040000  1.0 -0.1205739803
C  C74  1  0.25530000  0.30250000  0.23040000  1.0 -0.1205739803
C  C75  1  0.30250000  0.25530000  0.26960000  1.0 -0.1205739803
C  C76  1  0.74470000  0.69750000  0.76960000  1.0 -0.1205739803
C  C77  1  0.05350000  0.09490000  0.72370000  1.0 -0.1100105496
C  C78  1  0.90510000  0.94650000  0.22370000  1.0 -0.1100105496
C  C79  1  0.94650000  0.90510000  0.27630000  1.0 -0.1100105496
C  C80  1  0.09490000  0.05350000  0.77630000  1.0 -0.1100105496
C  C81  1  0.89250000  0.04090000  0.65250000  1.0 -0.0411592779
C  C82  1  0.95910000  0.10750000  0.15250000  1.0 -0.0411592779
C  C83  1  0.10750000  0.95910000  0.34750000  1.0 -0.0411592779
C  C84  1  0.04090000  0.89250000  0.84750000  1.0 -0.0411592779
C  C85  1  0.73770000  0.88470000  0.66170000  1.0 0.0022469869
C  C86  1  0.11530000  0.26230000  0.16170000  1.0 0.0022469869
C  C87  1  0.26230000  0.11530000  0.33830000  1.0 0.0022469869
C  C88  1  0.88470000  0.73770000  0.83830000  1.0 0.0022469869
C  C89  1  0.85060000  0.91620000  0.59099000  1.0 -0.2914596149
C  C90  1  0.08380000  0.14940000  0.09099000  1.0 -0.2914596149
C  C91  1  0.14940000  0.08380000  0.40901000  1.0 -0.2914596149
C  C92  1  0.91620000  0.85060000  0.90901000  1.0 -0.2914596149
C  C93  1  0.88040000  0.97520000  0.54230000  1.0 0.4911227961
C  C94  1  0.02480000  0.11960000  0.04230000  1.0 0.4911227961
C  C95  1  0.11960000  0.02480000  0.45770000  1.0 0.4911227961
C  C96  1  0.97520000  0.88040000  0.95770000  1.0 0.4911227961
C  C97  1  0.62590000  0.80730000  0.02220000  1.0 -0.1996051754
C  C98  1  0.19270000  0.37410000  0.52220000  1.0 -0.1996051754
C  C99  1  0.37410000  0.19270000  0.97780000  1.0 -0.1996051754
C  C100  1  0.80730000  0.62590000  0.47780000  1.0 -0.1996051754
C  C101  1  0.72730000  0.80930000  0.03230000  1.0 0.0761269953
C  C102  1  0.19070000  0.27270000  0.53230000  1.0 0.0761269953
C  C103  1  0.27270000  0.19070000  0.96770000  1.0 0.0761269953
C  C104  1  0.80930000  0.72730000  0.46770000  1.0 0.0761269953
C  C105  1  0.43380000  0.58780000  0.79070000  1.0 -0.2812299873
C  C106  1  0.41220000  0.56620000  0.29070000  1.0 -0.2812299873
C  C107  1  0.56620000  0.41220000  0.20930000  1.0 -0.2812299873
C  C108  1  0.58780000  0.43380000  0.70930000  1.0 -0.2812299873
C  C109  1  0.46760000  0.55680000  0.84730000  1.0 0.2174158906
C  C110  1  0.44320000  0.53240000  0.34730000  1.0 0.2174158906
C  C111  1  0.53240000  0.44320000  0.15270000  1.0 0.2299743508
C  C112  1  0.55680000  0.46760000  0.65270000  1.0 0.2299743508
C  C113  1  0.24920000  0.98160000  0.67770000  1.0 -0.1699131142
C  C114  1  0.01840000  0.75080000  0.17770000  1.0 -0.1699131142
C  C115  1  0.75080000  0.01840000  0.32230000  1.0 -0.1699131142
C  C116  1  0.98160000  0.24920000  0.82230000  1.0 -0.1699131142
C  C117  1  0.20750000  0.03130000  0.62960000  1.0 0.2093760584
C  C118  1  0.96870000  0.79250000  0.12960000  1.0 0.2093760584
C  C119  1  0.79250000  0.96870000  0.37040000  1.0 0.2093760584
C  C120  1  0.03130000  0.20750000  0.87040000  1.0 0.2093760584
C  C121  1  0.09420000  0.31140000  0.83950000  1.0 0.1393047933
C  C122  1  0.68860000  0.90580000  0.33950000  1.0 0.1393047933
C  C123  1  0.90580000  0.68860000  0.16050000  1.0 0.1393047933
C  C124  1  0.31140000  0.09420000  0.66050000  1.0 0.1393047933
N  N1  1  0.83693000  0.05647000  0.94144000  1.0 -0.3653275455
N  N2  1  0.94353000  0.16307000  0.44144000  1.0 -0.363112488
N  N3  1  0.16307000  0.94353000  0.05856000  1.0 -0.363112488
N  N4  1  0.05647000  0.83693000  0.55856000  1.0 -0.363112488
N  N5  1  0.63219000  0.75461000  0.88001000  1.0 -0.4507006268
N  N6  1  0.24539000  0.36781000  0.38001000  1.0 -0.4507006268
N  N7  1  0.36781000  0.24539000  0.11999000  1.0 -0.4507006268
N  N8  1  0.75461000  0.63219000  0.61999000  1.0 -0.4507006268
N  N9  1  0.52072000  0.97568000  0.92284000  1.0 -0.4206887196
N  N10  1  0.02432000  0.47928000  0.42284000  1.0 -0.4206887196
N  N11  1  0.47928000  0.02432000  0.07716000  1.0 -0.4206887196
N  N12  1  0.97568000  0.52072000  0.57716000  1.0 -0.4206887196
N  N13  1  0.50317000  0.89583000  0.75901000  1.0 -0.4206887196
N  N14  1  0.10417000  0.49683000  0.25901000  1.0 -0.4206887196
N  N15  1  0.49683000  0.10417000  0.24099000  1.0 -0.4206887196
N  N16  1  0.89583000  0.50317000  0.74099000  1.0 -0.4206887196
N  N17  1  0.82789000  0.98391000  0.77492000  1.0 -0.393674099
N  N18  1  0.01609000  0.17211000  0.27492000  1.0 -0.393674099
N  N19  1  0.17211000  0.01609000  0.22508000  1.0 -0.393674099
N  N20  1  0.98391000  0.82789000  0.72508000  1.0 -0.393674099
N  N21  1  0.72971000  0.20669000  0.81574000  1.0 -0.4271487977
N  N22  1  0.79331000  0.27029000  0.31574000  1.0 -0.4271487977
N  N23  1  0.27029000  0.79331000  0.18426000  1.0 -0.4271487977
N  N24  1  0.20669000  0.72971000  0.68426000  1.0 -0.4271487977
N  N25  1  0.56262000  0.15718000  0.98269000  1.0 -0.2981342096
N  N26  1  0.84282000  0.43738000  0.48269000  1.0 -0.2981342096
N  N27  1  0.43738000  0.84282000  0.01731000  1.0 -0.2981342096
N  N28  1  0.15718000  0.56262000  0.51731000  1.0 -0.2981342096
N  N29  1  0.65025000  0.02415000  0.02189000  1.0 -0.2914596149
N  N30  1  0.97585000  0.34975000  0.52189000  1.0 -0.2914596149
N  N31  1  0.34975000  0.97585000  0.97811000  1.0 -0.2981342096
N  N32  1  0.02415000  0.65025000  0.47811000  1.0 -0.2914596149
N  N33  1  0.39680000  0.90420000  0.64850000  1.0 -0.2506136681
N  N34  1  0.09580000  0.60320000  0.14850000  1.0 -0.2506136681
N  N35  1  0.60320000  0.09580000  0.35150000  1.0 -0.2506136681
N  N36  1  0.90420000  0.39680000  0.85150000  1.0 -0.2506136681
N  N37  1  0.31780000  0.71380000  0.79100000  1.0 -0.3062801595
N  N38  1  0.28620000  0.68220000  0.29100000  1.0 -0.3062801595
N  N39  1  0.68220000  0.28620000  0.20900000  1.0 -0.3062801595
N  N40  1  0.71380000  0.31780000  0.70900000  1.0 -0.3062801595
N  N41  1  0.41147000  0.72713000  0.68810000  1.0 -0.2506136681
N  N42  1  0.27287000  0.58853000  0.18810000  1.0 -0.2506136681
N  N43  1  0.58853000  0.27287000  0.31190000  1.0 -0.2506136681
N  N44  1  0.72713000  0.41147000  0.81190000  1.0 -0.2506136681
N  N45  1  0.29654000  0.89526000  0.75583000  1.0 -0.2812299873
N  N46  1  0.10474000  0.70346000  0.25583000  1.0 -0.2735599066
N  N47  1  0.70346000  0.10474000  0.24417000  1.0 -0.2735599066
N  N48  1  0.89526000  0.29654000  0.74417000  1.0 -0.2735599066
N  N49  1  0.77650000  0.82050000  0.69833000  1.0 -0.2981342096
N  N50  1  0.17950000  0.22350000  0.19833000  1.0 -0.2981342096
N  N51  1  0.22350000  0.17950000  0.30167000  1.0 -0.2981342096
N  N52  1  0.82050000  0.77650000  0.80167000  1.0 -0.2981342096
N  N53  1  0.97256000  0.02144000  0.69306000  1.0 -0.2914596149
N  N54  1  0.97856000  0.02744000  0.19306000  1.0 -0.2914596149
N  N55  1  0.02744000  0.97856000  0.30694000  1.0 -0.2914596149
N  N56  1  0.02144000  0.97256000  0.80694000  1.0 -0.2914596149
N  N57  1  0.80979000  0.95581000  0.63043000  1.0 -0.0411592779
N  N58  1  0.04419000  0.19021000  0.13043000  1.0 -0.0411592779
N  N59  1  0.19021000  0.04419000  0.36957000  1.0 -0.0411592779
N  N60  1  0.95581000  0.80979000  0.86957000  1.0 -0.0411592779
N  N61  1  0.59537000  0.84643000  0.06445000  1.0 -0.1027158602
N  N62  1  0.15357000  0.40463000  0.56445000  1.0 -0.1027158602
N  N63  1  0.40463000  0.15357000  0.93555000  1.0 -0.1027158602
N  N64  1  0.84643000  0.59537000  0.43555000  1.0 -0.1027158602
N  N65  1  0.34198000  0.58322000  0.75860000  1.0 -0.0025778503
N  N66  1  0.41678000  0.65802000  0.25860000  1.0 -0.0025778503
N  N67  1  0.65802000  0.41678000  0.24140000  1.0 -0.0025778503
N  N68  1  0.58322000  0.34198000  0.74140000  1.0 -0.0025778503
N  N69  1  0.36218000  0.03202000  0.68740000  1.0 0.0284405587
N  N70  1  0.96798000  0.63782000  0.18740000  1.0 0.0284405587
N  N71  1  0.63782000  0.96798000  0.31260000  1.0 0.0284405587
N  N72  1  0.03202000  0.36218000  0.81260000  1.0 0.0284405587
O  O1  1  0.82560000  0.02480000  0.52100000  1.0 -0.3483981873
O  O2  1  0.97520000  0.17440000  0.02100000  1.0 -0.3483981873
O  O3  1  0.17440000  0.97520000  0.47900000  1.0 -0.3483981873
O  O4  1  0.02480000  0.82560000  0.97900000  1.0 -0.3483981873
O  O5  1  0.74080000  0.76820000  0.08210000  1.0 -0.0149513326
O  O6  1  0.23180000  0.25920000  0.58210000  1.0 -0.0156534417
O  O7  1  0.25920000  0.23180000  0.91790000  1.0 -0.0156534417
O  O8  1  0.76820000  0.74080000  0.41790000  1.0 -0.0156534417
O  O9  1  0.38280000  0.45460000  0.84650000  1.0 -0.4206887196
O  O10  1  0.54540000  0.61720000  0.34650000  1.0 -0.4206887196
O  O11  1  0.61720000  0.54540000  0.15350000  1.0 -0.4206887196
O  O12  1  0.45460000  0.38280000  0.65350000  1.0 -0.4206887196
O  O13  1  0.11992000  0.04508000  0.60310000  1.0 -0.5507963385
O  O14  1  0.95492000  0.88008000  0.10310000  1.0 -0.5507963385
O  O15  1  0.88008000  0.95492000  0.39690000  1.0 -0.5507963385
O  O16  1  0.04508000  0.11992000  0.89690000  1.0 -0.5507963385
O  O17  1  0.95180000  0.06500000  0.54180000  1.0 -0.2164264555
O  O18  1  0.93500000  0.04820000  0.04180000  1.0 -0.2063687156
O  O19  1  0.04820000  0.93500000  0.45820000  1.0 -0.2164264555
O  O20  1  0.06500000  0.95180000  0.95820000  1.0 -0.2063687156
O  O21  1  0.20320000  0.31200000  0.88320000  1.0 -0.1862872067
O  O22  1  0.68800000  0.79680000  0.38320000  1.0 -0.1862872067
O  O23  1  0.79680000  0.68800000  0.11680000  1.0 -0.1862872067
O  O24  1  0.31200000  0.20320000  0.61680000  1.0 -0.1862872067
