# DDEC6 charges by PACMAN v1.1 (https://github.com/mtap-research/PACMAN-charge/)
data_QEPQIO_ASR_pacman
_symmetry_space_group_name_H-M   'P 1'
_cell_length_a   35.67200000
_cell_length_b   35.67200000
_cell_length_c   35.67200000
_cell_angle_alpha   90.00000000
_cell_angle_beta   90.00000000
_cell_angle_gamma   90.00000000
_symmetry_Int_Tables_number   1
_chemical_formula_structural   Cr3H90C150O13
_chemical_formula_sum   'Cr24 H720 C1200 O104'
_cell_volume   45392.31978445
_cell_formula_units_Z   8
loop_
 _symmetry_equiv_pos_site_id
 _symmetry_equiv_pos_as_xyz
  1  'x, y, z'
loop_
 _atom_site_type_symbol
 _atom_site_label
 _atom_site_symmetry_multiplicity
 _atom_site_fract_x
 _atom_site_fract_y
 _atom_site_fract_z
 _atom_site_occupancy
 _atom_site_charge
Cr  Cr1  1  0.21256000  0.28744000  0.25000000  1.0 0.8104204283
Cr  Cr2  1  0.78744000  0.71256000  0.25000000  1.0 0.8104204283
Cr  Cr3  1  0.78744000  0.28744000  0.75000000  1.0 0.8104204283
Cr  Cr4  1  0.21256000  0.71256000  0.75000000  1.0 0.8104204283
Cr  Cr5  1  0.25000000  0.21256000  0.28744000  1.0 0.8104204283
Cr  Cr6  1  0.25000000  0.78744000  0.71256000  1.0 0.8104204283
Cr  Cr7  1  0.75000000  0.78744000  0.28744000  1.0 0.8104204283
Cr  Cr8  1  0.75000000  0.21256000  0.71256000  1.0 0.8104204283
Cr  Cr9  1  0.28744000  0.25000000  0.21256000  1.0 0.8104204283
Cr  Cr10  1  0.71256000  0.25000000  0.78744000  1.0 0.8104204283
Cr  Cr11  1  0.28744000  0.75000000  0.78744000  1.0 0.8104204283
Cr  Cr12  1  0.71256000  0.75000000  0.21256000  1.0 0.8104204283
Cr  Cr13  1  0.78744000  0.71256000  0.75000000  1.0 0.8104204283
Cr  Cr14  1  0.21256000  0.28744000  0.75000000  1.0 0.8104204283
Cr  Cr15  1  0.21256000  0.71256000  0.25000000  1.0 0.8104204283
Cr  Cr16  1  0.78744000  0.28744000  0.25000000  1.0 0.8104204283
Cr  Cr17  1  0.75000000  0.78744000  0.71256000  1.0 0.8104204283
Cr  Cr18  1  0.75000000  0.21256000  0.28744000  1.0 0.8104204283
Cr  Cr19  1  0.25000000  0.21256000  0.71256000  1.0 0.8104204283
Cr  Cr20  1  0.25000000  0.78744000  0.28744000  1.0 0.8104204283
Cr  Cr21  1  0.71256000  0.75000000  0.78744000  1.0 0.8104204283
Cr  Cr22  1  0.28744000  0.75000000  0.21256000  1.0 0.8104204283
Cr  Cr23  1  0.71256000  0.25000000  0.21256000  1.0 0.8104204283
Cr  Cr24  1  0.28744000  0.25000000  0.78744000  1.0 0.8104204283
H  H1  1  0.15200000  0.27990000  0.14780000  1.0 0.1087425476
H  H2  1  0.11960000  0.26630000  0.09310000  1.0 0.1087425476
H  H3  1  0.20770000  0.20700000  0.05560000  1.0 0.1023928158
H  H4  1  0.24020000  0.22060000  0.11040000  1.0 0.1087425476
H  H5  1  0.08600000  0.21780000  0.05610000  1.0 0.1195849991
H  H6  1  0.03290000  0.23080000  0.94640000  1.0 0.0720302803
H  H7  1  0.03290000  0.19630000  0.05370000  1.0 0.0906636933
H  H8  1  0.15940000  0.31160000  0.15560000  1.0 0.1087425476
H  H9  1  0.12490000  0.31670000  0.10070000  1.0 0.1023928158
H  H10  1  0.19880000  0.25010000  0.04790000  1.0 0.1023928158
H  H11  1  0.23340000  0.24500000  0.10280000  1.0 0.1023928158
H  H12  1  0.08470000  0.28950000  0.05620000  1.0 0.1023928158
H  H13  1  0.03300000  0.32280000  0.95110000  1.0 0.1195849991
H  H14  1  0.03300000  0.26680000  0.04890000  1.0 0.0906636933
H  H15  1  0.84800000  0.72010000  0.14780000  1.0 0.1087425476
H  H16  1  0.88040000  0.73370000  0.09310000  1.0 0.1087425476
H  H17  1  0.79230000  0.79300000  0.05560000  1.0 0.1023928158
H  H18  1  0.75980000  0.77940000  0.11040000  1.0 0.1087425476
H  H19  1  0.91400000  0.78220000  0.05610000  1.0 0.1195849991
H  H20  1  0.96710000  0.76920000  0.94640000  1.0 0.0720302803
H  H21  1  0.96710000  0.80370000  0.05370000  1.0 0.0906636933
H  H22  1  0.84060000  0.68840000  0.15560000  1.0 0.1087425476
H  H23  1  0.87510000  0.68330000  0.10070000  1.0 0.1023928158
H  H24  1  0.80120000  0.74990000  0.04790000  1.0 0.1023928158
H  H25  1  0.76660000  0.75500000  0.10280000  1.0 0.1023928158
H  H26  1  0.91530000  0.71050000  0.05620000  1.0 0.1023928158
H  H27  1  0.96700000  0.67720000  0.95110000  1.0 0.1195849991
H  H28  1  0.96700000  0.73320000  0.04890000  1.0 0.0906636933
H  H29  1  0.84800000  0.27990000  0.85220000  1.0 0.1087425476
H  H30  1  0.88040000  0.26630000  0.90690000  1.0 0.1087425476
H  H31  1  0.79230000  0.20700000  0.94440000  1.0 0.1023928158
H  H32  1  0.75980000  0.22060000  0.88960000  1.0 0.1087425476
H  H33  1  0.91400000  0.21780000  0.94390000  1.0 0.1195849991
H  H34  1  0.96710000  0.23080000  0.05360000  1.0 0.0720302803
H  H35  1  0.96710000  0.19630000  0.94630000  1.0 0.0906636933
H  H36  1  0.84060000  0.31160000  0.84440000  1.0 0.1087425476
H  H37  1  0.87510000  0.31670000  0.89930000  1.0 0.1023928158
H  H38  1  0.80120000  0.25010000  0.95210000  1.0 0.1023928158
H  H39  1  0.76660000  0.24500000  0.89720000  1.0 0.1023928158
H  H40  1  0.91530000  0.28950000  0.94380000  1.0 0.1023928158
H  H41  1  0.96700000  0.32280000  0.04890000  1.0 0.1195849991
H  H42  1  0.96700000  0.26680000  0.95110000  1.0 0.0906636933
H  H43  1  0.15200000  0.72010000  0.85220000  1.0 0.1087425476
H  H44  1  0.11960000  0.73370000  0.90690000  1.0 0.1087425476
H  H45  1  0.20770000  0.79300000  0.94440000  1.0 0.1023928158
H  H46  1  0.24020000  0.77940000  0.88960000  1.0 0.1087425476
H  H47  1  0.08600000  0.78220000  0.94390000  1.0 0.1195849991
H  H48  1  0.03290000  0.76920000  0.05360000  1.0 0.0720302803
H  H49  1  0.03290000  0.80370000  0.94630000  1.0 0.0906636933
H  H50  1  0.15940000  0.68840000  0.84440000  1.0 0.1087425476
H  H51  1  0.12490000  0.68330000  0.89930000  1.0 0.1023928158
H  H52  1  0.19880000  0.74990000  0.95210000  1.0 0.1023928158
H  H53  1  0.23340000  0.75500000  0.89720000  1.0 0.1023928158
H  H54  1  0.08470000  0.71050000  0.94380000  1.0 0.1023928158
H  H55  1  0.03300000  0.67720000  0.04890000  1.0 0.1195849991
H  H56  1  0.03300000  0.73320000  0.95110000  1.0 0.0906636933
H  H57  1  0.14780000  0.15200000  0.27990000  1.0 0.1087425476
H  H58  1  0.09310000  0.11960000  0.26630000  1.0 0.1087425476
H  H59  1  0.05560000  0.20770000  0.20700000  1.0 0.1023928158
H  H60  1  0.11040000  0.24020000  0.22060000  1.0 0.1087425476
H  H61  1  0.05610000  0.08600000  0.21780000  1.0 0.1195849991
H  H62  1  0.94640000  0.03290000  0.23080000  1.0 0.0720302803
H  H63  1  0.05370000  0.03290000  0.19630000  1.0 0.0906636933
H  H64  1  0.15560000  0.15940000  0.31160000  1.0 0.1087425476
H  H65  1  0.10070000  0.12490000  0.31670000  1.0 0.1023928158
H  H66  1  0.04790000  0.19880000  0.25010000  1.0 0.1023928158
H  H67  1  0.10280000  0.23340000  0.24500000  1.0 0.1023928158
H  H68  1  0.05620000  0.08470000  0.28950000  1.0 0.1023928158
H  H69  1  0.95110000  0.03300000  0.32280000  1.0 0.1195849991
H  H70  1  0.04890000  0.03300000  0.26680000  1.0 0.0906636933
H  H71  1  0.14780000  0.84800000  0.72010000  1.0 0.1087425476
H  H72  1  0.09310000  0.88040000  0.73370000  1.0 0.1087425476
H  H73  1  0.05560000  0.79230000  0.79300000  1.0 0.1023928158
H  H74  1  0.11040000  0.75980000  0.77940000  1.0 0.1087425476
H  H75  1  0.05610000  0.91400000  0.78220000  1.0 0.1195849991
H  H76  1  0.94640000  0.96710000  0.76920000  1.0 0.0720302803
H  H77  1  0.05370000  0.96710000  0.80370000  1.0 0.0906636933
H  H78  1  0.15560000  0.84060000  0.68840000  1.0 0.1087425476
H  H79  1  0.10070000  0.87510000  0.68330000  1.0 0.1023928158
H  H80  1  0.04790000  0.80120000  0.74990000  1.0 0.1023928158
H  H81  1  0.10280000  0.76660000  0.75500000  1.0 0.1023928158
H  H82  1  0.05620000  0.91530000  0.71050000  1.0 0.1023928158
H  H83  1  0.95110000  0.96700000  0.67720000  1.0 0.1195849991
H  H84  1  0.04890000  0.96700000  0.73320000  1.0 0.0906636933
H  H85  1  0.85220000  0.84800000  0.27990000  1.0 0.1087425476
H  H86  1  0.90690000  0.88040000  0.26630000  1.0 0.1087425476
H  H87  1  0.94440000  0.79230000  0.20700000  1.0 0.1023928158
H  H88  1  0.88960000  0.75980000  0.22060000  1.0 0.1087425476
H  H89  1  0.94390000  0.91400000  0.21780000  1.0 0.1195849991
H  H90  1  0.05360000  0.96710000  0.23080000  1.0 0.0720302803
H  H91  1  0.94630000  0.96710000  0.19630000  1.0 0.0906636933
H  H92  1  0.84440000  0.84060000  0.31160000  1.0 0.1087425476
H  H93  1  0.89930000  0.87510000  0.31670000  1.0 0.1023928158
H  H94  1  0.95210000  0.80120000  0.25010000  1.0 0.1023928158
H  H95  1  0.89720000  0.76660000  0.24500000  1.0 0.1023928158
H  H96  1  0.94380000  0.91530000  0.28950000  1.0 0.1023928158
H  H97  1  0.04890000  0.96700000  0.32280000  1.0 0.1195849991
H  H98  1  0.95110000  0.96700000  0.26680000  1.0 0.0906636933
H  H99  1  0.85220000  0.15200000  0.72010000  1.0 0.1087425476
H  H100  1  0.90690000  0.11960000  0.73370000  1.0 0.1087425476
H  H101  1  0.94440000  0.20770000  0.79300000  1.0 0.1023928158
H  H102  1  0.88960000  0.24020000  0.77940000  1.0 0.1087425476
H  H103  1  0.94390000  0.08600000  0.78220000  1.0 0.1195849991
H  H104  1  0.05360000  0.03290000  0.76920000  1.0 0.0720302803
H  H105  1  0.94630000  0.03290000  0.80370000  1.0 0.0906636933
H  H106  1  0.84440000  0.15940000  0.68840000  1.0 0.1087425476
H  H107  1  0.89930000  0.12490000  0.68330000  1.0 0.1023928158
H  H108  1  0.95210000  0.19880000  0.74990000  1.0 0.1023928158
H  H109  1  0.89720000  0.23340000  0.75500000  1.0 0.1023928158
H  H110  1  0.94380000  0.08470000  0.71050000  1.0 0.1023928158
H  H111  1  0.04890000  0.03300000  0.67720000  1.0 0.1195849991
H  H112  1  0.95110000  0.03300000  0.73320000  1.0 0.0906636933
H  H113  1  0.27990000  0.14780000  0.15200000  1.0 0.1087425476
H  H114  1  0.26630000  0.09310000  0.11960000  1.0 0.1087425476
H  H115  1  0.20700000  0.05560000  0.20770000  1.0 0.1023928158
H  H116  1  0.22060000  0.11040000  0.24020000  1.0 0.1087425476
H  H117  1  0.21780000  0.05610000  0.08600000  1.0 0.1195849991
H  H118  1  0.23080000  0.94640000  0.03290000  1.0 0.0720302803
H  H119  1  0.19630000  0.05370000  0.03290000  1.0 0.0906636933
H  H120  1  0.31160000  0.15560000  0.15940000  1.0 0.1087425476
H  H121  1  0.31670000  0.10070000  0.12490000  1.0 0.1023928158
H  H122  1  0.25010000  0.04790000  0.19880000  1.0 0.1023928158
H  H123  1  0.24500000  0.10280000  0.23340000  1.0 0.1023928158
H  H124  1  0.28950000  0.05620000  0.08470000  1.0 0.1023928158
H  H125  1  0.32280000  0.95110000  0.03300000  1.0 0.1195849991
H  H126  1  0.26680000  0.04890000  0.03300000  1.0 0.0906636933
H  H127  1  0.72010000  0.14780000  0.84800000  1.0 0.1087425476
H  H128  1  0.73370000  0.09310000  0.88040000  1.0 0.1087425476
H  H129  1  0.79300000  0.05560000  0.79230000  1.0 0.1023928158
H  H130  1  0.77940000  0.11040000  0.75980000  1.0 0.1087425476
H  H131  1  0.78220000  0.05610000  0.91400000  1.0 0.1195849991
H  H132  1  0.76920000  0.94640000  0.96710000  1.0 0.0720302803
H  H133  1  0.80370000  0.05370000  0.96710000  1.0 0.0906636933
H  H134  1  0.68840000  0.15560000  0.84060000  1.0 0.1087425476
H  H135  1  0.68330000  0.10070000  0.87510000  1.0 0.1023928158
H  H136  1  0.74990000  0.04790000  0.80120000  1.0 0.1023928158
H  H137  1  0.75500000  0.10280000  0.76660000  1.0 0.1023928158
H  H138  1  0.71050000  0.05620000  0.91530000  1.0 0.1023928158
H  H139  1  0.67720000  0.95110000  0.96700000  1.0 0.1195849991
H  H140  1  0.73320000  0.04890000  0.96700000  1.0 0.0906636933
H  H141  1  0.27990000  0.85220000  0.84800000  1.0 0.1087425476
H  H142  1  0.26630000  0.90690000  0.88040000  1.0 0.1087425476
H  H143  1  0.20700000  0.94440000  0.79230000  1.0 0.1023928158
H  H144  1  0.22060000  0.88960000  0.75980000  1.0 0.1087425476
H  H145  1  0.21780000  0.94390000  0.91400000  1.0 0.1195849991
H  H146  1  0.23080000  0.05360000  0.96710000  1.0 0.0720302803
H  H147  1  0.19630000  0.94630000  0.96710000  1.0 0.0906636933
H  H148  1  0.31160000  0.84440000  0.84060000  1.0 0.1087425476
H  H149  1  0.31670000  0.89930000  0.87510000  1.0 0.1023928158
H  H150  1  0.25010000  0.95210000  0.80120000  1.0 0.1023928158
H  H151  1  0.24500000  0.89720000  0.76660000  1.0 0.1023928158
H  H152  1  0.28950000  0.94380000  0.91530000  1.0 0.1023928158
H  H153  1  0.32280000  0.04890000  0.96700000  1.0 0.1195849991
H  H154  1  0.26680000  0.95110000  0.96700000  1.0 0.0906636933
H  H155  1  0.72010000  0.85220000  0.15200000  1.0 0.1087425476
H  H156  1  0.73370000  0.90690000  0.11960000  1.0 0.1087425476
H  H157  1  0.79300000  0.94440000  0.20770000  1.0 0.1023928158
H  H158  1  0.77940000  0.88960000  0.24020000  1.0 0.1087425476
H  H159  1  0.78220000  0.94390000  0.08600000  1.0 0.1195849991
H  H160  1  0.76920000  0.05360000  0.03290000  1.0 0.0720302803
H  H161  1  0.80370000  0.94630000  0.03290000  1.0 0.0906636933
H  H162  1  0.68840000  0.84440000  0.15940000  1.0 0.1087425476
H  H163  1  0.68330000  0.89930000  0.12490000  1.0 0.1023928158
H  H164  1  0.74990000  0.95210000  0.19880000  1.0 0.1023928158
H  H165  1  0.75500000  0.89720000  0.23340000  1.0 0.1023928158
H  H166  1  0.71050000  0.94380000  0.08470000  1.0 0.1023928158
H  H167  1  0.67720000  0.04890000  0.03300000  1.0 0.1195849991
H  H168  1  0.73320000  0.95110000  0.03300000  1.0 0.0906636933
H  H169  1  0.77990000  0.65200000  0.35220000  1.0 0.1087425476
H  H170  1  0.76630000  0.61960000  0.40690000  1.0 0.1087425476
H  H171  1  0.70700000  0.70770000  0.44440000  1.0 0.1023928158
H  H172  1  0.72060000  0.74020000  0.38960000  1.0 0.1087425476
H  H173  1  0.71780000  0.58600000  0.44390000  1.0 0.1195849991
H  H174  1  0.73080000  0.53290000  0.55360000  1.0 0.0720302803
H  H175  1  0.69630000  0.53290000  0.44630000  1.0 0.0906636933
H  H176  1  0.81160000  0.65940000  0.34440000  1.0 0.1087425476
H  H177  1  0.81670000  0.62490000  0.39930000  1.0 0.1023928158
H  H178  1  0.75010000  0.69880000  0.45210000  1.0 0.1023928158
H  H179  1  0.74500000  0.73340000  0.39720000  1.0 0.1023928158
H  H180  1  0.78950000  0.58470000  0.44380000  1.0 0.1023928158
H  H181  1  0.82280000  0.53300000  0.54890000  1.0 0.1195849991
H  H182  1  0.76680000  0.53300000  0.45110000  1.0 0.0906636933
H  H183  1  0.22010000  0.34800000  0.35220000  1.0 0.1087425476
H  H184  1  0.23370000  0.38040000  0.40690000  1.0 0.1087425476
H  H185  1  0.29300000  0.29230000  0.44440000  1.0 0.1023928158
H  H186  1  0.27940000  0.25980000  0.38960000  1.0 0.1087425476
H  H187  1  0.28220000  0.41400000  0.44390000  1.0 0.1195849991
H  H188  1  0.26920000  0.46710000  0.55360000  1.0 0.0720302803
H  H189  1  0.30370000  0.46710000  0.44630000  1.0 0.0906636933
H  H190  1  0.18840000  0.34060000  0.34440000  1.0 0.1087425476
H  H191  1  0.18330000  0.37510000  0.39930000  1.0 0.1023928158
H  H192  1  0.24990000  0.30120000  0.45210000  1.0 0.1023928158
H  H193  1  0.25500000  0.26660000  0.39720000  1.0 0.1023928158
H  H194  1  0.21050000  0.41530000  0.44380000  1.0 0.1023928158
H  H195  1  0.17720000  0.46700000  0.54890000  1.0 0.1195849991
H  H196  1  0.23320000  0.46700000  0.45110000  1.0 0.0906636933
H  H197  1  0.77990000  0.34800000  0.64780000  1.0 0.1087425476
H  H198  1  0.76630000  0.38040000  0.59310000  1.0 0.1087425476
H  H199  1  0.70700000  0.29230000  0.55560000  1.0 0.1023928158
H  H200  1  0.72060000  0.25980000  0.61040000  1.0 0.1087425476
H  H201  1  0.71780000  0.41400000  0.55610000  1.0 0.1195849991
H  H202  1  0.73080000  0.46710000  0.44640000  1.0 0.0720302803
H  H203  1  0.69630000  0.46710000  0.55370000  1.0 0.0906636933
H  H204  1  0.81160000  0.34060000  0.65560000  1.0 0.1087425476
H  H205  1  0.81670000  0.37510000  0.60070000  1.0 0.1023928158
H  H206  1  0.75010000  0.30120000  0.54790000  1.0 0.1023928158
H  H207  1  0.74500000  0.26660000  0.60280000  1.0 0.1023928158
H  H208  1  0.78950000  0.41530000  0.55620000  1.0 0.1023928158
H  H209  1  0.82280000  0.46700000  0.45110000  1.0 0.1195849991
H  H210  1  0.76680000  0.46700000  0.54890000  1.0 0.0906636933
H  H211  1  0.22010000  0.65200000  0.64780000  1.0 0.1087425476
H  H212  1  0.23370000  0.61960000  0.59310000  1.0 0.1087425476
H  H213  1  0.29300000  0.70770000  0.55560000  1.0 0.1023928158
H  H214  1  0.27940000  0.74020000  0.61040000  1.0 0.1087425476
H  H215  1  0.28220000  0.58600000  0.55610000  1.0 0.1195849991
H  H216  1  0.26920000  0.53290000  0.44640000  1.0 0.0720302803
H  H217  1  0.30370000  0.53290000  0.55370000  1.0 0.0906636933
H  H218  1  0.18840000  0.65940000  0.65560000  1.0 0.1087425476
H  H219  1  0.18330000  0.62490000  0.60070000  1.0 0.1023928158
H  H220  1  0.24990000  0.69880000  0.54790000  1.0 0.1023928158
H  H221  1  0.25500000  0.73340000  0.60280000  1.0 0.1023928158
H  H222  1  0.21050000  0.58470000  0.55620000  1.0 0.1023928158
H  H223  1  0.17720000  0.53300000  0.45110000  1.0 0.1195849991
H  H224  1  0.23320000  0.53300000  0.54890000  1.0 0.0906636933
H  H225  1  0.65200000  0.64780000  0.22010000  1.0 0.1087425476
H  H226  1  0.61960000  0.59310000  0.23370000  1.0 0.1087425476
H  H227  1  0.70770000  0.55560000  0.29300000  1.0 0.1023928158
H  H228  1  0.74020000  0.61040000  0.27940000  1.0 0.1087425476
H  H229  1  0.58600000  0.55610000  0.28220000  1.0 0.1195849991
H  H230  1  0.53290000  0.44640000  0.26920000  1.0 0.0720302803
H  H231  1  0.53290000  0.55370000  0.30370000  1.0 0.0906636933
H  H232  1  0.65940000  0.65560000  0.18840000  1.0 0.1087425476
H  H233  1  0.62490000  0.60070000  0.18330000  1.0 0.1023928158
H  H234  1  0.69880000  0.54790000  0.24990000  1.0 0.1023928158
H  H235  1  0.73340000  0.60280000  0.25500000  1.0 0.1023928158
H  H236  1  0.58470000  0.55620000  0.21050000  1.0 0.1023928158
H  H237  1  0.53300000  0.45110000  0.17720000  1.0 0.1195849991
H  H238  1  0.53300000  0.54890000  0.23320000  1.0 0.0906636933
H  H239  1  0.34800000  0.64780000  0.77990000  1.0 0.1087425476
H  H240  1  0.38040000  0.59310000  0.76630000  1.0 0.1087425476
H  H241  1  0.29230000  0.55560000  0.70700000  1.0 0.1023928158
H  H242  1  0.25980000  0.61040000  0.72060000  1.0 0.1087425476
H  H243  1  0.41400000  0.55610000  0.71780000  1.0 0.1195849991
H  H244  1  0.46710000  0.44640000  0.73080000  1.0 0.0720302803
H  H245  1  0.46710000  0.55370000  0.69630000  1.0 0.0906636933
H  H246  1  0.34060000  0.65560000  0.81160000  1.0 0.1087425476
H  H247  1  0.37510000  0.60070000  0.81670000  1.0 0.1023928158
H  H248  1  0.30120000  0.54790000  0.75010000  1.0 0.1023928158
H  H249  1  0.26660000  0.60280000  0.74500000  1.0 0.1023928158
H  H250  1  0.41530000  0.55620000  0.78950000  1.0 0.1023928158
H  H251  1  0.46700000  0.45110000  0.82280000  1.0 0.1195849991
H  H252  1  0.46700000  0.54890000  0.76680000  1.0 0.0906636933
H  H253  1  0.34800000  0.35220000  0.22010000  1.0 0.1087425476
H  H254  1  0.38040000  0.40690000  0.23370000  1.0 0.1087425476
H  H255  1  0.29230000  0.44440000  0.29300000  1.0 0.1023928158
H  H256  1  0.25980000  0.38960000  0.27940000  1.0 0.1087425476
H  H257  1  0.41400000  0.44390000  0.28220000  1.0 0.1195849991
H  H258  1  0.46710000  0.55360000  0.26920000  1.0 0.0720302803
H  H259  1  0.46710000  0.44630000  0.30370000  1.0 0.0906636933
H  H260  1  0.34060000  0.34440000  0.18840000  1.0 0.1087425476
H  H261  1  0.37510000  0.39930000  0.18330000  1.0 0.1023928158
H  H262  1  0.30120000  0.45210000  0.24990000  1.0 0.1023928158
H  H263  1  0.26660000  0.39720000  0.25500000  1.0 0.1023928158
H  H264  1  0.41530000  0.44380000  0.21050000  1.0 0.1023928158
H  H265  1  0.46700000  0.54890000  0.17720000  1.0 0.1195849991
H  H266  1  0.46700000  0.45110000  0.23320000  1.0 0.0906636933
H  H267  1  0.65200000  0.35220000  0.77990000  1.0 0.1087425476
H  H268  1  0.61960000  0.40690000  0.76630000  1.0 0.1087425476
H  H269  1  0.70770000  0.44440000  0.70700000  1.0 0.1023928158
H  H270  1  0.74020000  0.38960000  0.72060000  1.0 0.1087425476
H  H271  1  0.58600000  0.44390000  0.71780000  1.0 0.1195849991
H  H272  1  0.53290000  0.55360000  0.73080000  1.0 0.0720302803
H  H273  1  0.53290000  0.44630000  0.69630000  1.0 0.0906636933
H  H274  1  0.65940000  0.34440000  0.81160000  1.0 0.1087425476
H  H275  1  0.62490000  0.39930000  0.81670000  1.0 0.1023928158
H  H276  1  0.69880000  0.45210000  0.75010000  1.0 0.1023928158
H  H277  1  0.73340000  0.39720000  0.74500000  1.0 0.1023928158
H  H278  1  0.58470000  0.44380000  0.78950000  1.0 0.1023928158
H  H279  1  0.53300000  0.54890000  0.82280000  1.0 0.1195849991
H  H280  1  0.53300000  0.45110000  0.76680000  1.0 0.0906636933
H  H281  1  0.64780000  0.77990000  0.34800000  1.0 0.1087425476
H  H282  1  0.59310000  0.76630000  0.38040000  1.0 0.1087425476
H  H283  1  0.55560000  0.70700000  0.29230000  1.0 0.1023928158
H  H284  1  0.61040000  0.72060000  0.25980000  1.0 0.1087425476
H  H285  1  0.55610000  0.71780000  0.41400000  1.0 0.1195849991
H  H286  1  0.44640000  0.73080000  0.46710000  1.0 0.0720302803
H  H287  1  0.55370000  0.69630000  0.46710000  1.0 0.0906636933
H  H288  1  0.65560000  0.81160000  0.34060000  1.0 0.1087425476
H  H289  1  0.60070000  0.81670000  0.37510000  1.0 0.1023928158
H  H290  1  0.54790000  0.75010000  0.30120000  1.0 0.1023928158
H  H291  1  0.60280000  0.74500000  0.26660000  1.0 0.1023928158
H  H292  1  0.55620000  0.78950000  0.41530000  1.0 0.1023928158
H  H293  1  0.45110000  0.82280000  0.46700000  1.0 0.1195849991
H  H294  1  0.54890000  0.76680000  0.46700000  1.0 0.0906636933
H  H295  1  0.64780000  0.22010000  0.65200000  1.0 0.1087425476
H  H296  1  0.59310000  0.23370000  0.61960000  1.0 0.1087425476
H  H297  1  0.55560000  0.29300000  0.70770000  1.0 0.1023928158
H  H298  1  0.61040000  0.27940000  0.74020000  1.0 0.1087425476
H  H299  1  0.55610000  0.28220000  0.58600000  1.0 0.1195849991
H  H300  1  0.44640000  0.26920000  0.53290000  1.0 0.0720302803
H  H301  1  0.55370000  0.30370000  0.53290000  1.0 0.0906636933
H  H302  1  0.65560000  0.18840000  0.65940000  1.0 0.1087425476
H  H303  1  0.60070000  0.18330000  0.62490000  1.0 0.1023928158
H  H304  1  0.54790000  0.24990000  0.69880000  1.0 0.1023928158
H  H305  1  0.60280000  0.25500000  0.73340000  1.0 0.1023928158
H  H306  1  0.55620000  0.21050000  0.58470000  1.0 0.1023928158
H  H307  1  0.45110000  0.17720000  0.53300000  1.0 0.1195849991
H  H308  1  0.54890000  0.23320000  0.53300000  1.0 0.0906636933
H  H309  1  0.35220000  0.77990000  0.65200000  1.0 0.1087425476
H  H310  1  0.40690000  0.76630000  0.61960000  1.0 0.1087425476
H  H311  1  0.44440000  0.70700000  0.70770000  1.0 0.1023928158
H  H312  1  0.38960000  0.72060000  0.74020000  1.0 0.1087425476
H  H313  1  0.44390000  0.71780000  0.58600000  1.0 0.1195849991
H  H314  1  0.55360000  0.73080000  0.53290000  1.0 0.0720302803
H  H315  1  0.44630000  0.69630000  0.53290000  1.0 0.0906636933
H  H316  1  0.34440000  0.81160000  0.65940000  1.0 0.1087425476
H  H317  1  0.39930000  0.81670000  0.62490000  1.0 0.1023928158
H  H318  1  0.45210000  0.75010000  0.69880000  1.0 0.1023928158
H  H319  1  0.39720000  0.74500000  0.73340000  1.0 0.1023928158
H  H320  1  0.44380000  0.78950000  0.58470000  1.0 0.1023928158
H  H321  1  0.54890000  0.82280000  0.53300000  1.0 0.1195849991
H  H322  1  0.45110000  0.76680000  0.53300000  1.0 0.0906636933
H  H323  1  0.35220000  0.22010000  0.34800000  1.0 0.1087425476
H  H324  1  0.40690000  0.23370000  0.38040000  1.0 0.1087425476
H  H325  1  0.44440000  0.29300000  0.29230000  1.0 0.1023928158
H  H326  1  0.38960000  0.27940000  0.25980000  1.0 0.1087425476
H  H327  1  0.44390000  0.28220000  0.41400000  1.0 0.1195849991
H  H328  1  0.55360000  0.26920000  0.46710000  1.0 0.0720302803
H  H329  1  0.44630000  0.30370000  0.46710000  1.0 0.0906636933
H  H330  1  0.34440000  0.18840000  0.34060000  1.0 0.1087425476
H  H331  1  0.39930000  0.18330000  0.37510000  1.0 0.1023928158
H  H332  1  0.45210000  0.24990000  0.30120000  1.0 0.1023928158
H  H333  1  0.39720000  0.25500000  0.26660000  1.0 0.1023928158
H  H334  1  0.44380000  0.21050000  0.41530000  1.0 0.1023928158
H  H335  1  0.54890000  0.17720000  0.46700000  1.0 0.1195849991
H  H336  1  0.45110000  0.23320000  0.46700000  1.0 0.0906636933
H  H337  1  0.84800000  0.72010000  0.85220000  1.0 0.1087425476
H  H338  1  0.88040000  0.73370000  0.90690000  1.0 0.1087425476
H  H339  1  0.79230000  0.79300000  0.94440000  1.0 0.1023928158
H  H340  1  0.75980000  0.77940000  0.88960000  1.0 0.1087425476
H  H341  1  0.91400000  0.78220000  0.94390000  1.0 0.1195849991
H  H342  1  0.96710000  0.76920000  0.05360000  1.0 0.0720302803
H  H343  1  0.96710000  0.80370000  0.94630000  1.0 0.0906636933
H  H344  1  0.84060000  0.68840000  0.84440000  1.0 0.1087425476
H  H345  1  0.87510000  0.68330000  0.89930000  1.0 0.1023928158
H  H346  1  0.80120000  0.74990000  0.95210000  1.0 0.1023928158
H  H347  1  0.76660000  0.75500000  0.89720000  1.0 0.1023928158
H  H348  1  0.91530000  0.71050000  0.94380000  1.0 0.1023928158
H  H349  1  0.96700000  0.67720000  0.04890000  1.0 0.1195849991
H  H350  1  0.96700000  0.73320000  0.95110000  1.0 0.0906636933
H  H351  1  0.15200000  0.27990000  0.85220000  1.0 0.1087425476
H  H352  1  0.11960000  0.26630000  0.90690000  1.0 0.1087425476
H  H353  1  0.20770000  0.20700000  0.94440000  1.0 0.1023928158
H  H354  1  0.24020000  0.22060000  0.88960000  1.0 0.1087425476
H  H355  1  0.08600000  0.21780000  0.94390000  1.0 0.1195849991
H  H356  1  0.03290000  0.23080000  0.05360000  1.0 0.0720302803
H  H357  1  0.03290000  0.19630000  0.94630000  1.0 0.0906636933
H  H358  1  0.15940000  0.31160000  0.84440000  1.0 0.1087425476
H  H359  1  0.12490000  0.31670000  0.89930000  1.0 0.1023928158
H  H360  1  0.19880000  0.25010000  0.95210000  1.0 0.1023928158
H  H361  1  0.23340000  0.24500000  0.89720000  1.0 0.1023928158
H  H362  1  0.08470000  0.28950000  0.94380000  1.0 0.1023928158
H  H363  1  0.03300000  0.32280000  0.04890000  1.0 0.1195849991
H  H364  1  0.03300000  0.26680000  0.95110000  1.0 0.0906636933
H  H365  1  0.15200000  0.72010000  0.14780000  1.0 0.1087425476
H  H366  1  0.11960000  0.73370000  0.09310000  1.0 0.1087425476
H  H367  1  0.20770000  0.79300000  0.05560000  1.0 0.1023928158
H  H368  1  0.24020000  0.77940000  0.11040000  1.0 0.1087425476
H  H369  1  0.08600000  0.78220000  0.05610000  1.0 0.1195849991
H  H370  1  0.03290000  0.76920000  0.94640000  1.0 0.0720302803
H  H371  1  0.03290000  0.80370000  0.05370000  1.0 0.0906636933
H  H372  1  0.15940000  0.68840000  0.15560000  1.0 0.1087425476
H  H373  1  0.12490000  0.68330000  0.10070000  1.0 0.1023928158
H  H374  1  0.19880000  0.74990000  0.04790000  1.0 0.1023928158
H  H375  1  0.23340000  0.75500000  0.10280000  1.0 0.1023928158
H  H376  1  0.08470000  0.71050000  0.05620000  1.0 0.1023928158
H  H377  1  0.03300000  0.67720000  0.95110000  1.0 0.1195849991
H  H378  1  0.03300000  0.73320000  0.04890000  1.0 0.0906636933
H  H379  1  0.84800000  0.27990000  0.14780000  1.0 0.1087425476
H  H380  1  0.88040000  0.26630000  0.09310000  1.0 0.1087425476
H  H381  1  0.79230000  0.20700000  0.05560000  1.0 0.1023928158
H  H382  1  0.75980000  0.22060000  0.11040000  1.0 0.1087425476
H  H383  1  0.91400000  0.21780000  0.05610000  1.0 0.1195849991
H  H384  1  0.96710000  0.23080000  0.94640000  1.0 0.0720302803
H  H385  1  0.96710000  0.19630000  0.05370000  1.0 0.0906636933
H  H386  1  0.84060000  0.31160000  0.15560000  1.0 0.1087425476
H  H387  1  0.87510000  0.31670000  0.10070000  1.0 0.1023928158
H  H388  1  0.80120000  0.25010000  0.04790000  1.0 0.1023928158
H  H389  1  0.76660000  0.24500000  0.10280000  1.0 0.1023928158
H  H390  1  0.91530000  0.28950000  0.05620000  1.0 0.1023928158
H  H391  1  0.96700000  0.32280000  0.95110000  1.0 0.1195849991
H  H392  1  0.96700000  0.26680000  0.04890000  1.0 0.0906636933
H  H393  1  0.85220000  0.84800000  0.72010000  1.0 0.1087425476
H  H394  1  0.90690000  0.88040000  0.73370000  1.0 0.1087425476
H  H395  1  0.94440000  0.79230000  0.79300000  1.0 0.1023928158
H  H396  1  0.88960000  0.75980000  0.77940000  1.0 0.1087425476
H  H397  1  0.94390000  0.91400000  0.78220000  1.0 0.1195849991
H  H398  1  0.05360000  0.96710000  0.76920000  1.0 0.0720302803
H  H399  1  0.94630000  0.96710000  0.80370000  1.0 0.0906636933
H  H400  1  0.84440000  0.84060000  0.68840000  1.0 0.1087425476
H  H401  1  0.89930000  0.87510000  0.68330000  1.0 0.1023928158
H  H402  1  0.95210000  0.80120000  0.74990000  1.0 0.1023928158
H  H403  1  0.89720000  0.76660000  0.75500000  1.0 0.1023928158
H  H404  1  0.94380000  0.91530000  0.71050000  1.0 0.1023928158
H  H405  1  0.04890000  0.96700000  0.67720000  1.0 0.1195849991
H  H406  1  0.95110000  0.96700000  0.73320000  1.0 0.0906636933
H  H407  1  0.85220000  0.15200000  0.27990000  1.0 0.1087425476
H  H408  1  0.90690000  0.11960000  0.26630000  1.0 0.1087425476
H  H409  1  0.94440000  0.20770000  0.20700000  1.0 0.1023928158
H  H410  1  0.88960000  0.24020000  0.22060000  1.0 0.1087425476
H  H411  1  0.94390000  0.08600000  0.21780000  1.0 0.1195849991
H  H412  1  0.05360000  0.03290000  0.23080000  1.0 0.0720302803
H  H413  1  0.94630000  0.03290000  0.19630000  1.0 0.0906636933
H  H414  1  0.84440000  0.15940000  0.31160000  1.0 0.1087425476
H  H415  1  0.89930000  0.12490000  0.31670000  1.0 0.1023928158
H  H416  1  0.95210000  0.19880000  0.25010000  1.0 0.1023928158
H  H417  1  0.89720000  0.23340000  0.24500000  1.0 0.1023928158
H  H418  1  0.94380000  0.08470000  0.28950000  1.0 0.1023928158
H  H419  1  0.04890000  0.03300000  0.32280000  1.0 0.1195849991
H  H420  1  0.95110000  0.03300000  0.26680000  1.0 0.0906636933
H  H421  1  0.14780000  0.15200000  0.72010000  1.0 0.1087425476
H  H422  1  0.09310000  0.11960000  0.73370000  1.0 0.1087425476
H  H423  1  0.05560000  0.20770000  0.79300000  1.0 0.1023928158
H  H424  1  0.11040000  0.24020000  0.77940000  1.0 0.1087425476
H  H425  1  0.05610000  0.08600000  0.78220000  1.0 0.1195849991
H  H426  1  0.94640000  0.03290000  0.76920000  1.0 0.0720302803
H  H427  1  0.05370000  0.03290000  0.80370000  1.0 0.0906636933
H  H428  1  0.15560000  0.15940000  0.68840000  1.0 0.1087425476
H  H429  1  0.10070000  0.12490000  0.68330000  1.0 0.1023928158
H  H430  1  0.04790000  0.19880000  0.74990000  1.0 0.1023928158
H  H431  1  0.10280000  0.23340000  0.75500000  1.0 0.1023928158
H  H432  1  0.05620000  0.08470000  0.71050000  1.0 0.1023928158
H  H433  1  0.95110000  0.03300000  0.67720000  1.0 0.1195849991
H  H434  1  0.04890000  0.03300000  0.73320000  1.0 0.0906636933
H  H435  1  0.14780000  0.84800000  0.27990000  1.0 0.1087425476
H  H436  1  0.09310000  0.88040000  0.26630000  1.0 0.1087425476
H  H437  1  0.05560000  0.79230000  0.20700000  1.0 0.1023928158
H  H438  1  0.11040000  0.75980000  0.22060000  1.0 0.1087425476
H  H439  1  0.05610000  0.91400000  0.21780000  1.0 0.1195849991
H  H440  1  0.94640000  0.96710000  0.23080000  1.0 0.0720302803
H  H441  1  0.05370000  0.96710000  0.19630000  1.0 0.0906636933
H  H442  1  0.15560000  0.84060000  0.31160000  1.0 0.1087425476
H  H443  1  0.10070000  0.87510000  0.31670000  1.0 0.1023928158
H  H444  1  0.04790000  0.80120000  0.25010000  1.0 0.1023928158
H  H445  1  0.10280000  0.76660000  0.24500000  1.0 0.1023928158
H  H446  1  0.05620000  0.91530000  0.28950000  1.0 0.1023928158
H  H447  1  0.95110000  0.96700000  0.32280000  1.0 0.1195849991
H  H448  1  0.04890000  0.96700000  0.26680000  1.0 0.0906636933
H  H449  1  0.72010000  0.85220000  0.84800000  1.0 0.1087425476
H  H450  1  0.73370000  0.90690000  0.88040000  1.0 0.1087425476
H  H451  1  0.79300000  0.94440000  0.79230000  1.0 0.1023928158
H  H452  1  0.77940000  0.88960000  0.75980000  1.0 0.1087425476
H  H453  1  0.78220000  0.94390000  0.91400000  1.0 0.1195849991
H  H454  1  0.76920000  0.05360000  0.96710000  1.0 0.0720302803
H  H455  1  0.80370000  0.94630000  0.96710000  1.0 0.0906636933
H  H456  1  0.68840000  0.84440000  0.84060000  1.0 0.1087425476
H  H457  1  0.68330000  0.89930000  0.87510000  1.0 0.1023928158
H  H458  1  0.74990000  0.95210000  0.80120000  1.0 0.1023928158
H  H459  1  0.75500000  0.89720000  0.76660000  1.0 0.1023928158
H  H460  1  0.71050000  0.94380000  0.91530000  1.0 0.1023928158
H  H461  1  0.67720000  0.04890000  0.96700000  1.0 0.1195849991
H  H462  1  0.73320000  0.95110000  0.96700000  1.0 0.0906636933
H  H463  1  0.27990000  0.85220000  0.15200000  1.0 0.1087425476
H  H464  1  0.26630000  0.90690000  0.11960000  1.0 0.1087425476
H  H465  1  0.20700000  0.94440000  0.20770000  1.0 0.1023928158
H  H466  1  0.22060000  0.88960000  0.24020000  1.0 0.1087425476
H  H467  1  0.21780000  0.94390000  0.08600000  1.0 0.1195849991
H  H468  1  0.23080000  0.05360000  0.03290000  1.0 0.0720302803
H  H469  1  0.19630000  0.94630000  0.03290000  1.0 0.0906636933
H  H470  1  0.31160000  0.84440000  0.15940000  1.0 0.1087425476
H  H471  1  0.31670000  0.89930000  0.12490000  1.0 0.1023928158
H  H472  1  0.25010000  0.95210000  0.19880000  1.0 0.1023928158
H  H473  1  0.24500000  0.89720000  0.23340000  1.0 0.1023928158
H  H474  1  0.28950000  0.94380000  0.08470000  1.0 0.1023928158
H  H475  1  0.32280000  0.04890000  0.03300000  1.0 0.1195849991
H  H476  1  0.26680000  0.95110000  0.03300000  1.0 0.0906636933
H  H477  1  0.72010000  0.14780000  0.15200000  1.0 0.1087425476
H  H478  1  0.73370000  0.09310000  0.11960000  1.0 0.1087425476
H  H479  1  0.79300000  0.05560000  0.20770000  1.0 0.1023928158
H  H480  1  0.77940000  0.11040000  0.24020000  1.0 0.1087425476
H  H481  1  0.78220000  0.05610000  0.08600000  1.0 0.1195849991
H  H482  1  0.76920000  0.94640000  0.03290000  1.0 0.0720302803
H  H483  1  0.80370000  0.05370000  0.03290000  1.0 0.0906636933
H  H484  1  0.68840000  0.15560000  0.15940000  1.0 0.1087425476
H  H485  1  0.68330000  0.10070000  0.12490000  1.0 0.1023928158
H  H486  1  0.74990000  0.04790000  0.19880000  1.0 0.1023928158
H  H487  1  0.75500000  0.10280000  0.23340000  1.0 0.1023928158
H  H488  1  0.71050000  0.05620000  0.08470000  1.0 0.1023928158
H  H489  1  0.67720000  0.95110000  0.03300000  1.0 0.1195849991
H  H490  1  0.73320000  0.04890000  0.03300000  1.0 0.0906636933
H  H491  1  0.27990000  0.14780000  0.84800000  1.0 0.1087425476
H  H492  1  0.26630000  0.09310000  0.88040000  1.0 0.1087425476
H  H493  1  0.20700000  0.05560000  0.79230000  1.0 0.1023928158
H  H494  1  0.22060000  0.11040000  0.75980000  1.0 0.1087425476
H  H495  1  0.21780000  0.05610000  0.91400000  1.0 0.1195849991
H  H496  1  0.23080000  0.94640000  0.96710000  1.0 0.0720302803
H  H497  1  0.19630000  0.05370000  0.96710000  1.0 0.0906636933
H  H498  1  0.31160000  0.15560000  0.84060000  1.0 0.1087425476
H  H499  1  0.31670000  0.10070000  0.87510000  1.0 0.1023928158
H  H500  1  0.25010000  0.04790000  0.80120000  1.0 0.1023928158
H  H501  1  0.24500000  0.10280000  0.76660000  1.0 0.1023928158
H  H502  1  0.28950000  0.05620000  0.91530000  1.0 0.1023928158
H  H503  1  0.32280000  0.95110000  0.96700000  1.0 0.1195849991
H  H504  1  0.26680000  0.04890000  0.96700000  1.0 0.0906636933
H  H505  1  0.22010000  0.34800000  0.64780000  1.0 0.1087425476
H  H506  1  0.23370000  0.38040000  0.59310000  1.0 0.1087425476
H  H507  1  0.29300000  0.29230000  0.55560000  1.0 0.1023928158
H  H508  1  0.27940000  0.25980000  0.61040000  1.0 0.1087425476
H  H509  1  0.28220000  0.41400000  0.55610000  1.0 0.1195849991
H  H510  1  0.26920000  0.46710000  0.44640000  1.0 0.0720302803
H  H511  1  0.30370000  0.46710000  0.55370000  1.0 0.0906636933
H  H512  1  0.18840000  0.34060000  0.65560000  1.0 0.1087425476
H  H513  1  0.18330000  0.37510000  0.60070000  1.0 0.1023928158
H  H514  1  0.24990000  0.30120000  0.54790000  1.0 0.1023928158
H  H515  1  0.25500000  0.26660000  0.60280000  1.0 0.1023928158
H  H516  1  0.21050000  0.41530000  0.55620000  1.0 0.1023928158
H  H517  1  0.17720000  0.46700000  0.45110000  1.0 0.1195849991
H  H518  1  0.23320000  0.46700000  0.54890000  1.0 0.0906636933
H  H519  1  0.77990000  0.65200000  0.64780000  1.0 0.1087425476
H  H520  1  0.76630000  0.61960000  0.59310000  1.0 0.1087425476
H  H521  1  0.70700000  0.70770000  0.55560000  1.0 0.1023928158
H  H522  1  0.72060000  0.74020000  0.61040000  1.0 0.1087425476
H  H523  1  0.71780000  0.58600000  0.55610000  1.0 0.1195849991
H  H524  1  0.73080000  0.53290000  0.44640000  1.0 0.0720302803
H  H525  1  0.69630000  0.53290000  0.55370000  1.0 0.0906636933
H  H526  1  0.81160000  0.65940000  0.65560000  1.0 0.1087425476
H  H527  1  0.81670000  0.62490000  0.60070000  1.0 0.1023928158
H  H528  1  0.75010000  0.69880000  0.54790000  1.0 0.1023928158
H  H529  1  0.74500000  0.73340000  0.60280000  1.0 0.1023928158
H  H530  1  0.78950000  0.58470000  0.55620000  1.0 0.1023928158
H  H531  1  0.82280000  0.53300000  0.45110000  1.0 0.1195849991
H  H532  1  0.76680000  0.53300000  0.54890000  1.0 0.0906636933
H  H533  1  0.22010000  0.65200000  0.35220000  1.0 0.1087425476
H  H534  1  0.23370000  0.61960000  0.40690000  1.0 0.1087425476
H  H535  1  0.29300000  0.70770000  0.44440000  1.0 0.1023928158
H  H536  1  0.27940000  0.74020000  0.38960000  1.0 0.1087425476
H  H537  1  0.28220000  0.58600000  0.44390000  1.0 0.1195849991
H  H538  1  0.26920000  0.53290000  0.55360000  1.0 0.0720302803
H  H539  1  0.30370000  0.53290000  0.44630000  1.0 0.0906636933
H  H540  1  0.18840000  0.65940000  0.34440000  1.0 0.1087425476
H  H541  1  0.18330000  0.62490000  0.39930000  1.0 0.1023928158
H  H542  1  0.24990000  0.69880000  0.45210000  1.0 0.1023928158
H  H543  1  0.25500000  0.73340000  0.39720000  1.0 0.1023928158
H  H544  1  0.21050000  0.58470000  0.44380000  1.0 0.1023928158
H  H545  1  0.17720000  0.53300000  0.54890000  1.0 0.1195849991
H  H546  1  0.23320000  0.53300000  0.45110000  1.0 0.0906636933
H  H547  1  0.77990000  0.34800000  0.35220000  1.0 0.1087425476
H  H548  1  0.76630000  0.38040000  0.40690000  1.0 0.1087425476
H  H549  1  0.70700000  0.29230000  0.44440000  1.0 0.1023928158
H  H550  1  0.72060000  0.25980000  0.38960000  1.0 0.1087425476
H  H551  1  0.71780000  0.41400000  0.44390000  1.0 0.1195849991
H  H552  1  0.73080000  0.46710000  0.55360000  1.0 0.0720302803
H  H553  1  0.69630000  0.46710000  0.44630000  1.0 0.0906636933
H  H554  1  0.81160000  0.34060000  0.34440000  1.0 0.1087425476
H  H555  1  0.81670000  0.37510000  0.39930000  1.0 0.1023928158
H  H556  1  0.75010000  0.30120000  0.45210000  1.0 0.1023928158
H  H557  1  0.74500000  0.26660000  0.39720000  1.0 0.1023928158
H  H558  1  0.78950000  0.41530000  0.44380000  1.0 0.1023928158
H  H559  1  0.82280000  0.46700000  0.54890000  1.0 0.1195849991
H  H560  1  0.76680000  0.46700000  0.45110000  1.0 0.0906636933
H  H561  1  0.34800000  0.35220000  0.77990000  1.0 0.1087425476
H  H562  1  0.38040000  0.40690000  0.76630000  1.0 0.1087425476
H  H563  1  0.29230000  0.44440000  0.70700000  1.0 0.1023928158
H  H564  1  0.25980000  0.38960000  0.72060000  1.0 0.1087425476
H  H565  1  0.41400000  0.44390000  0.71780000  1.0 0.1195849991
H  H566  1  0.46710000  0.55360000  0.73080000  1.0 0.0720302803
H  H567  1  0.46710000  0.44630000  0.69630000  1.0 0.0906636933
H  H568  1  0.34060000  0.34440000  0.81160000  1.0 0.1087425476
H  H569  1  0.37510000  0.39930000  0.81670000  1.0 0.1023928158
H  H570  1  0.30120000  0.45210000  0.75010000  1.0 0.1023928158
H  H571  1  0.26660000  0.39720000  0.74500000  1.0 0.1023928158
H  H572  1  0.41530000  0.44380000  0.78950000  1.0 0.1023928158
H  H573  1  0.46700000  0.54890000  0.82280000  1.0 0.1195849991
H  H574  1  0.46700000  0.45110000  0.76680000  1.0 0.0906636933
H  H575  1  0.65200000  0.35220000  0.22010000  1.0 0.1087425476
H  H576  1  0.61960000  0.40690000  0.23370000  1.0 0.1087425476
H  H577  1  0.70770000  0.44440000  0.29300000  1.0 0.1023928158
H  H578  1  0.74020000  0.38960000  0.27940000  1.0 0.1087425476
H  H579  1  0.58600000  0.44390000  0.28220000  1.0 0.1195849991
H  H580  1  0.53290000  0.55360000  0.26920000  1.0 0.0720302803
H  H581  1  0.53290000  0.44630000  0.30370000  1.0 0.0906636933
H  H582  1  0.65940000  0.34440000  0.18840000  1.0 0.1087425476
H  H583  1  0.62490000  0.39930000  0.18330000  1.0 0.1023928158
H  H584  1  0.69880000  0.45210000  0.24990000  1.0 0.1023928158
H  H585  1  0.73340000  0.39720000  0.25500000  1.0 0.1023928158
H  H586  1  0.58470000  0.44380000  0.21050000  1.0 0.1023928158
H  H587  1  0.53300000  0.54890000  0.17720000  1.0 0.1195849991
H  H588  1  0.53300000  0.45110000  0.23320000  1.0 0.0906636933
H  H589  1  0.65200000  0.64780000  0.77990000  1.0 0.1087425476
H  H590  1  0.61960000  0.59310000  0.76630000  1.0 0.1087425476
H  H591  1  0.70770000  0.55560000  0.70700000  1.0 0.1023928158
H  H592  1  0.74020000  0.61040000  0.72060000  1.0 0.1087425476
H  H593  1  0.58600000  0.55610000  0.71780000  1.0 0.1195849991
H  H594  1  0.53290000  0.44640000  0.73080000  1.0 0.0720302803
H  H595  1  0.53290000  0.55370000  0.69630000  1.0 0.0906636933
H  H596  1  0.65940000  0.65560000  0.81160000  1.0 0.1087425476
H  H597  1  0.62490000  0.60070000  0.81670000  1.0 0.1023928158
H  H598  1  0.69880000  0.54790000  0.75010000  1.0 0.1023928158
H  H599  1  0.73340000  0.60280000  0.74500000  1.0 0.1023928158
H  H600  1  0.58470000  0.55620000  0.78950000  1.0 0.1023928158
H  H601  1  0.53300000  0.45110000  0.82280000  1.0 0.1195849991
H  H602  1  0.53300000  0.54890000  0.76680000  1.0 0.0906636933
H  H603  1  0.34800000  0.64780000  0.22010000  1.0 0.1087425476
H  H604  1  0.38040000  0.59310000  0.23370000  1.0 0.1087425476
H  H605  1  0.29230000  0.55560000  0.29300000  1.0 0.1023928158
H  H606  1  0.25980000  0.61040000  0.27940000  1.0 0.1087425476
H  H607  1  0.41400000  0.55610000  0.28220000  1.0 0.1195849991
H  H608  1  0.46710000  0.44640000  0.26920000  1.0 0.0720302803
H  H609  1  0.46710000  0.55370000  0.30370000  1.0 0.0906636933
H  H610  1  0.34060000  0.65560000  0.18840000  1.0 0.1087425476
H  H611  1  0.37510000  0.60070000  0.18330000  1.0 0.1023928158
H  H612  1  0.30120000  0.54790000  0.24990000  1.0 0.1023928158
H  H613  1  0.26660000  0.60280000  0.25500000  1.0 0.1023928158
H  H614  1  0.41530000  0.55620000  0.21050000  1.0 0.1023928158
H  H615  1  0.46700000  0.45110000  0.17720000  1.0 0.1195849991
H  H616  1  0.46700000  0.54890000  0.23320000  1.0 0.0906636933
H  H617  1  0.35220000  0.22010000  0.65200000  1.0 0.1087425476
H  H618  1  0.40690000  0.23370000  0.61960000  1.0 0.1087425476
H  H619  1  0.44440000  0.29300000  0.70770000  1.0 0.1023928158
H  H620  1  0.38960000  0.27940000  0.74020000  1.0 0.1087425476
H  H621  1  0.44390000  0.28220000  0.58600000  1.0 0.1195849991
H  H622  1  0.55360000  0.26920000  0.53290000  1.0 0.0720302803
H  H623  1  0.44630000  0.30370000  0.53290000  1.0 0.0906636933
H  H624  1  0.34440000  0.18840000  0.65940000  1.0 0.1087425476
H  H625  1  0.39930000  0.18330000  0.62490000  1.0 0.1023928158
H  H626  1  0.45210000  0.24990000  0.69880000  1.0 0.1023928158
H  H627  1  0.39720000  0.25500000  0.73340000  1.0 0.1023928158
H  H628  1  0.44380000  0.21050000  0.58470000  1.0 0.1023928158
H  H629  1  0.54890000  0.17720000  0.53300000  1.0 0.1195849991
H  H630  1  0.45110000  0.23320000  0.53300000  1.0 0.0906636933
H  H631  1  0.35220000  0.77990000  0.34800000  1.0 0.1087425476
H  H632  1  0.40690000  0.76630000  0.38040000  1.0 0.1087425476
H  H633  1  0.44440000  0.70700000  0.29230000  1.0 0.1023928158
H  H634  1  0.38960000  0.72060000  0.25980000  1.0 0.1087425476
H  H635  1  0.44390000  0.71780000  0.41400000  1.0 0.1195849991
H  H636  1  0.55360000  0.73080000  0.46710000  1.0 0.0720302803
H  H637  1  0.44630000  0.69630000  0.46710000  1.0 0.0906636933
H  H638  1  0.34440000  0.81160000  0.34060000  1.0 0.1087425476
H  H639  1  0.39930000  0.81670000  0.37510000  1.0 0.1023928158
H  H640  1  0.45210000  0.75010000  0.30120000  1.0 0.1023928158
H  H641  1  0.39720000  0.74500000  0.26660000  1.0 0.1023928158
H  H642  1  0.44380000  0.78950000  0.41530000  1.0 0.1023928158
H  H643  1  0.54890000  0.82280000  0.46700000  1.0 0.1195849991
H  H644  1  0.45110000  0.76680000  0.46700000  1.0 0.0906636933
H  H645  1  0.64780000  0.22010000  0.34800000  1.0 0.1087425476
H  H646  1  0.59310000  0.23370000  0.38040000  1.0 0.1087425476
H  H647  1  0.55560000  0.29300000  0.29230000  1.0 0.1023928158
H  H648  1  0.61040000  0.27940000  0.25980000  1.0 0.1087425476
H  H649  1  0.55610000  0.28220000  0.41400000  1.0 0.1195849991
H  H650  1  0.44640000  0.26920000  0.46710000  1.0 0.0720302803
H  H651  1  0.55370000  0.30370000  0.46710000  1.0 0.0906636933
H  H652  1  0.65560000  0.18840000  0.34060000  1.0 0.1087425476
H  H653  1  0.60070000  0.18330000  0.37510000  1.0 0.1023928158
H  H654  1  0.54790000  0.24990000  0.30120000  1.0 0.1023928158
H  H655  1  0.60280000  0.25500000  0.26660000  1.0 0.1023928158
H  H656  1  0.55620000  0.21050000  0.41530000  1.0 0.1023928158
H  H657  1  0.45110000  0.17720000  0.46700000  1.0 0.1195849991
H  H658  1  0.54890000  0.23320000  0.46700000  1.0 0.0906636933
H  H659  1  0.64780000  0.77990000  0.65200000  1.0 0.1087425476
H  H660  1  0.59310000  0.76630000  0.61960000  1.0 0.1087425476
H  H661  1  0.55560000  0.70700000  0.70770000  1.0 0.1023928158
H  H662  1  0.61040000  0.72060000  0.74020000  1.0 0.1087425476
H  H663  1  0.55610000  0.71780000  0.58600000  1.0 0.1195849991
H  H664  1  0.44640000  0.73080000  0.53290000  1.0 0.0720302803
H  H665  1  0.55370000  0.69630000  0.53290000  1.0 0.0906636933
H  H666  1  0.65560000  0.81160000  0.65940000  1.0 0.1087425476
H  H667  1  0.60070000  0.81670000  0.62490000  1.0 0.1023928158
H  H668  1  0.54790000  0.75010000  0.69880000  1.0 0.1023928158
H  H669  1  0.60280000  0.74500000  0.73340000  1.0 0.1023928158
H  H670  1  0.55620000  0.78950000  0.58470000  1.0 0.1023928158
H  H671  1  0.45110000  0.82280000  0.53300000  1.0 0.1195849991
H  H672  1  0.54890000  0.76680000  0.53300000  1.0 0.0906636933
H  H673  1  0.18170000  0.23640000  0.00000000  1.0 0.1087425476
H  H674  1  0.18220000  0.29580000  0.00000000  1.0 0.1195849991
H  H675  1  0.81830000  0.76360000  0.00000000  1.0 0.1195849991
H  H676  1  0.81780000  0.70420000  0.00000000  1.0 0.1195849991
H  H677  1  0.81830000  0.23640000  0.00000000  1.0 0.1087425476
H  H678  1  0.81780000  0.29580000  0.00000000  1.0 0.1195849991
H  H679  1  0.18170000  0.76360000  0.00000000  1.0 0.1087425476
H  H680  1  0.18220000  0.70420000  0.00000000  1.0 0.1195849991
H  H681  1  0.00000000  0.18170000  0.23640000  1.0 0.1087425476
H  H682  1  0.00000000  0.18220000  0.29580000  1.0 0.1195849991
H  H683  1  0.00000000  0.81830000  0.76360000  1.0 0.1195849991
H  H684  1  0.00000000  0.81780000  0.70420000  1.0 0.1195849991
H  H685  1  0.00000000  0.81830000  0.23640000  1.0 0.1195849991
H  H686  1  0.00000000  0.81780000  0.29580000  1.0 0.1195849991
H  H687  1  0.00000000  0.18170000  0.76360000  1.0 0.1195849991
H  H688  1  0.00000000  0.18220000  0.70420000  1.0 0.1195849991
H  H689  1  0.23640000  0.00000000  0.18170000  1.0 0.1087425476
H  H690  1  0.29580000  0.00000000  0.18220000  1.0 0.1195849991
H  H691  1  0.76360000  0.00000000  0.81830000  1.0 0.1195849991
H  H692  1  0.70420000  0.00000000  0.81780000  1.0 0.1195849991
H  H693  1  0.23640000  0.00000000  0.81830000  1.0 0.1087425476
H  H694  1  0.29580000  0.00000000  0.81780000  1.0 0.1195849991
H  H695  1  0.76360000  0.00000000  0.18170000  1.0 0.1195849991
H  H696  1  0.70420000  0.00000000  0.18220000  1.0 0.1195849991
H  H697  1  0.73640000  0.68170000  0.50000000  1.0 0.1195849991
H  H698  1  0.79580000  0.68220000  0.50000000  1.0 0.1195849991
H  H699  1  0.26360000  0.31830000  0.50000000  1.0 0.1087425476
H  H700  1  0.20420000  0.31780000  0.50000000  1.0 0.1195849991
H  H701  1  0.73640000  0.31830000  0.50000000  1.0 0.1195849991
H  H702  1  0.79580000  0.31780000  0.50000000  1.0 0.1195849991
H  H703  1  0.26360000  0.68170000  0.50000000  1.0 0.1195849991
H  H704  1  0.20420000  0.68220000  0.50000000  1.0 0.1195849991
H  H705  1  0.68170000  0.50000000  0.26360000  1.0 0.1195849991
H  H706  1  0.68220000  0.50000000  0.20420000  1.0 0.1195849991
H  H707  1  0.31830000  0.50000000  0.73640000  1.0 0.1195849991
H  H708  1  0.31780000  0.50000000  0.79580000  1.0 0.1195849991
H  H709  1  0.31830000  0.50000000  0.26360000  1.0 0.1087425476
H  H710  1  0.31780000  0.50000000  0.20420000  1.0 0.1195849991
H  H711  1  0.68170000  0.50000000  0.73640000  1.0 0.1195849991
H  H712  1  0.68220000  0.50000000  0.79580000  1.0 0.1195849991
H  H713  1  0.50000000  0.73640000  0.31830000  1.0 0.1195849991
H  H714  1  0.50000000  0.79580000  0.31780000  1.0 0.1195849991
H  H715  1  0.50000000  0.26360000  0.68170000  1.0 0.1195849991
H  H716  1  0.50000000  0.20420000  0.68220000  1.0 0.1195849991
H  H717  1  0.50000000  0.73640000  0.68170000  1.0 0.1195849991
H  H718  1  0.50000000  0.79580000  0.68220000  1.0 0.1195849991
H  H719  1  0.50000000  0.26360000  0.31830000  1.0 0.1087425476
H  H720  1  0.50000000  0.20420000  0.31780000  1.0 0.1195849991
C  C1  1  0.21910000  0.26570000  0.16950000  1.0 0.1087425476
C  C2  1  0.19930000  0.25160000  0.13450000  1.0 0.0188217886
C  C3  1  0.16320000  0.26530000  0.12930000  1.0 -0.0521081324
C  C4  1  0.14380000  0.25720000  0.09660000  1.0 -0.0866425537
C  C5  1  0.16050000  0.23530000  0.06890000  1.0 0.0467501279
C  C6  1  0.19660000  0.22160000  0.07410000  1.0 -0.1042917747
C  C7  1  0.21600000  0.22980000  0.10690000  1.0 -0.1117784683
C  C8  1  0.13720000  0.22780000  0.03410000  1.0 0.1023928158
C  C9  1  0.09890000  0.22040000  0.03350000  1.0 -0.3092285851
C  C10  1  0.01926000  0.22400000  0.96751000  1.0 -0.0605859011
C  C11  1  0.01926000  0.20310000  0.03253000  1.0 -0.0605859011
C  C12  1  0.22280000  0.27040000  0.16900000  1.0 0.1318313491
C  C13  1  0.19980000  0.27780000  0.13460000  1.0 0.0304496871
C  C14  1  0.16730000  0.29920000  0.13400000  1.0 -0.1567427203
C  C15  1  0.14660000  0.30230000  0.10110000  1.0 -0.0605859011
C  C16  1  0.15840000  0.28390000  0.06890000  1.0 0.0304496871
C  C17  1  0.19090000  0.26240000  0.06950000  1.0 -0.0521081324
C  C18  1  0.21170000  0.25940000  0.10240000  1.0 -0.0521081324
C  C19  1  0.13670000  0.29280000  0.03400000  1.0 0.0906636933
C  C20  1  0.09780000  0.29040000  0.03370000  1.0 -0.3092285851
C  C21  1  0.01925000  0.31170000  0.97030000  1.0 -0.0764627905
C  C22  1  0.01926000  0.27780000  0.02967000  1.0 -0.0866425537
C  C23  1  0.78090000  0.73430000  0.16950000  1.0 0.1195849991
C  C24  1  0.80070000  0.74840000  0.13450000  1.0 0.0188217886
C  C25  1  0.83680000  0.73470000  0.12930000  1.0 -0.0521081324
C  C26  1  0.85620000  0.74280000  0.09660000  1.0 -0.0866425537
C  C27  1  0.83950000  0.76470000  0.06890000  1.0 0.0467501279
C  C28  1  0.80340000  0.77840000  0.07410000  1.0 -0.1042917747
C  C29  1  0.78400000  0.77020000  0.10690000  1.0 -0.1117784683
C  C30  1  0.86280000  0.77220000  0.03410000  1.0 0.0906636933
C  C31  1  0.90110000  0.77960000  0.03350000  1.0 -0.3092285851
C  C32  1  0.98074000  0.77600000  0.96751000  1.0 -0.0605859011
C  C33  1  0.98074000  0.79690000  0.03253000  1.0 -0.0605859011
C  C34  1  0.77720000  0.72960000  0.16900000  1.0 0.1318313491
C  C35  1  0.80020000  0.72220000  0.13460000  1.0 0.0304496871
C  C36  1  0.83270000  0.70080000  0.13400000  1.0 -0.1567427203
C  C37  1  0.85340000  0.69770000  0.10110000  1.0 -0.0605859011
C  C38  1  0.84160000  0.71610000  0.06890000  1.0 0.0304496871
C  C39  1  0.80910000  0.73760000  0.06950000  1.0 -0.0521081324
C  C40  1  0.78830000  0.74060000  0.10240000  1.0 -0.0521081324
C  C41  1  0.86330000  0.70720000  0.03400000  1.0 0.0906636933
C  C42  1  0.90220000  0.70960000  0.03370000  1.0 -0.3044834439
C  C43  1  0.98075000  0.68830000  0.97030000  1.0 -0.0764627905
C  C44  1  0.98074000  0.72220000  0.02967000  1.0 -0.0866425537
C  C45  1  0.78090000  0.26570000  0.83050000  1.0 0.1195849991
C  C46  1  0.80070000  0.25160000  0.86550000  1.0 0.0188217886
C  C47  1  0.83680000  0.26530000  0.87070000  1.0 -0.0521081324
C  C48  1  0.85620000  0.25720000  0.90340000  1.0 -0.0866425537
C  C49  1  0.83950000  0.23530000  0.93110000  1.0 0.0467501279
C  C50  1  0.80340000  0.22160000  0.92590000  1.0 -0.1042917747
C  C51  1  0.78400000  0.22980000  0.89310000  1.0 -0.1117784683
C  C52  1  0.86280000  0.22780000  0.96590000  1.0 0.0906636933
C  C53  1  0.90110000  0.22040000  0.96650000  1.0 -0.3092285851
C  C54  1  0.98074000  0.22400000  0.03249000  1.0 -0.0605859011
C  C55  1  0.98074000  0.20310000  0.96747000  1.0 -0.0605859011
C  C56  1  0.77720000  0.27040000  0.83100000  1.0 0.1318313491
C  C57  1  0.80020000  0.27780000  0.86540000  1.0 0.0304496871
C  C58  1  0.83270000  0.29920000  0.86600000  1.0 -0.1567427203
C  C59  1  0.85340000  0.30230000  0.89890000  1.0 -0.0605859011
C  C60  1  0.84160000  0.28390000  0.93110000  1.0 0.0304496871
C  C61  1  0.80910000  0.26240000  0.93050000  1.0 -0.0521081324
C  C62  1  0.78830000  0.25940000  0.89760000  1.0 -0.0521081324
C  C63  1  0.86330000  0.29280000  0.96600000  1.0 0.0906636933
C  C64  1  0.90220000  0.29040000  0.96630000  1.0 -0.3092285851
C  C65  1  0.98075000  0.31170000  0.02970000  1.0 -0.0764627905
C  C66  1  0.98074000  0.27780000  0.97033000  1.0 -0.0866425537
C  C67  1  0.21910000  0.73430000  0.83050000  1.0 0.1195849991
C  C68  1  0.19930000  0.74840000  0.86550000  1.0 0.0188217886
C  C69  1  0.16320000  0.73470000  0.87070000  1.0 -0.0521081324
C  C70  1  0.14380000  0.74280000  0.90340000  1.0 -0.0866425537
C  C71  1  0.16050000  0.76470000  0.93110000  1.0 0.0467501279
C  C72  1  0.19660000  0.77840000  0.92590000  1.0 -0.1042917747
C  C73  1  0.21600000  0.77020000  0.89310000  1.0 -0.1117784683
C  C74  1  0.13720000  0.77220000  0.96590000  1.0 0.0906636933
C  C75  1  0.09890000  0.77960000  0.96650000  1.0 -0.3092285851
C  C76  1  0.01926000  0.77600000  0.03249000  1.0 -0.0605859011
C  C77  1  0.01926000  0.79690000  0.96747000  1.0 -0.0605859011
C  C78  1  0.22280000  0.72960000  0.83100000  1.0 0.1318313491
C  C79  1  0.19980000  0.72220000  0.86540000  1.0 0.0304496871
C  C80  1  0.16730000  0.70080000  0.86600000  1.0 -0.1567427203
C  C81  1  0.14660000  0.69770000  0.89890000  1.0 -0.0605859011
C  C82  1  0.15840000  0.71610000  0.93110000  1.0 0.0304496871
C  C83  1  0.19090000  0.73760000  0.93050000  1.0 -0.0521081324
C  C84  1  0.21170000  0.74060000  0.89760000  1.0 -0.0521081324
C  C85  1  0.13670000  0.70720000  0.96600000  1.0 0.0906636933
C  C86  1  0.09780000  0.70960000  0.96630000  1.0 -0.3092285851
C  C87  1  0.01925000  0.68830000  0.02970000  1.0 -0.0764627905
C  C88  1  0.01926000  0.72220000  0.97033000  1.0 -0.0866425537
C  C89  1  0.16950000  0.21910000  0.26570000  1.0 0.1087425476
C  C90  1  0.13450000  0.19930000  0.25160000  1.0 0.0188217886
C  C91  1  0.12930000  0.16320000  0.26530000  1.0 -0.0521081324
C  C92  1  0.09660000  0.14380000  0.25720000  1.0 -0.0866425537
C  C93  1  0.06890000  0.16050000  0.23530000  1.0 0.0467501279
C  C94  1  0.07410000  0.19660000  0.22160000  1.0 -0.1042917747
C  C95  1  0.10690000  0.21600000  0.22980000  1.0 -0.1117784683
C  C96  1  0.03410000  0.13720000  0.22780000  1.0 0.1023928158
C  C97  1  0.03350000  0.09890000  0.22040000  1.0 -0.3092285851
C  C98  1  0.96751000  0.01926000  0.22400000  1.0 -0.0605859011
C  C99  1  0.03253000  0.01926000  0.20310000  1.0 -0.0605859011
C  C100  1  0.16900000  0.22280000  0.27040000  1.0 0.1318313491
C  C101  1  0.13460000  0.19980000  0.27780000  1.0 0.0304496871
C  C102  1  0.13400000  0.16730000  0.29920000  1.0 -0.1567427203
C  C103  1  0.10110000  0.14660000  0.30230000  1.0 -0.0605859011
C  C104  1  0.06890000  0.15840000  0.28390000  1.0 0.0304496871
C  C105  1  0.06950000  0.19090000  0.26240000  1.0 -0.0521081324
C  C106  1  0.10240000  0.21170000  0.25940000  1.0 -0.0521081324
C  C107  1  0.03400000  0.13670000  0.29280000  1.0 0.0906636933
C  C108  1  0.03370000  0.09780000  0.29040000  1.0 -0.3092285851
C  C109  1  0.97030000  0.01925000  0.31170000  1.0 -0.0764627905
C  C110  1  0.02967000  0.01926000  0.27780000  1.0 -0.0866425537
C  C111  1  0.16950000  0.78090000  0.73430000  1.0 0.1195849991
C  C112  1  0.13450000  0.80070000  0.74840000  1.0 0.0188217886
C  C113  1  0.12930000  0.83680000  0.73470000  1.0 -0.0521081324
C  C114  1  0.09660000  0.85620000  0.74280000  1.0 -0.0866425537
C  C115  1  0.06890000  0.83950000  0.76470000  1.0 0.0467501279
C  C116  1  0.07410000  0.80340000  0.77840000  1.0 -0.1042917747
C  C117  1  0.10690000  0.78400000  0.77020000  1.0 -0.1117784683
C  C118  1  0.03410000  0.86280000  0.77220000  1.0 0.0906636933
C  C119  1  0.03350000  0.90110000  0.77960000  1.0 -0.3092285851
C  C120  1  0.96751000  0.98074000  0.77600000  1.0 -0.0605859011
C  C121  1  0.03253000  0.98074000  0.79690000  1.0 -0.0605859011
C  C122  1  0.16900000  0.77720000  0.72960000  1.0 0.1318313491
C  C123  1  0.13460000  0.80020000  0.72220000  1.0 0.0304496871
C  C124  1  0.13400000  0.83270000  0.70080000  1.0 -0.1567427203
C  C125  1  0.10110000  0.85340000  0.69770000  1.0 -0.0605859011
C  C126  1  0.06890000  0.84160000  0.71610000  1.0 0.0304496871
C  C127  1  0.06950000  0.80910000  0.73760000  1.0 -0.0521081324
C  C128  1  0.10240000  0.78830000  0.74060000  1.0 -0.0521081324
C  C129  1  0.03400000  0.86330000  0.70720000  1.0 0.0906636933
C  C130  1  0.03370000  0.90220000  0.70960000  1.0 -0.3044834439
C  C131  1  0.97030000  0.98075000  0.68830000  1.0 -0.0764627905
C  C132  1  0.02967000  0.98074000  0.72220000  1.0 -0.0866425537
C  C133  1  0.83050000  0.78090000  0.26570000  1.0 0.1195849991
C  C134  1  0.86550000  0.80070000  0.25160000  1.0 0.0188217886
C  C135  1  0.87070000  0.83680000  0.26530000  1.0 -0.0521081324
C  C136  1  0.90340000  0.85620000  0.25720000  1.0 -0.0866425537
C  C137  1  0.93110000  0.83950000  0.23530000  1.0 0.0467501279
C  C138  1  0.92590000  0.80340000  0.22160000  1.0 -0.1042917747
C  C139  1  0.89310000  0.78400000  0.22980000  1.0 -0.1117784683
C  C140  1  0.96590000  0.86280000  0.22780000  1.0 0.0906636933
C  C141  1  0.96650000  0.90110000  0.22040000  1.0 -0.3092285851
C  C142  1  0.03249000  0.98074000  0.22400000  1.0 -0.0605859011
C  C143  1  0.96747000  0.98074000  0.20310000  1.0 -0.0605859011
C  C144  1  0.83100000  0.77720000  0.27040000  1.0 0.1318313491
C  C145  1  0.86540000  0.80020000  0.27780000  1.0 0.0304496871
C  C146  1  0.86600000  0.83270000  0.29920000  1.0 -0.1567427203
C  C147  1  0.89890000  0.85340000  0.30230000  1.0 -0.0605859011
C  C148  1  0.93110000  0.84160000  0.28390000  1.0 0.0304496871
C  C149  1  0.93050000  0.80910000  0.26240000  1.0 -0.0521081324
C  C150  1  0.89760000  0.78830000  0.25940000  1.0 -0.0521081324
C  C151  1  0.96600000  0.86330000  0.29280000  1.0 0.0906636933
C  C152  1  0.96630000  0.90220000  0.29040000  1.0 -0.3092285851
C  C153  1  0.02970000  0.98075000  0.31170000  1.0 -0.0764627905
C  C154  1  0.97033000  0.98074000  0.27780000  1.0 -0.0866425537
C  C155  1  0.83050000  0.21910000  0.73430000  1.0 0.1195849991
C  C156  1  0.86550000  0.19930000  0.74840000  1.0 0.0188217886
C  C157  1  0.87070000  0.16320000  0.73470000  1.0 -0.0521081324
C  C158  1  0.90340000  0.14380000  0.74280000  1.0 -0.0866425537
C  C159  1  0.93110000  0.16050000  0.76470000  1.0 0.0467501279
C  C160  1  0.92590000  0.19660000  0.77840000  1.0 -0.1042917747
C  C161  1  0.89310000  0.21600000  0.77020000  1.0 -0.1117784683
C  C162  1  0.96590000  0.13720000  0.77220000  1.0 0.0906636933
C  C163  1  0.96650000  0.09890000  0.77960000  1.0 -0.3092285851
C  C164  1  0.03249000  0.01926000  0.77600000  1.0 -0.0605859011
C  C165  1  0.96747000  0.01926000  0.79690000  1.0 -0.0605859011
C  C166  1  0.83100000  0.22280000  0.72960000  1.0 0.1318313491
C  C167  1  0.86540000  0.19980000  0.72220000  1.0 0.0304496871
C  C168  1  0.86600000  0.16730000  0.70080000  1.0 -0.1567427203
C  C169  1  0.89890000  0.14660000  0.69770000  1.0 -0.0605859011
C  C170  1  0.93110000  0.15840000  0.71610000  1.0 0.0304496871
C  C171  1  0.93050000  0.19090000  0.73760000  1.0 -0.0521081324
C  C172  1  0.89760000  0.21170000  0.74060000  1.0 -0.0521081324
C  C173  1  0.96600000  0.13670000  0.70720000  1.0 0.0906636933
C  C174  1  0.96630000  0.09780000  0.70960000  1.0 -0.3092285851
C  C175  1  0.02970000  0.01925000  0.68830000  1.0 -0.0764627905
C  C176  1  0.97033000  0.01926000  0.72220000  1.0 -0.0866425537
C  C177  1  0.26570000  0.16950000  0.21910000  1.0 0.1087425476
C  C178  1  0.25160000  0.13450000  0.19930000  1.0 0.0188217886
C  C179  1  0.26530000  0.12930000  0.16320000  1.0 -0.0521081324
C  C180  1  0.25720000  0.09660000  0.14380000  1.0 -0.0866425537
C  C181  1  0.23530000  0.06890000  0.16050000  1.0 0.0467501279
C  C182  1  0.22160000  0.07410000  0.19660000  1.0 -0.1042917747
C  C183  1  0.22980000  0.10690000  0.21600000  1.0 -0.1117784683
C  C184  1  0.22780000  0.03410000  0.13720000  1.0 0.1023928158
C  C185  1  0.22040000  0.03350000  0.09890000  1.0 -0.3092285851
C  C186  1  0.22400000  0.96751000  0.01926000  1.0 -0.0605859011
C  C187  1  0.20310000  0.03253000  0.01926000  1.0 -0.0605859011
C  C188  1  0.27040000  0.16900000  0.22280000  1.0 0.1318313491
C  C189  1  0.27780000  0.13460000  0.19980000  1.0 0.0304496871
C  C190  1  0.29920000  0.13400000  0.16730000  1.0 -0.1567427203
C  C191  1  0.30230000  0.10110000  0.14660000  1.0 -0.0605859011
C  C192  1  0.28390000  0.06890000  0.15840000  1.0 0.0304496871
C  C193  1  0.26240000  0.06950000  0.19090000  1.0 -0.0521081324
C  C194  1  0.25940000  0.10240000  0.21170000  1.0 -0.0521081324
C  C195  1  0.29280000  0.03400000  0.13670000  1.0 0.0906636933
C  C196  1  0.29040000  0.03370000  0.09780000  1.0 -0.3092285851
C  C197  1  0.31170000  0.97030000  0.01925000  1.0 -0.0764627905
C  C198  1  0.27780000  0.02967000  0.01926000  1.0 -0.0866425537
C  C199  1  0.73430000  0.16950000  0.78090000  1.0 0.1195849991
C  C200  1  0.74840000  0.13450000  0.80070000  1.0 0.0188217886
C  C201  1  0.73470000  0.12930000  0.83680000  1.0 -0.0521081324
C  C202  1  0.74280000  0.09660000  0.85620000  1.0 -0.0866425537
C  C203  1  0.76470000  0.06890000  0.83950000  1.0 0.0467501279
C  C204  1  0.77840000  0.07410000  0.80340000  1.0 -0.1042917747
C  C205  1  0.77020000  0.10690000  0.78400000  1.0 -0.1117784683
C  C206  1  0.77220000  0.03410000  0.86280000  1.0 0.0906636933
C  C207  1  0.77960000  0.03350000  0.90110000  1.0 -0.3092285851
C  C208  1  0.77600000  0.96751000  0.98074000  1.0 -0.0605859011
C  C209  1  0.79690000  0.03253000  0.98074000  1.0 -0.0605859011
C  C210  1  0.72960000  0.16900000  0.77720000  1.0 0.1318313491
C  C211  1  0.72220000  0.13460000  0.80020000  1.0 0.0304496871
C  C212  1  0.70080000  0.13400000  0.83270000  1.0 -0.1567427203
C  C213  1  0.69770000  0.10110000  0.85340000  1.0 -0.0605859011
C  C214  1  0.71610000  0.06890000  0.84160000  1.0 0.0304496871
C  C215  1  0.73760000  0.06950000  0.80910000  1.0 -0.0521081324
C  C216  1  0.74060000  0.10240000  0.78830000  1.0 -0.0521081324
C  C217  1  0.70720000  0.03400000  0.86330000  1.0 0.0906636933
C  C218  1  0.70960000  0.03370000  0.90220000  1.0 -0.3092285851
C  C219  1  0.68830000  0.97030000  0.98075000  1.0 -0.0764627905
C  C220  1  0.72220000  0.02967000  0.98074000  1.0 -0.0866425537
C  C221  1  0.26570000  0.83050000  0.78090000  1.0 0.1195849991
C  C222  1  0.25160000  0.86550000  0.80070000  1.0 0.0188217886
C  C223  1  0.26530000  0.87070000  0.83680000  1.0 -0.0521081324
C  C224  1  0.25720000  0.90340000  0.85620000  1.0 -0.0866425537
C  C225  1  0.23530000  0.93110000  0.83950000  1.0 0.0467501279
C  C226  1  0.22160000  0.92590000  0.80340000  1.0 -0.1042917747
C  C227  1  0.22980000  0.89310000  0.78400000  1.0 -0.1117784683
C  C228  1  0.22780000  0.96590000  0.86280000  1.0 0.0906636933
C  C229  1  0.22040000  0.96650000  0.90110000  1.0 -0.3092285851
C  C230  1  0.22400000  0.03249000  0.98074000  1.0 -0.0605859011
C  C231  1  0.20310000  0.96747000  0.98074000  1.0 -0.0605859011
C  C232  1  0.27040000  0.83100000  0.77720000  1.0 0.1318313491
C  C233  1  0.27780000  0.86540000  0.80020000  1.0 0.0304496871
C  C234  1  0.29920000  0.86600000  0.83270000  1.0 -0.1567427203
C  C235  1  0.30230000  0.89890000  0.85340000  1.0 -0.0605859011
C  C236  1  0.28390000  0.93110000  0.84160000  1.0 0.0304496871
C  C237  1  0.26240000  0.93050000  0.80910000  1.0 -0.0521081324
C  C238  1  0.25940000  0.89760000  0.78830000  1.0 -0.0521081324
C  C239  1  0.29280000  0.96600000  0.86330000  1.0 0.0906636933
C  C240  1  0.29040000  0.96630000  0.90220000  1.0 -0.3092285851
C  C241  1  0.31170000  0.02970000  0.98075000  1.0 -0.0764627905
C  C242  1  0.27780000  0.97033000  0.98074000  1.0 -0.0866425537
C  C243  1  0.73430000  0.83050000  0.21910000  1.0 0.1195849991
C  C244  1  0.74840000  0.86550000  0.19930000  1.0 0.0188217886
C  C245  1  0.73470000  0.87070000  0.16320000  1.0 -0.0521081324
C  C246  1  0.74280000  0.90340000  0.14380000  1.0 -0.0866425537
C  C247  1  0.76470000  0.93110000  0.16050000  1.0 0.0467501279
C  C248  1  0.77840000  0.92590000  0.19660000  1.0 -0.1042917747
C  C249  1  0.77020000  0.89310000  0.21600000  1.0 -0.1117784683
C  C250  1  0.77220000  0.96590000  0.13720000  1.0 0.0906636933
C  C251  1  0.77960000  0.96650000  0.09890000  1.0 -0.3092285851
C  C252  1  0.77600000  0.03249000  0.01926000  1.0 -0.0605859011
C  C253  1  0.79690000  0.96747000  0.01926000  1.0 -0.0605859011
C  C254  1  0.72960000  0.83100000  0.22280000  1.0 0.1318313491
C  C255  1  0.72220000  0.86540000  0.19980000  1.0 0.0304496871
C  C256  1  0.70080000  0.86600000  0.16730000  1.0 -0.1567427203
C  C257  1  0.69770000  0.89890000  0.14660000  1.0 -0.0605859011
C  C258  1  0.71610000  0.93110000  0.15840000  1.0 0.0304496871
C  C259  1  0.73760000  0.93050000  0.19090000  1.0 -0.0521081324
C  C260  1  0.74060000  0.89760000  0.21170000  1.0 -0.0521081324
C  C261  1  0.70720000  0.96600000  0.13670000  1.0 0.0906636933
C  C262  1  0.70960000  0.96630000  0.09780000  1.0 -0.3044834439
C  C263  1  0.68830000  0.02970000  0.01925000  1.0 -0.0764627905
C  C264  1  0.72220000  0.97033000  0.01926000  1.0 -0.0866425537
C  C265  1  0.76570000  0.71910000  0.33050000  1.0 0.1195849991
C  C266  1  0.75160000  0.69930000  0.36550000  1.0 0.0188217886
C  C267  1  0.76530000  0.66320000  0.37070000  1.0 -0.0521081324
C  C268  1  0.75720000  0.64380000  0.40340000  1.0 -0.0866425537
C  C269  1  0.73530000  0.66050000  0.43110000  1.0 0.0467501279
C  C270  1  0.72160000  0.69660000  0.42590000  1.0 -0.1042917747
C  C271  1  0.72980000  0.71600000  0.39310000  1.0 -0.1117784683
C  C272  1  0.72780000  0.63720000  0.46590000  1.0 0.0906636933
C  C273  1  0.72040000  0.59890000  0.46650000  1.0 -0.3092285851
C  C274  1  0.72400000  0.51926000  0.53249000  1.0 -0.0605859011
C  C275  1  0.70310000  0.51926000  0.46747000  1.0 -0.0605859011
C  C276  1  0.77040000  0.72280000  0.33100000  1.0 0.1318313491
C  C277  1  0.77780000  0.69980000  0.36540000  1.0 0.0304496871
C  C278  1  0.79920000  0.66730000  0.36600000  1.0 -0.1567427203
C  C279  1  0.80230000  0.64660000  0.39890000  1.0 -0.0605859011
C  C280  1  0.78390000  0.65840000  0.43110000  1.0 0.0304496871
C  C281  1  0.76240000  0.69090000  0.43050000  1.0 -0.0521081324
C  C282  1  0.75940000  0.71170000  0.39760000  1.0 -0.0521081324
C  C283  1  0.79280000  0.63670000  0.46600000  1.0 0.0906636933
C  C284  1  0.79040000  0.59780000  0.46630000  1.0 -0.3044834439
C  C285  1  0.81170000  0.51925000  0.52970000  1.0 -0.0764627905
C  C286  1  0.77780000  0.51926000  0.47033000  1.0 -0.0866425537
C  C287  1  0.23430000  0.28090000  0.33050000  1.0 0.1087425476
C  C288  1  0.24840000  0.30070000  0.36550000  1.0 0.0188217886
C  C289  1  0.23470000  0.33680000  0.37070000  1.0 -0.0521081324
C  C290  1  0.24280000  0.35620000  0.40340000  1.0 -0.0866425537
C  C291  1  0.26470000  0.33950000  0.43110000  1.0 0.0467501279
C  C292  1  0.27840000  0.30340000  0.42590000  1.0 -0.1042917747
C  C293  1  0.27020000  0.28400000  0.39310000  1.0 -0.1117784683
C  C294  1  0.27220000  0.36280000  0.46590000  1.0 0.0906636933
C  C295  1  0.27960000  0.40110000  0.46650000  1.0 -0.3092285851
C  C296  1  0.27600000  0.48074000  0.53249000  1.0 -0.0605859011
C  C297  1  0.29690000  0.48074000  0.46747000  1.0 -0.0605859011
C  C298  1  0.22960000  0.27720000  0.33100000  1.0 0.1318313491
C  C299  1  0.22220000  0.30020000  0.36540000  1.0 0.0304496871
C  C300  1  0.20080000  0.33270000  0.36600000  1.0 -0.1567427203
C  C301  1  0.19770000  0.35340000  0.39890000  1.0 -0.0605859011
C  C302  1  0.21610000  0.34160000  0.43110000  1.0 0.0304496871
C  C303  1  0.23760000  0.30910000  0.43050000  1.0 -0.0521081324
C  C304  1  0.24060000  0.28830000  0.39760000  1.0 -0.0521081324
C  C305  1  0.20720000  0.36330000  0.46600000  1.0 0.0906636933
C  C306  1  0.20960000  0.40220000  0.46630000  1.0 -0.3092285851
C  C307  1  0.18830000  0.48075000  0.52970000  1.0 -0.0764627905
C  C308  1  0.22220000  0.48074000  0.47033000  1.0 -0.0866425537
C  C309  1  0.76570000  0.28090000  0.66950000  1.0 0.1195849991
C  C310  1  0.75160000  0.30070000  0.63450000  1.0 0.0188217886
C  C311  1  0.76530000  0.33680000  0.62930000  1.0 -0.0521081324
C  C312  1  0.75720000  0.35620000  0.59660000  1.0 -0.0866425537
C  C313  1  0.73530000  0.33950000  0.56890000  1.0 0.0467501279
C  C314  1  0.72160000  0.30340000  0.57410000  1.0 -0.1042917747
C  C315  1  0.72980000  0.28400000  0.60690000  1.0 -0.1117784683
C  C316  1  0.72780000  0.36280000  0.53410000  1.0 0.0906636933
C  C317  1  0.72040000  0.40110000  0.53350000  1.0 -0.3092285851
C  C318  1  0.72400000  0.48074000  0.46751000  1.0 -0.0605859011
C  C319  1  0.70310000  0.48074000  0.53253000  1.0 -0.0605859011
C  C320  1  0.77040000  0.27720000  0.66900000  1.0 0.1318313491
C  C321  1  0.77780000  0.30020000  0.63460000  1.0 0.0304496871
C  C322  1  0.79920000  0.33270000  0.63400000  1.0 -0.1567427203
C  C323  1  0.80230000  0.35340000  0.60110000  1.0 -0.0605859011
C  C324  1  0.78390000  0.34160000  0.56890000  1.0 0.0304496871
C  C325  1  0.76240000  0.30910000  0.56950000  1.0 -0.0521081324
C  C326  1  0.75940000  0.28830000  0.60240000  1.0 -0.0521081324
C  C327  1  0.79280000  0.36330000  0.53400000  1.0 0.0906636933
C  C328  1  0.79040000  0.40220000  0.53370000  1.0 -0.3092285851
C  C329  1  0.81170000  0.48075000  0.47030000  1.0 -0.0764627905
C  C330  1  0.77780000  0.48074000  0.52967000  1.0 -0.0866425537
C  C331  1  0.23430000  0.71910000  0.66950000  1.0 0.1087425476
C  C332  1  0.24840000  0.69930000  0.63450000  1.0 0.0188217886
C  C333  1  0.23470000  0.66320000  0.62930000  1.0 -0.0521081324
C  C334  1  0.24280000  0.64380000  0.59660000  1.0 -0.0866425537
C  C335  1  0.26470000  0.66050000  0.56890000  1.0 0.0467501279
C  C336  1  0.27840000  0.69660000  0.57410000  1.0 -0.1042917747
C  C337  1  0.27020000  0.71600000  0.60690000  1.0 -0.1117784683
C  C338  1  0.27220000  0.63720000  0.53410000  1.0 0.0906636933
C  C339  1  0.27960000  0.59890000  0.53350000  1.0 -0.3092285851
C  C340  1  0.27600000  0.51926000  0.46751000  1.0 -0.0605859011
C  C341  1  0.29690000  0.51926000  0.53253000  1.0 -0.0605859011
C  C342  1  0.22960000  0.72280000  0.66900000  1.0 0.1318313491
C  C343  1  0.22220000  0.69980000  0.63460000  1.0 0.0304496871
C  C344  1  0.20080000  0.66730000  0.63400000  1.0 -0.1567427203
C  C345  1  0.19770000  0.64660000  0.60110000  1.0 -0.0605859011
C  C346  1  0.21610000  0.65840000  0.56890000  1.0 0.0304496871
C  C347  1  0.23760000  0.69090000  0.56950000  1.0 -0.0521081324
C  C348  1  0.24060000  0.71170000  0.60240000  1.0 -0.0521081324
C  C349  1  0.20720000  0.63670000  0.53400000  1.0 0.0906636933
C  C350  1  0.20960000  0.59780000  0.53370000  1.0 -0.3092285851
C  C351  1  0.18830000  0.51925000  0.47030000  1.0 -0.0764627905
C  C352  1  0.22220000  0.51926000  0.52967000  1.0 -0.0866425537
C  C353  1  0.71910000  0.66950000  0.23430000  1.0 0.1195849991
C  C354  1  0.69930000  0.63450000  0.24840000  1.0 0.0188217886
C  C355  1  0.66320000  0.62930000  0.23470000  1.0 -0.0521081324
C  C356  1  0.64380000  0.59660000  0.24280000  1.0 -0.0866425537
C  C357  1  0.66050000  0.56890000  0.26470000  1.0 0.0467501279
C  C358  1  0.69660000  0.57410000  0.27840000  1.0 -0.1042917747
C  C359  1  0.71600000  0.60690000  0.27020000  1.0 -0.1117784683
C  C360  1  0.63720000  0.53410000  0.27220000  1.0 0.0906636933
C  C361  1  0.59890000  0.53350000  0.27960000  1.0 -0.3092285851
C  C362  1  0.51926000  0.46751000  0.27600000  1.0 -0.0605859011
C  C363  1  0.51926000  0.53253000  0.29690000  1.0 -0.0605859011
C  C364  1  0.72280000  0.66900000  0.22960000  1.0 0.1318313491
C  C365  1  0.69980000  0.63460000  0.22220000  1.0 0.0304496871
C  C366  1  0.66730000  0.63400000  0.20080000  1.0 -0.1567427203
C  C367  1  0.64660000  0.60110000  0.19770000  1.0 -0.0605859011
C  C368  1  0.65840000  0.56890000  0.21610000  1.0 0.0304496871
C  C369  1  0.69090000  0.56950000  0.23760000  1.0 -0.0521081324
C  C370  1  0.71170000  0.60240000  0.24060000  1.0 -0.0521081324
C  C371  1  0.63670000  0.53400000  0.20720000  1.0 0.0906636933
C  C372  1  0.59780000  0.53370000  0.20960000  1.0 -0.3092285851
C  C373  1  0.51925000  0.47030000  0.18830000  1.0 -0.0764627905
C  C374  1  0.51926000  0.52967000  0.22220000  1.0 -0.0866425537
C  C375  1  0.28090000  0.66950000  0.76570000  1.0 0.1195849991
C  C376  1  0.30070000  0.63450000  0.75160000  1.0 0.0188217886
C  C377  1  0.33680000  0.62930000  0.76530000  1.0 -0.0521081324
C  C378  1  0.35620000  0.59660000  0.75720000  1.0 -0.0866425537
C  C379  1  0.33950000  0.56890000  0.73530000  1.0 0.0467501279
C  C380  1  0.30340000  0.57410000  0.72160000  1.0 -0.1042917747
C  C381  1  0.28400000  0.60690000  0.72980000  1.0 -0.1117784683
C  C382  1  0.36280000  0.53410000  0.72780000  1.0 0.0906636933
C  C383  1  0.40110000  0.53350000  0.72040000  1.0 -0.3092285851
C  C384  1  0.48074000  0.46751000  0.72400000  1.0 -0.0605859011
C  C385  1  0.48074000  0.53253000  0.70310000  1.0 -0.0605859011
C  C386  1  0.27720000  0.66900000  0.77040000  1.0 0.1318313491
C  C387  1  0.30020000  0.63460000  0.77780000  1.0 0.0304496871
C  C388  1  0.33270000  0.63400000  0.79920000  1.0 -0.1567427203
C  C389  1  0.35340000  0.60110000  0.80230000  1.0 -0.0605859011
C  C390  1  0.34160000  0.56890000  0.78390000  1.0 0.0304496871
C  C391  1  0.30910000  0.56950000  0.76240000  1.0 -0.0521081324
C  C392  1  0.28830000  0.60240000  0.75940000  1.0 -0.0521081324
C  C393  1  0.36330000  0.53400000  0.79280000  1.0 0.0906636933
C  C394  1  0.40220000  0.53370000  0.79040000  1.0 -0.3092285851
C  C395  1  0.48075000  0.47030000  0.81170000  1.0 -0.0764627905
C  C396  1  0.48074000  0.52967000  0.77780000  1.0 -0.0866425537
C  C397  1  0.28090000  0.33050000  0.23430000  1.0 0.1087425476
C  C398  1  0.30070000  0.36550000  0.24840000  1.0 0.0188217886
C  C399  1  0.33680000  0.37070000  0.23470000  1.0 -0.0521081324
C  C400  1  0.35620000  0.40340000  0.24280000  1.0 -0.0866425537
C  C401  1  0.33950000  0.43110000  0.26470000  1.0 0.0467501279
C  C402  1  0.30340000  0.42590000  0.27840000  1.0 -0.1042917747
C  C403  1  0.28400000  0.39310000  0.27020000  1.0 -0.1117784683
C  C404  1  0.36280000  0.46590000  0.27220000  1.0 0.0906636933
C  C405  1  0.40110000  0.46650000  0.27960000  1.0 -0.3092285851
C  C406  1  0.48074000  0.53249000  0.27600000  1.0 -0.0605859011
C  C407  1  0.48074000  0.46747000  0.29690000  1.0 -0.0605859011
C  C408  1  0.27720000  0.33100000  0.22960000  1.0 0.1318313491
C  C409  1  0.30020000  0.36540000  0.22220000  1.0 0.0304496871
C  C410  1  0.33270000  0.36600000  0.20080000  1.0 -0.1567427203
C  C411  1  0.35340000  0.39890000  0.19770000  1.0 -0.0605859011
C  C412  1  0.34160000  0.43110000  0.21610000  1.0 0.0304496871
C  C413  1  0.30910000  0.43050000  0.23760000  1.0 -0.0521081324
C  C414  1  0.28830000  0.39760000  0.24060000  1.0 -0.0521081324
C  C415  1  0.36330000  0.46600000  0.20720000  1.0 0.0906636933
C  C416  1  0.40220000  0.46630000  0.20960000  1.0 -0.3092285851
C  C417  1  0.48075000  0.52970000  0.18830000  1.0 -0.0764627905
C  C418  1  0.48074000  0.47033000  0.22220000  1.0 -0.0866425537
C  C419  1  0.71910000  0.33050000  0.76570000  1.0 0.1195849991
C  C420  1  0.69930000  0.36550000  0.75160000  1.0 0.0188217886
C  C421  1  0.66320000  0.37070000  0.76530000  1.0 -0.0521081324
C  C422  1  0.64380000  0.40340000  0.75720000  1.0 -0.0866425537
C  C423  1  0.66050000  0.43110000  0.73530000  1.0 0.0467501279
C  C424  1  0.69660000  0.42590000  0.72160000  1.0 -0.1042917747
C  C425  1  0.71600000  0.39310000  0.72980000  1.0 -0.1117784683
C  C426  1  0.63720000  0.46590000  0.72780000  1.0 0.0906636933
C  C427  1  0.59890000  0.46650000  0.72040000  1.0 -0.3092285851
C  C428  1  0.51926000  0.53249000  0.72400000  1.0 -0.0605859011
C  C429  1  0.51926000  0.46747000  0.70310000  1.0 -0.0605859011
C  C430  1  0.72280000  0.33100000  0.77040000  1.0 0.1318313491
C  C431  1  0.69980000  0.36540000  0.77780000  1.0 0.0304496871
C  C432  1  0.66730000  0.36600000  0.79920000  1.0 -0.1567427203
C  C433  1  0.64660000  0.39890000  0.80230000  1.0 -0.0605859011
C  C434  1  0.65840000  0.43110000  0.78390000  1.0 0.0304496871
C  C435  1  0.69090000  0.43050000  0.76240000  1.0 -0.0521081324
C  C436  1  0.71170000  0.39760000  0.75940000  1.0 -0.0521081324
C  C437  1  0.63670000  0.46600000  0.79280000  1.0 0.0906636933
C  C438  1  0.59780000  0.46630000  0.79040000  1.0 -0.3092285851
C  C439  1  0.51925000  0.52970000  0.81170000  1.0 -0.0764627905
C  C440  1  0.51926000  0.47033000  0.77780000  1.0 -0.0866425537
C  C441  1  0.66950000  0.76570000  0.28090000  1.0 0.1195849991
C  C442  1  0.63450000  0.75160000  0.30070000  1.0 0.0188217886
C  C443  1  0.62930000  0.76530000  0.33680000  1.0 -0.0521081324
C  C444  1  0.59660000  0.75720000  0.35620000  1.0 -0.0866425537
C  C445  1  0.56890000  0.73530000  0.33950000  1.0 0.0467501279
C  C446  1  0.57410000  0.72160000  0.30340000  1.0 -0.1042917747
C  C447  1  0.60690000  0.72980000  0.28400000  1.0 -0.1117784683
C  C448  1  0.53410000  0.72780000  0.36280000  1.0 0.0906636933
C  C449  1  0.53350000  0.72040000  0.40110000  1.0 -0.3092285851
C  C450  1  0.46751000  0.72400000  0.48074000  1.0 -0.0605859011
C  C451  1  0.53253000  0.70310000  0.48074000  1.0 -0.0605859011
C  C452  1  0.66900000  0.77040000  0.27720000  1.0 0.1318313491
C  C453  1  0.63460000  0.77780000  0.30020000  1.0 0.0304496871
C  C454  1  0.63400000  0.79920000  0.33270000  1.0 -0.1567427203
C  C455  1  0.60110000  0.80230000  0.35340000  1.0 -0.0605859011
C  C456  1  0.56890000  0.78390000  0.34160000  1.0 0.0304496871
C  C457  1  0.56950000  0.76240000  0.30910000  1.0 -0.0521081324
C  C458  1  0.60240000  0.75940000  0.28830000  1.0 -0.0521081324
C  C459  1  0.53400000  0.79280000  0.36330000  1.0 0.0906636933
C  C460  1  0.53370000  0.79040000  0.40220000  1.0 -0.3044834439
C  C461  1  0.47030000  0.81170000  0.48075000  1.0 -0.0764627905
C  C462  1  0.52967000  0.77780000  0.48074000  1.0 -0.0866425537
C  C463  1  0.66950000  0.23430000  0.71910000  1.0 0.1195849991
C  C464  1  0.63450000  0.24840000  0.69930000  1.0 0.0188217886
C  C465  1  0.62930000  0.23470000  0.66320000  1.0 -0.0521081324
C  C466  1  0.59660000  0.24280000  0.64380000  1.0 -0.0866425537
C  C467  1  0.56890000  0.26470000  0.66050000  1.0 0.0467501279
C  C468  1  0.57410000  0.27840000  0.69660000  1.0 -0.1042917747
C  C469  1  0.60690000  0.27020000  0.71600000  1.0 -0.1117784683
C  C470  1  0.53410000  0.27220000  0.63720000  1.0 0.0906636933
C  C471  1  0.53350000  0.27960000  0.59890000  1.0 -0.3092285851
C  C472  1  0.46751000  0.27600000  0.51926000  1.0 -0.0605859011
C  C473  1  0.53253000  0.29690000  0.51926000  1.0 -0.0605859011
C  C474  1  0.66900000  0.22960000  0.72280000  1.0 0.1318313491
C  C475  1  0.63460000  0.22220000  0.69980000  1.0 0.0304496871
C  C476  1  0.63400000  0.20080000  0.66730000  1.0 -0.1567427203
C  C477  1  0.60110000  0.19770000  0.64660000  1.0 -0.0605859011
C  C478  1  0.56890000  0.21610000  0.65840000  1.0 0.0304496871
C  C479  1  0.56950000  0.23760000  0.69090000  1.0 -0.0521081324
C  C480  1  0.60240000  0.24060000  0.71170000  1.0 -0.0521081324
C  C481  1  0.53400000  0.20720000  0.63670000  1.0 0.0906636933
C  C482  1  0.53370000  0.20960000  0.59780000  1.0 -0.3092285851
C  C483  1  0.47030000  0.18830000  0.51925000  1.0 -0.0764627905
C  C484  1  0.52967000  0.22220000  0.51926000  1.0 -0.0866425537
C  C485  1  0.33050000  0.76570000  0.71910000  1.0 0.1195849991
C  C486  1  0.36550000  0.75160000  0.69930000  1.0 0.0188217886
C  C487  1  0.37070000  0.76530000  0.66320000  1.0 -0.0521081324
C  C488  1  0.40340000  0.75720000  0.64380000  1.0 -0.0866425537
C  C489  1  0.43110000  0.73530000  0.66050000  1.0 0.0467501279
C  C490  1  0.42590000  0.72160000  0.69660000  1.0 -0.1042917747
C  C491  1  0.39310000  0.72980000  0.71600000  1.0 -0.1117784683
C  C492  1  0.46590000  0.72780000  0.63720000  1.0 0.0906636933
C  C493  1  0.46650000  0.72040000  0.59890000  1.0 -0.3092285851
C  C494  1  0.53249000  0.72400000  0.51926000  1.0 -0.0605859011
C  C495  1  0.46747000  0.70310000  0.51926000  1.0 -0.0605859011
C  C496  1  0.33100000  0.77040000  0.72280000  1.0 0.1318313491
C  C497  1  0.36540000  0.77780000  0.69980000  1.0 0.0304496871
C  C498  1  0.36600000  0.79920000  0.66730000  1.0 -0.1567427203
C  C499  1  0.39890000  0.80230000  0.64660000  1.0 -0.0605859011
C  C500  1  0.43110000  0.78390000  0.65840000  1.0 0.0304496871
C  C501  1  0.43050000  0.76240000  0.69090000  1.0 -0.0521081324
C  C502  1  0.39760000  0.75940000  0.71170000  1.0 -0.0521081324
C  C503  1  0.46600000  0.79280000  0.63670000  1.0 0.0906636933
C  C504  1  0.46630000  0.79040000  0.59780000  1.0 -0.3092285851
C  C505  1  0.52970000  0.81170000  0.51925000  1.0 -0.0764627905
C  C506  1  0.47033000  0.77780000  0.51926000  1.0 -0.0866425537
C  C507  1  0.33050000  0.23430000  0.28090000  1.0 0.1087425476
C  C508  1  0.36550000  0.24840000  0.30070000  1.0 0.0188217886
C  C509  1  0.37070000  0.23470000  0.33680000  1.0 -0.0521081324
C  C510  1  0.40340000  0.24280000  0.35620000  1.0 -0.0866425537
C  C511  1  0.43110000  0.26470000  0.33950000  1.0 0.0467501279
C  C512  1  0.42590000  0.27840000  0.30340000  1.0 -0.1042917747
C  C513  1  0.39310000  0.27020000  0.28400000  1.0 -0.1117784683
C  C514  1  0.46590000  0.27220000  0.36280000  1.0 0.0906636933
C  C515  1  0.46650000  0.27960000  0.40110000  1.0 -0.3092285851
C  C516  1  0.53249000  0.27600000  0.48074000  1.0 -0.0605859011
C  C517  1  0.46747000  0.29690000  0.48074000  1.0 -0.0605859011
C  C518  1  0.33100000  0.22960000  0.27720000  1.0 0.1318313491
C  C519  1  0.36540000  0.22220000  0.30020000  1.0 0.0304496871
C  C520  1  0.36600000  0.20080000  0.33270000  1.0 -0.1567427203
C  C521  1  0.39890000  0.19770000  0.35340000  1.0 -0.0605859011
C  C522  1  0.43110000  0.21610000  0.34160000  1.0 0.0304496871
C  C523  1  0.43050000  0.23760000  0.30910000  1.0 -0.0521081324
C  C524  1  0.39760000  0.24060000  0.28830000  1.0 -0.0521081324
C  C525  1  0.46600000  0.20720000  0.36330000  1.0 0.0906636933
C  C526  1  0.46630000  0.20960000  0.40220000  1.0 -0.3092285851
C  C527  1  0.52970000  0.18830000  0.48075000  1.0 -0.0764627905
C  C528  1  0.47033000  0.22220000  0.48074000  1.0 -0.0866425537
C  C529  1  0.78090000  0.73430000  0.83050000  1.0 0.1195849991
C  C530  1  0.80070000  0.74840000  0.86550000  1.0 0.0188217886
C  C531  1  0.83680000  0.73470000  0.87070000  1.0 -0.0521081324
C  C532  1  0.85620000  0.74280000  0.90340000  1.0 -0.0866425537
C  C533  1  0.83950000  0.76470000  0.93110000  1.0 0.0467501279
C  C534  1  0.80340000  0.77840000  0.92590000  1.0 -0.1042917747
C  C535  1  0.78400000  0.77020000  0.89310000  1.0 -0.1117784683
C  C536  1  0.86280000  0.77220000  0.96590000  1.0 0.0906636933
C  C537  1  0.90110000  0.77960000  0.96650000  1.0 -0.3092285851
C  C538  1  0.98074000  0.77600000  0.03249000  1.0 -0.0605859011
C  C539  1  0.98074000  0.79690000  0.96747000  1.0 -0.0605859011
C  C540  1  0.77720000  0.72960000  0.83100000  1.0 0.1318313491
C  C541  1  0.80020000  0.72220000  0.86540000  1.0 0.0304496871
C  C542  1  0.83270000  0.70080000  0.86600000  1.0 -0.1567427203
C  C543  1  0.85340000  0.69770000  0.89890000  1.0 -0.0605859011
C  C544  1  0.84160000  0.71610000  0.93110000  1.0 0.0304496871
C  C545  1  0.80910000  0.73760000  0.93050000  1.0 -0.0521081324
C  C546  1  0.78830000  0.74060000  0.89760000  1.0 -0.0521081324
C  C547  1  0.86330000  0.70720000  0.96600000  1.0 0.0906636933
C  C548  1  0.90220000  0.70960000  0.96630000  1.0 -0.3092285851
C  C549  1  0.98075000  0.68830000  0.02970000  1.0 -0.0764627905
C  C550  1  0.98074000  0.72220000  0.97033000  1.0 -0.0866425537
C  C551  1  0.21910000  0.26570000  0.83050000  1.0 0.1195849991
C  C552  1  0.19930000  0.25160000  0.86550000  1.0 0.0188217886
C  C553  1  0.16320000  0.26530000  0.87070000  1.0 -0.0521081324
C  C554  1  0.14380000  0.25720000  0.90340000  1.0 -0.0866425537
C  C555  1  0.16050000  0.23530000  0.93110000  1.0 0.0467501279
C  C556  1  0.19660000  0.22160000  0.92590000  1.0 -0.1042917747
C  C557  1  0.21600000  0.22980000  0.89310000  1.0 -0.1117784683
C  C558  1  0.13720000  0.22780000  0.96590000  1.0 0.0906636933
C  C559  1  0.09890000  0.22040000  0.96650000  1.0 -0.3092285851
C  C560  1  0.01926000  0.22400000  0.03249000  1.0 -0.0605859011
C  C561  1  0.01926000  0.20310000  0.96747000  1.0 -0.0605859011
C  C562  1  0.22280000  0.27040000  0.83100000  1.0 0.1318313491
C  C563  1  0.19980000  0.27780000  0.86540000  1.0 0.0304496871
C  C564  1  0.16730000  0.29920000  0.86600000  1.0 -0.1567427203
C  C565  1  0.14660000  0.30230000  0.89890000  1.0 -0.0605859011
C  C566  1  0.15840000  0.28390000  0.93110000  1.0 0.0304496871
C  C567  1  0.19090000  0.26240000  0.93050000  1.0 -0.0521081324
C  C568  1  0.21170000  0.25940000  0.89760000  1.0 -0.0521081324
C  C569  1  0.13670000  0.29280000  0.96600000  1.0 0.0906636933
C  C570  1  0.09780000  0.29040000  0.96630000  1.0 -0.3092285851
C  C571  1  0.01925000  0.31170000  0.02970000  1.0 -0.0764627905
C  C572  1  0.01926000  0.27780000  0.97033000  1.0 -0.0866425537
C  C573  1  0.21910000  0.73430000  0.16950000  1.0 0.1087425476
C  C574  1  0.19930000  0.74840000  0.13450000  1.0 0.0188217886
C  C575  1  0.16320000  0.73470000  0.12930000  1.0 -0.0521081324
C  C576  1  0.14380000  0.74280000  0.09660000  1.0 -0.0866425537
C  C577  1  0.16050000  0.76470000  0.06890000  1.0 0.0467501279
C  C578  1  0.19660000  0.77840000  0.07410000  1.0 -0.1042917747
C  C579  1  0.21600000  0.77020000  0.10690000  1.0 -0.1117784683
C  C580  1  0.13720000  0.77220000  0.03410000  1.0 0.0906636933
C  C581  1  0.09890000  0.77960000  0.03350000  1.0 -0.3092285851
C  C582  1  0.01926000  0.77600000  0.96751000  1.0 -0.0605859011
C  C583  1  0.01926000  0.79690000  0.03253000  1.0 -0.0605859011
C  C584  1  0.22280000  0.72960000  0.16900000  1.0 0.1318313491
C  C585  1  0.19980000  0.72220000  0.13460000  1.0 0.0304496871
C  C586  1  0.16730000  0.70080000  0.13400000  1.0 -0.1567427203
C  C587  1  0.14660000  0.69770000  0.10110000  1.0 -0.0605859011
C  C588  1  0.15840000  0.71610000  0.06890000  1.0 0.0304496871
C  C589  1  0.19090000  0.73760000  0.06950000  1.0 -0.0521081324
C  C590  1  0.21170000  0.74060000  0.10240000  1.0 -0.0521081324
C  C591  1  0.13670000  0.70720000  0.03400000  1.0 0.0906636933
C  C592  1  0.09780000  0.70960000  0.03370000  1.0 -0.3092285851
C  C593  1  0.01925000  0.68830000  0.97030000  1.0 -0.0764627905
C  C594  1  0.01926000  0.72220000  0.02967000  1.0 -0.0866425537
C  C595  1  0.78090000  0.26570000  0.16950000  1.0 0.1195849991
C  C596  1  0.80070000  0.25160000  0.13450000  1.0 0.0188217886
C  C597  1  0.83680000  0.26530000  0.12930000  1.0 -0.0521081324
C  C598  1  0.85620000  0.25720000  0.09660000  1.0 -0.0866425537
C  C599  1  0.83950000  0.23530000  0.06890000  1.0 0.0467501279
C  C600  1  0.80340000  0.22160000  0.07410000  1.0 -0.1042917747
C  C601  1  0.78400000  0.22980000  0.10690000  1.0 -0.1117784683
C  C602  1  0.86280000  0.22780000  0.03410000  1.0 0.0906636933
C  C603  1  0.90110000  0.22040000  0.03350000  1.0 -0.3092285851
C  C604  1  0.98074000  0.22400000  0.96751000  1.0 -0.0605859011
C  C605  1  0.98074000  0.20310000  0.03253000  1.0 -0.0605859011
C  C606  1  0.77720000  0.27040000  0.16900000  1.0 0.1318313491
C  C607  1  0.80020000  0.27780000  0.13460000  1.0 0.0304496871
C  C608  1  0.83270000  0.29920000  0.13400000  1.0 -0.1567427203
C  C609  1  0.85340000  0.30230000  0.10110000  1.0 -0.0605859011
C  C610  1  0.84160000  0.28390000  0.06890000  1.0 0.0304496871
C  C611  1  0.80910000  0.26240000  0.06950000  1.0 -0.0521081324
C  C612  1  0.78830000  0.25940000  0.10240000  1.0 -0.0521081324
C  C613  1  0.86330000  0.29280000  0.03400000  1.0 0.0906636933
C  C614  1  0.90220000  0.29040000  0.03370000  1.0 -0.3092285851
C  C615  1  0.98075000  0.31170000  0.97030000  1.0 -0.0764627905
C  C616  1  0.98074000  0.27780000  0.02967000  1.0 -0.0866425537
C  C617  1  0.83050000  0.78090000  0.73430000  1.0 0.1195849991
C  C618  1  0.86550000  0.80070000  0.74840000  1.0 0.0188217886
C  C619  1  0.87070000  0.83680000  0.73470000  1.0 -0.0521081324
C  C620  1  0.90340000  0.85620000  0.74280000  1.0 -0.0866425537
C  C621  1  0.93110000  0.83950000  0.76470000  1.0 0.0467501279
C  C622  1  0.92590000  0.80340000  0.77840000  1.0 -0.1042917747
C  C623  1  0.89310000  0.78400000  0.77020000  1.0 -0.1117784683
C  C624  1  0.96590000  0.86280000  0.77220000  1.0 0.0906636933
C  C625  1  0.96650000  0.90110000  0.77960000  1.0 -0.3092285851
C  C626  1  0.03249000  0.98074000  0.77600000  1.0 -0.0605859011
C  C627  1  0.96747000  0.98074000  0.79690000  1.0 -0.0605859011
C  C628  1  0.83100000  0.77720000  0.72960000  1.0 0.1318313491
C  C629  1  0.86540000  0.80020000  0.72220000  1.0 0.0304496871
C  C630  1  0.86600000  0.83270000  0.70080000  1.0 -0.1567427203
C  C631  1  0.89890000  0.85340000  0.69770000  1.0 -0.0605859011
C  C632  1  0.93110000  0.84160000  0.71610000  1.0 0.0304496871
C  C633  1  0.93050000  0.80910000  0.73760000  1.0 -0.0521081324
C  C634  1  0.89760000  0.78830000  0.74060000  1.0 -0.0521081324
C  C635  1  0.96600000  0.86330000  0.70720000  1.0 0.0906636933
C  C636  1  0.96630000  0.90220000  0.70960000  1.0 -0.3044834439
C  C637  1  0.02970000  0.98075000  0.68830000  1.0 -0.0764627905
C  C638  1  0.97033000  0.98074000  0.72220000  1.0 -0.0866425537
C  C639  1  0.83050000  0.21910000  0.26570000  1.0 0.1195849991
C  C640  1  0.86550000  0.19930000  0.25160000  1.0 0.0188217886
C  C641  1  0.87070000  0.16320000  0.26530000  1.0 -0.0521081324
C  C642  1  0.90340000  0.14380000  0.25720000  1.0 -0.0866425537
C  C643  1  0.93110000  0.16050000  0.23530000  1.0 0.0467501279
C  C644  1  0.92590000  0.19660000  0.22160000  1.0 -0.1042917747
C  C645  1  0.89310000  0.21600000  0.22980000  1.0 -0.1117784683
C  C646  1  0.96590000  0.13720000  0.22780000  1.0 0.0906636933
C  C647  1  0.96650000  0.09890000  0.22040000  1.0 -0.3092285851
C  C648  1  0.03249000  0.01926000  0.22400000  1.0 -0.0605859011
C  C649  1  0.96747000  0.01926000  0.20310000  1.0 -0.0605859011
C  C650  1  0.83100000  0.22280000  0.27040000  1.0 0.1318313491
C  C651  1  0.86540000  0.19980000  0.27780000  1.0 0.0304496871
C  C652  1  0.86600000  0.16730000  0.29920000  1.0 -0.1567427203
C  C653  1  0.89890000  0.14660000  0.30230000  1.0 -0.0605859011
C  C654  1  0.93110000  0.15840000  0.28390000  1.0 0.0304496871
C  C655  1  0.93050000  0.19090000  0.26240000  1.0 -0.0521081324
C  C656  1  0.89760000  0.21170000  0.25940000  1.0 -0.0521081324
C  C657  1  0.96600000  0.13670000  0.29280000  1.0 0.0906636933
C  C658  1  0.96630000  0.09780000  0.29040000  1.0 -0.3092285851
C  C659  1  0.02970000  0.01925000  0.31170000  1.0 -0.0764627905
C  C660  1  0.97033000  0.01926000  0.27780000  1.0 -0.0866425537
C  C661  1  0.16950000  0.21910000  0.73430000  1.0 0.1087425476
C  C662  1  0.13450000  0.19930000  0.74840000  1.0 0.0188217886
C  C663  1  0.12930000  0.16320000  0.73470000  1.0 -0.0521081324
C  C664  1  0.09660000  0.14380000  0.74280000  1.0 -0.0866425537
C  C665  1  0.06890000  0.16050000  0.76470000  1.0 0.0467501279
C  C666  1  0.07410000  0.19660000  0.77840000  1.0 -0.1042917747
C  C667  1  0.10690000  0.21600000  0.77020000  1.0 -0.1117784683
C  C668  1  0.03410000  0.13720000  0.77220000  1.0 0.0906636933
C  C669  1  0.03350000  0.09890000  0.77960000  1.0 -0.3092285851
C  C670  1  0.96751000  0.01926000  0.77600000  1.0 -0.0605859011
C  C671  1  0.03253000  0.01926000  0.79690000  1.0 -0.0605859011
C  C672  1  0.16900000  0.22280000  0.72960000  1.0 0.1318313491
C  C673  1  0.13460000  0.19980000  0.72220000  1.0 0.0304496871
C  C674  1  0.13400000  0.16730000  0.70080000  1.0 -0.1567427203
C  C675  1  0.10110000  0.14660000  0.69770000  1.0 -0.0605859011
C  C676  1  0.06890000  0.15840000  0.71610000  1.0 0.0304496871
C  C677  1  0.06950000  0.19090000  0.73760000  1.0 -0.0521081324
C  C678  1  0.10240000  0.21170000  0.74060000  1.0 -0.0521081324
C  C679  1  0.03400000  0.13670000  0.70720000  1.0 0.0906636933
C  C680  1  0.03370000  0.09780000  0.70960000  1.0 -0.3092285851
C  C681  1  0.97030000  0.01925000  0.68830000  1.0 -0.0764627905
C  C682  1  0.02967000  0.01926000  0.72220000  1.0 -0.0866425537
C  C683  1  0.16950000  0.78090000  0.26570000  1.0 0.1087425476
C  C684  1  0.13450000  0.80070000  0.25160000  1.0 0.0188217886
C  C685  1  0.12930000  0.83680000  0.26530000  1.0 -0.0521081324
C  C686  1  0.09660000  0.85620000  0.25720000  1.0 -0.0866425537
C  C687  1  0.06890000  0.83950000  0.23530000  1.0 0.0467501279
C  C688  1  0.07410000  0.80340000  0.22160000  1.0 -0.1042917747
C  C689  1  0.10690000  0.78400000  0.22980000  1.0 -0.1117784683
C  C690  1  0.03410000  0.86280000  0.22780000  1.0 0.0906636933
C  C691  1  0.03350000  0.90110000  0.22040000  1.0 -0.3092285851
C  C692  1  0.96751000  0.98074000  0.22400000  1.0 -0.0605859011
C  C693  1  0.03253000  0.98074000  0.20310000  1.0 -0.0605859011
C  C694  1  0.16900000  0.77720000  0.27040000  1.0 0.1318313491
C  C695  1  0.13460000  0.80020000  0.27780000  1.0 0.0304496871
C  C696  1  0.13400000  0.83270000  0.29920000  1.0 -0.1567427203
C  C697  1  0.10110000  0.85340000  0.30230000  1.0 -0.0605859011
C  C698  1  0.06890000  0.84160000  0.28390000  1.0 0.0304496871
C  C699  1  0.06950000  0.80910000  0.26240000  1.0 -0.0521081324
C  C700  1  0.10240000  0.78830000  0.25940000  1.0 -0.0521081324
C  C701  1  0.03400000  0.86330000  0.29280000  1.0 0.0906636933
C  C702  1  0.03370000  0.90220000  0.29040000  1.0 -0.3092285851
C  C703  1  0.97030000  0.98075000  0.31170000  1.0 -0.0764627905
C  C704  1  0.02967000  0.98074000  0.27780000  1.0 -0.0866425537
C  C705  1  0.73430000  0.83050000  0.78090000  1.0 0.1195849991
C  C706  1  0.74840000  0.86550000  0.80070000  1.0 0.0188217886
C  C707  1  0.73470000  0.87070000  0.83680000  1.0 -0.0521081324
C  C708  1  0.74280000  0.90340000  0.85620000  1.0 -0.0866425537
C  C709  1  0.76470000  0.93110000  0.83950000  1.0 0.0467501279
C  C710  1  0.77840000  0.92590000  0.80340000  1.0 -0.1042917747
C  C711  1  0.77020000  0.89310000  0.78400000  1.0 -0.1117784683
C  C712  1  0.77220000  0.96590000  0.86280000  1.0 0.0906636933
C  C713  1  0.77960000  0.96650000  0.90110000  1.0 -0.3092285851
C  C714  1  0.77600000  0.03249000  0.98074000  1.0 -0.0605859011
C  C715  1  0.79690000  0.96747000  0.98074000  1.0 -0.0605859011
C  C716  1  0.72960000  0.83100000  0.77720000  1.0 0.1318313491
C  C717  1  0.72220000  0.86540000  0.80020000  1.0 0.0304496871
C  C718  1  0.70080000  0.86600000  0.83270000  1.0 -0.1567427203
C  C719  1  0.69770000  0.89890000  0.85340000  1.0 -0.0605859011
C  C720  1  0.71610000  0.93110000  0.84160000  1.0 0.0304496871
C  C721  1  0.73760000  0.93050000  0.80910000  1.0 -0.0521081324
C  C722  1  0.74060000  0.89760000  0.78830000  1.0 -0.0521081324
C  C723  1  0.70720000  0.96600000  0.86330000  1.0 0.0906636933
C  C724  1  0.70960000  0.96630000  0.90220000  1.0 -0.3044834439
C  C725  1  0.68830000  0.02970000  0.98075000  1.0 -0.0764627905
C  C726  1  0.72220000  0.97033000  0.98074000  1.0 -0.0866425537
C  C727  1  0.26570000  0.83050000  0.21910000  1.0 0.1087425476
C  C728  1  0.25160000  0.86550000  0.19930000  1.0 0.0188217886
C  C729  1  0.26530000  0.87070000  0.16320000  1.0 -0.0521081324
C  C730  1  0.25720000  0.90340000  0.14380000  1.0 -0.0866425537
C  C731  1  0.23530000  0.93110000  0.16050000  1.0 0.0467501279
C  C732  1  0.22160000  0.92590000  0.19660000  1.0 -0.1042917747
C  C733  1  0.22980000  0.89310000  0.21600000  1.0 -0.1117784683
C  C734  1  0.22780000  0.96590000  0.13720000  1.0 0.0906636933
C  C735  1  0.22040000  0.96650000  0.09890000  1.0 -0.3092285851
C  C736  1  0.22400000  0.03249000  0.01926000  1.0 -0.0605859011
C  C737  1  0.20310000  0.96747000  0.01926000  1.0 -0.0605859011
C  C738  1  0.27040000  0.83100000  0.22280000  1.0 0.1318313491
C  C739  1  0.27780000  0.86540000  0.19980000  1.0 0.0304496871
C  C740  1  0.29920000  0.86600000  0.16730000  1.0 -0.1567427203
C  C741  1  0.30230000  0.89890000  0.14660000  1.0 -0.0605859011
C  C742  1  0.28390000  0.93110000  0.15840000  1.0 0.0304496871
C  C743  1  0.26240000  0.93050000  0.19090000  1.0 -0.0521081324
C  C744  1  0.25940000  0.89760000  0.21170000  1.0 -0.0521081324
C  C745  1  0.29280000  0.96600000  0.13670000  1.0 0.0906636933
C  C746  1  0.29040000  0.96630000  0.09780000  1.0 -0.3092285851
C  C747  1  0.31170000  0.02970000  0.01925000  1.0 -0.0764627905
C  C748  1  0.27780000  0.97033000  0.01926000  1.0 -0.0866425537
C  C749  1  0.73430000  0.16950000  0.21910000  1.0 0.1195849991
C  C750  1  0.74840000  0.13450000  0.19930000  1.0 0.0188217886
C  C751  1  0.73470000  0.12930000  0.16320000  1.0 -0.0521081324
C  C752  1  0.74280000  0.09660000  0.14380000  1.0 -0.0866425537
C  C753  1  0.76470000  0.06890000  0.16050000  1.0 0.0467501279
C  C754  1  0.77840000  0.07410000  0.19660000  1.0 -0.1042917747
C  C755  1  0.77020000  0.10690000  0.21600000  1.0 -0.1117784683
C  C756  1  0.77220000  0.03410000  0.13720000  1.0 0.0906636933
C  C757  1  0.77960000  0.03350000  0.09890000  1.0 -0.3092285851
C  C758  1  0.77600000  0.96751000  0.01926000  1.0 -0.0605859011
C  C759  1  0.79690000  0.03253000  0.01926000  1.0 -0.0605859011
C  C760  1  0.72960000  0.16900000  0.22280000  1.0 0.1318313491
C  C761  1  0.72220000  0.13460000  0.19980000  1.0 0.0304496871
C  C762  1  0.70080000  0.13400000  0.16730000  1.0 -0.1567427203
C  C763  1  0.69770000  0.10110000  0.14660000  1.0 -0.0605859011
C  C764  1  0.71610000  0.06890000  0.15840000  1.0 0.0304496871
C  C765  1  0.73760000  0.06950000  0.19090000  1.0 -0.0521081324
C  C766  1  0.74060000  0.10240000  0.21170000  1.0 -0.0521081324
C  C767  1  0.70720000  0.03400000  0.13670000  1.0 0.0906636933
C  C768  1  0.70960000  0.03370000  0.09780000  1.0 -0.3092285851
C  C769  1  0.68830000  0.97030000  0.01925000  1.0 -0.0764627905
C  C770  1  0.72220000  0.02967000  0.01926000  1.0 -0.0866425537
C  C771  1  0.26570000  0.16950000  0.78090000  1.0 0.1195849991
C  C772  1  0.25160000  0.13450000  0.80070000  1.0 0.0188217886
C  C773  1  0.26530000  0.12930000  0.83680000  1.0 -0.0521081324
C  C774  1  0.25720000  0.09660000  0.85620000  1.0 -0.0866425537
C  C775  1  0.23530000  0.06890000  0.83950000  1.0 0.0467501279
C  C776  1  0.22160000  0.07410000  0.80340000  1.0 -0.1042917747
C  C777  1  0.22980000  0.10690000  0.78400000  1.0 -0.1117784683
C  C778  1  0.22780000  0.03410000  0.86280000  1.0 0.0906636933
C  C779  1  0.22040000  0.03350000  0.90110000  1.0 -0.3092285851
C  C780  1  0.22400000  0.96751000  0.98074000  1.0 -0.0605859011
C  C781  1  0.20310000  0.03253000  0.98074000  1.0 -0.0605859011
C  C782  1  0.27040000  0.16900000  0.77720000  1.0 0.1318313491
C  C783  1  0.27780000  0.13460000  0.80020000  1.0 0.0304496871
C  C784  1  0.29920000  0.13400000  0.83270000  1.0 -0.1567427203
C  C785  1  0.30230000  0.10110000  0.85340000  1.0 -0.0605859011
C  C786  1  0.28390000  0.06890000  0.84160000  1.0 0.0304496871
C  C787  1  0.26240000  0.06950000  0.80910000  1.0 -0.0521081324
C  C788  1  0.25940000  0.10240000  0.78830000  1.0 -0.0521081324
C  C789  1  0.29280000  0.03400000  0.86330000  1.0 0.0906636933
C  C790  1  0.29040000  0.03370000  0.90220000  1.0 -0.3092285851
C  C791  1  0.31170000  0.97030000  0.98075000  1.0 -0.0764627905
C  C792  1  0.27780000  0.02967000  0.98074000  1.0 -0.0866425537
C  C793  1  0.23430000  0.28090000  0.66950000  1.0 0.1087425476
C  C794  1  0.24840000  0.30070000  0.63450000  1.0 0.0188217886
C  C795  1  0.23470000  0.33680000  0.62930000  1.0 -0.0521081324
C  C796  1  0.24280000  0.35620000  0.59660000  1.0 -0.0866425537
C  C797  1  0.26470000  0.33950000  0.56890000  1.0 0.0467501279
C  C798  1  0.27840000  0.30340000  0.57410000  1.0 -0.1042917747
C  C799  1  0.27020000  0.28400000  0.60690000  1.0 -0.1117784683
C  C800  1  0.27220000  0.36280000  0.53410000  1.0 0.0906636933
C  C801  1  0.27960000  0.40110000  0.53350000  1.0 -0.3092285851
C  C802  1  0.27600000  0.48074000  0.46751000  1.0 -0.0605859011
C  C803  1  0.29690000  0.48074000  0.53253000  1.0 -0.0605859011
C  C804  1  0.22960000  0.27720000  0.66900000  1.0 0.1318313491
C  C805  1  0.22220000  0.30020000  0.63460000  1.0 0.0304496871
C  C806  1  0.20080000  0.33270000  0.63400000  1.0 -0.1567427203
C  C807  1  0.19770000  0.35340000  0.60110000  1.0 -0.0605859011
C  C808  1  0.21610000  0.34160000  0.56890000  1.0 0.0304496871
C  C809  1  0.23760000  0.30910000  0.56950000  1.0 -0.0521081324
C  C810  1  0.24060000  0.28830000  0.60240000  1.0 -0.0521081324
C  C811  1  0.20720000  0.36330000  0.53400000  1.0 0.0906636933
C  C812  1  0.20960000  0.40220000  0.53370000  1.0 -0.3092285851
C  C813  1  0.18830000  0.48075000  0.47030000  1.0 -0.0764627905
C  C814  1  0.22220000  0.48074000  0.52967000  1.0 -0.0866425537
C  C815  1  0.76570000  0.71910000  0.66950000  1.0 0.1195849991
C  C816  1  0.75160000  0.69930000  0.63450000  1.0 0.0188217886
C  C817  1  0.76530000  0.66320000  0.62930000  1.0 -0.0521081324
C  C818  1  0.75720000  0.64380000  0.59660000  1.0 -0.0866425537
C  C819  1  0.73530000  0.66050000  0.56890000  1.0 0.0467501279
C  C820  1  0.72160000  0.69660000  0.57410000  1.0 -0.1042917747
C  C821  1  0.72980000  0.71600000  0.60690000  1.0 -0.1117784683
C  C822  1  0.72780000  0.63720000  0.53410000  1.0 0.0906636933
C  C823  1  0.72040000  0.59890000  0.53350000  1.0 -0.3092285851
C  C824  1  0.72400000  0.51926000  0.46751000  1.0 -0.0605859011
C  C825  1  0.70310000  0.51926000  0.53253000  1.0 -0.0605859011
C  C826  1  0.77040000  0.72280000  0.66900000  1.0 0.1318313491
C  C827  1  0.77780000  0.69980000  0.63460000  1.0 0.0304496871
C  C828  1  0.79920000  0.66730000  0.63400000  1.0 -0.1567427203
C  C829  1  0.80230000  0.64660000  0.60110000  1.0 -0.0605859011
C  C830  1  0.78390000  0.65840000  0.56890000  1.0 0.0304496871
C  C831  1  0.76240000  0.69090000  0.56950000  1.0 -0.0521081324
C  C832  1  0.75940000  0.71170000  0.60240000  1.0 -0.0521081324
C  C833  1  0.79280000  0.63670000  0.53400000  1.0 0.0906636933
C  C834  1  0.79040000  0.59780000  0.53370000  1.0 -0.3044834439
C  C835  1  0.81170000  0.51925000  0.47030000  1.0 -0.0764627905
C  C836  1  0.77780000  0.51926000  0.52967000  1.0 -0.0866425537
C  C837  1  0.23430000  0.71910000  0.33050000  1.0 0.1087425476
C  C838  1  0.24840000  0.69930000  0.36550000  1.0 0.0188217886
C  C839  1  0.23470000  0.66320000  0.37070000  1.0 -0.0521081324
C  C840  1  0.24280000  0.64380000  0.40340000  1.0 -0.0866425537
C  C841  1  0.26470000  0.66050000  0.43110000  1.0 0.0467501279
C  C842  1  0.27840000  0.69660000  0.42590000  1.0 -0.1042917747
C  C843  1  0.27020000  0.71600000  0.39310000  1.0 -0.1117784683
C  C844  1  0.27220000  0.63720000  0.46590000  1.0 0.0906636933
C  C845  1  0.27960000  0.59890000  0.46650000  1.0 -0.3092285851
C  C846  1  0.27600000  0.51926000  0.53249000  1.0 -0.0605859011
C  C847  1  0.29690000  0.51926000  0.46747000  1.0 -0.0605859011
C  C848  1  0.22960000  0.72280000  0.33100000  1.0 0.1318313491
C  C849  1  0.22220000  0.69980000  0.36540000  1.0 0.0304496871
C  C850  1  0.20080000  0.66730000  0.36600000  1.0 -0.1567427203
C  C851  1  0.19770000  0.64660000  0.39890000  1.0 -0.0605859011
C  C852  1  0.21610000  0.65840000  0.43110000  1.0 0.0304496871
C  C853  1  0.23760000  0.69090000  0.43050000  1.0 -0.0521081324
C  C854  1  0.24060000  0.71170000  0.39760000  1.0 -0.0521081324
C  C855  1  0.20720000  0.63670000  0.46600000  1.0 0.0906636933
C  C856  1  0.20960000  0.59780000  0.46630000  1.0 -0.3092285851
C  C857  1  0.18830000  0.51925000  0.52970000  1.0 -0.0764627905
C  C858  1  0.22220000  0.51926000  0.47033000  1.0 -0.0866425537
C  C859  1  0.76570000  0.28090000  0.33050000  1.0 0.1195849991
C  C860  1  0.75160000  0.30070000  0.36550000  1.0 0.0188217886
C  C861  1  0.76530000  0.33680000  0.37070000  1.0 -0.0521081324
C  C862  1  0.75720000  0.35620000  0.40340000  1.0 -0.0866425537
C  C863  1  0.73530000  0.33950000  0.43110000  1.0 0.0467501279
C  C864  1  0.72160000  0.30340000  0.42590000  1.0 -0.1042917747
C  C865  1  0.72980000  0.28400000  0.39310000  1.0 -0.1117784683
C  C866  1  0.72780000  0.36280000  0.46590000  1.0 0.0906636933
C  C867  1  0.72040000  0.40110000  0.46650000  1.0 -0.3092285851
C  C868  1  0.72400000  0.48074000  0.53249000  1.0 -0.0605859011
C  C869  1  0.70310000  0.48074000  0.46747000  1.0 -0.0605859011
C  C870  1  0.77040000  0.27720000  0.33100000  1.0 0.1318313491
C  C871  1  0.77780000  0.30020000  0.36540000  1.0 0.0304496871
C  C872  1  0.79920000  0.33270000  0.36600000  1.0 -0.1567427203
C  C873  1  0.80230000  0.35340000  0.39890000  1.0 -0.0605859011
C  C874  1  0.78390000  0.34160000  0.43110000  1.0 0.0304496871
C  C875  1  0.76240000  0.30910000  0.43050000  1.0 -0.0521081324
C  C876  1  0.75940000  0.28830000  0.39760000  1.0 -0.0521081324
C  C877  1  0.79280000  0.36330000  0.46600000  1.0 0.0906636933
C  C878  1  0.79040000  0.40220000  0.46630000  1.0 -0.3044834439
C  C879  1  0.81170000  0.48075000  0.52970000  1.0 -0.0764627905
C  C880  1  0.77780000  0.48074000  0.47033000  1.0 -0.0866425537
C  C881  1  0.28090000  0.33050000  0.76570000  1.0 0.1195849991
C  C882  1  0.30070000  0.36550000  0.75160000  1.0 0.0188217886
C  C883  1  0.33680000  0.37070000  0.76530000  1.0 -0.0521081324
C  C884  1  0.35620000  0.40340000  0.75720000  1.0 -0.0866425537
C  C885  1  0.33950000  0.43110000  0.73530000  1.0 0.0467501279
C  C886  1  0.30340000  0.42590000  0.72160000  1.0 -0.1042917747
C  C887  1  0.28400000  0.39310000  0.72980000  1.0 -0.1117784683
C  C888  1  0.36280000  0.46590000  0.72780000  1.0 0.0906636933
C  C889  1  0.40110000  0.46650000  0.72040000  1.0 -0.3092285851
C  C890  1  0.48074000  0.53249000  0.72400000  1.0 -0.0605859011
C  C891  1  0.48074000  0.46747000  0.70310000  1.0 -0.0605859011
C  C892  1  0.27720000  0.33100000  0.77040000  1.0 0.1318313491
C  C893  1  0.30020000  0.36540000  0.77780000  1.0 0.0304496871
C  C894  1  0.33270000  0.36600000  0.79920000  1.0 -0.1567427203
C  C895  1  0.35340000  0.39890000  0.80230000  1.0 -0.0605859011
C  C896  1  0.34160000  0.43110000  0.78390000  1.0 0.0304496871
C  C897  1  0.30910000  0.43050000  0.76240000  1.0 -0.0521081324
C  C898  1  0.28830000  0.39760000  0.75940000  1.0 -0.0521081324
C  C899  1  0.36330000  0.46600000  0.79280000  1.0 0.0906636933
C  C900  1  0.40220000  0.46630000  0.79040000  1.0 -0.3092285851
C  C901  1  0.48075000  0.52970000  0.81170000  1.0 -0.0764627905
C  C902  1  0.48074000  0.47033000  0.77780000  1.0 -0.0866425537
C  C903  1  0.71910000  0.33050000  0.23430000  1.0 0.1195849991
C  C904  1  0.69930000  0.36550000  0.24840000  1.0 0.0188217886
C  C905  1  0.66320000  0.37070000  0.23470000  1.0 -0.0521081324
C  C906  1  0.64380000  0.40340000  0.24280000  1.0 -0.0866425537
C  C907  1  0.66050000  0.43110000  0.26470000  1.0 0.0467501279
C  C908  1  0.69660000  0.42590000  0.27840000  1.0 -0.1042917747
C  C909  1  0.71600000  0.39310000  0.27020000  1.0 -0.1117784683
C  C910  1  0.63720000  0.46590000  0.27220000  1.0 0.0906636933
C  C911  1  0.59890000  0.46650000  0.27960000  1.0 -0.3092285851
C  C912  1  0.51926000  0.53249000  0.27600000  1.0 -0.0605859011
C  C913  1  0.51926000  0.46747000  0.29690000  1.0 -0.0605859011
C  C914  1  0.72280000  0.33100000  0.22960000  1.0 0.1318313491
C  C915  1  0.69980000  0.36540000  0.22220000  1.0 0.0304496871
C  C916  1  0.66730000  0.36600000  0.20080000  1.0 -0.1567427203
C  C917  1  0.64660000  0.39890000  0.19770000  1.0 -0.0605859011
C  C918  1  0.65840000  0.43110000  0.21610000  1.0 0.0304496871
C  C919  1  0.69090000  0.43050000  0.23760000  1.0 -0.0521081324
C  C920  1  0.71170000  0.39760000  0.24060000  1.0 -0.0521081324
C  C921  1  0.63670000  0.46600000  0.20720000  1.0 0.0906636933
C  C922  1  0.59780000  0.46630000  0.20960000  1.0 -0.3092285851
C  C923  1  0.51925000  0.52970000  0.18830000  1.0 -0.0764627905
C  C924  1  0.51926000  0.47033000  0.22220000  1.0 -0.0866425537
C  C925  1  0.71910000  0.66950000  0.76570000  1.0 0.1195849991
C  C926  1  0.69930000  0.63450000  0.75160000  1.0 0.0188217886
C  C927  1  0.66320000  0.62930000  0.76530000  1.0 -0.0521081324
C  C928  1  0.64380000  0.59660000  0.75720000  1.0 -0.0866425537
C  C929  1  0.66050000  0.56890000  0.73530000  1.0 0.0467501279
C  C930  1  0.69660000  0.57410000  0.72160000  1.0 -0.1042917747
C  C931  1  0.71600000  0.60690000  0.72980000  1.0 -0.1117784683
C  C932  1  0.63720000  0.53410000  0.72780000  1.0 0.0906636933
C  C933  1  0.59890000  0.53350000  0.72040000  1.0 -0.3092285851
C  C934  1  0.51926000  0.46751000  0.72400000  1.0 -0.0605859011
C  C935  1  0.51926000  0.53253000  0.70310000  1.0 -0.0605859011
C  C936  1  0.72280000  0.66900000  0.77040000  1.0 0.1318313491
C  C937  1  0.69980000  0.63460000  0.77780000  1.0 0.0304496871
C  C938  1  0.66730000  0.63400000  0.79920000  1.0 -0.1567427203
C  C939  1  0.64660000  0.60110000  0.80230000  1.0 -0.0605859011
C  C940  1  0.65840000  0.56890000  0.78390000  1.0 0.0304496871
C  C941  1  0.69090000  0.56950000  0.76240000  1.0 -0.0521081324
C  C942  1  0.71170000  0.60240000  0.75940000  1.0 -0.0521081324
C  C943  1  0.63670000  0.53400000  0.79280000  1.0 0.0906636933
C  C944  1  0.59780000  0.53370000  0.79040000  1.0 -0.3092285851
C  C945  1  0.51925000  0.47030000  0.81170000  1.0 -0.0764627905
C  C946  1  0.51926000  0.52967000  0.77780000  1.0 -0.0866425537
C  C947  1  0.28090000  0.66950000  0.23430000  1.0 0.1087425476
C  C948  1  0.30070000  0.63450000  0.24840000  1.0 0.0188217886
C  C949  1  0.33680000  0.62930000  0.23470000  1.0 -0.0521081324
C  C950  1  0.35620000  0.59660000  0.24280000  1.0 -0.0866425537
C  C951  1  0.33950000  0.56890000  0.26470000  1.0 0.0467501279
C  C952  1  0.30340000  0.57410000  0.27840000  1.0 -0.1042917747
C  C953  1  0.28400000  0.60690000  0.27020000  1.0 -0.1117784683
C  C954  1  0.36280000  0.53410000  0.27220000  1.0 0.0906636933
C  C955  1  0.40110000  0.53350000  0.27960000  1.0 -0.3092285851
C  C956  1  0.48074000  0.46751000  0.27600000  1.0 -0.0605859011
C  C957  1  0.48074000  0.53253000  0.29690000  1.0 -0.0605859011
C  C958  1  0.27720000  0.66900000  0.22960000  1.0 0.1318313491
C  C959  1  0.30020000  0.63460000  0.22220000  1.0 0.0304496871
C  C960  1  0.33270000  0.63400000  0.20080000  1.0 -0.1567427203
C  C961  1  0.35340000  0.60110000  0.19770000  1.0 -0.0605859011
C  C962  1  0.34160000  0.56890000  0.21610000  1.0 0.0304496871
C  C963  1  0.30910000  0.56950000  0.23760000  1.0 -0.0521081324
C  C964  1  0.28830000  0.60240000  0.24060000  1.0 -0.0521081324
C  C965  1  0.36330000  0.53400000  0.20720000  1.0 0.0906636933
C  C966  1  0.40220000  0.53370000  0.20960000  1.0 -0.3092285851
C  C967  1  0.48075000  0.47030000  0.18830000  1.0 -0.0764627905
C  C968  1  0.48074000  0.52967000  0.22220000  1.0 -0.0866425537
C  C969  1  0.33050000  0.23430000  0.71910000  1.0 0.1195849991
C  C970  1  0.36550000  0.24840000  0.69930000  1.0 0.0188217886
C  C971  1  0.37070000  0.23470000  0.66320000  1.0 -0.0521081324
C  C972  1  0.40340000  0.24280000  0.64380000  1.0 -0.0866425537
C  C973  1  0.43110000  0.26470000  0.66050000  1.0 0.0467501279
C  C974  1  0.42590000  0.27840000  0.69660000  1.0 -0.1042917747
C  C975  1  0.39310000  0.27020000  0.71600000  1.0 -0.1117784683
C  C976  1  0.46590000  0.27220000  0.63720000  1.0 0.0906636933
C  C977  1  0.46650000  0.27960000  0.59890000  1.0 -0.3092285851
C  C978  1  0.53249000  0.27600000  0.51926000  1.0 -0.0605859011
C  C979  1  0.46747000  0.29690000  0.51926000  1.0 -0.0605859011
C  C980  1  0.33100000  0.22960000  0.72280000  1.0 0.1318313491
C  C981  1  0.36540000  0.22220000  0.69980000  1.0 0.0304496871
C  C982  1  0.36600000  0.20080000  0.66730000  1.0 -0.1567427203
C  C983  1  0.39890000  0.19770000  0.64660000  1.0 -0.0605859011
C  C984  1  0.43110000  0.21610000  0.65840000  1.0 0.0304496871
C  C985  1  0.43050000  0.23760000  0.69090000  1.0 -0.0521081324
C  C986  1  0.39760000  0.24060000  0.71170000  1.0 -0.0521081324
C  C987  1  0.46600000  0.20720000  0.63670000  1.0 0.0906636933
C  C988  1  0.46630000  0.20960000  0.59780000  1.0 -0.3092285851
C  C989  1  0.52970000  0.18830000  0.51925000  1.0 -0.0764627905
C  C990  1  0.47033000  0.22220000  0.51926000  1.0 -0.0866425537
C  C991  1  0.33050000  0.76570000  0.28090000  1.0 0.1087425476
C  C992  1  0.36550000  0.75160000  0.30070000  1.0 0.0188217886
C  C993  1  0.37070000  0.76530000  0.33680000  1.0 -0.0521081324
C  C994  1  0.40340000  0.75720000  0.35620000  1.0 -0.0866425537
C  C995  1  0.43110000  0.73530000  0.33950000  1.0 0.0467501279
C  C996  1  0.42590000  0.72160000  0.30340000  1.0 -0.1042917747
C  C997  1  0.39310000  0.72980000  0.28400000  1.0 -0.1117784683
C  C998  1  0.46590000  0.72780000  0.36280000  1.0 0.0906636933
C  C999  1  0.46650000  0.72040000  0.40110000  1.0 -0.3092285851
C  C1000  1  0.53249000  0.72400000  0.48074000  1.0 -0.0605859011
C  C1001  1  0.46747000  0.70310000  0.48074000  1.0 -0.0605859011
C  C1002  1  0.33100000  0.77040000  0.27720000  1.0 0.1318313491
C  C1003  1  0.36540000  0.77780000  0.30020000  1.0 0.0304496871
C  C1004  1  0.36600000  0.79920000  0.33270000  1.0 -0.1567427203
C  C1005  1  0.39890000  0.80230000  0.35340000  1.0 -0.0605859011
C  C1006  1  0.43110000  0.78390000  0.34160000  1.0 0.0304496871
C  C1007  1  0.43050000  0.76240000  0.30910000  1.0 -0.0521081324
C  C1008  1  0.39760000  0.75940000  0.28830000  1.0 -0.0521081324
C  C1009  1  0.46600000  0.79280000  0.36330000  1.0 0.0906636933
C  C1010  1  0.46630000  0.79040000  0.40220000  1.0 -0.3092285851
C  C1011  1  0.52970000  0.81170000  0.48075000  1.0 -0.0764627905
C  C1012  1  0.47033000  0.77780000  0.48074000  1.0 -0.0866425537
C  C1013  1  0.66950000  0.23430000  0.28090000  1.0 0.1195849991
C  C1014  1  0.63450000  0.24840000  0.30070000  1.0 0.0188217886
C  C1015  1  0.62930000  0.23470000  0.33680000  1.0 -0.0521081324
C  C1016  1  0.59660000  0.24280000  0.35620000  1.0 -0.0866425537
C  C1017  1  0.56890000  0.26470000  0.33950000  1.0 0.0467501279
C  C1018  1  0.57410000  0.27840000  0.30340000  1.0 -0.1042917747
C  C1019  1  0.60690000  0.27020000  0.28400000  1.0 -0.1117784683
C  C1020  1  0.53410000  0.27220000  0.36280000  1.0 0.0906636933
C  C1021  1  0.53350000  0.27960000  0.40110000  1.0 -0.3092285851
C  C1022  1  0.46751000  0.27600000  0.48074000  1.0 -0.0605859011
C  C1023  1  0.53253000  0.29690000  0.48074000  1.0 -0.0605859011
C  C1024  1  0.66900000  0.22960000  0.27720000  1.0 0.1318313491
C  C1025  1  0.63460000  0.22220000  0.30020000  1.0 0.0304496871
C  C1026  1  0.63400000  0.20080000  0.33270000  1.0 -0.1567427203
C  C1027  1  0.60110000  0.19770000  0.35340000  1.0 -0.0605859011
C  C1028  1  0.56890000  0.21610000  0.34160000  1.0 0.0304496871
C  C1029  1  0.56950000  0.23760000  0.30910000  1.0 -0.0521081324
C  C1030  1  0.60240000  0.24060000  0.28830000  1.0 -0.0521081324
C  C1031  1  0.53400000  0.20720000  0.36330000  1.0 0.0906636933
C  C1032  1  0.53370000  0.20960000  0.40220000  1.0 -0.3092285851
C  C1033  1  0.47030000  0.18830000  0.48075000  1.0 -0.0764627905
C  C1034  1  0.52967000  0.22220000  0.48074000  1.0 -0.0866425537
C  C1035  1  0.66950000  0.76570000  0.71910000  1.0 0.1195849991
C  C1036  1  0.63450000  0.75160000  0.69930000  1.0 0.0188217886
C  C1037  1  0.62930000  0.76530000  0.66320000  1.0 -0.0521081324
C  C1038  1  0.59660000  0.75720000  0.64380000  1.0 -0.0866425537
C  C1039  1  0.56890000  0.73530000  0.66050000  1.0 0.0467501279
C  C1040  1  0.57410000  0.72160000  0.69660000  1.0 -0.1042917747
C  C1041  1  0.60690000  0.72980000  0.71600000  1.0 -0.1117784683
C  C1042  1  0.53410000  0.72780000  0.63720000  1.0 0.0906636933
C  C1043  1  0.53350000  0.72040000  0.59890000  1.0 -0.3092285851
C  C1044  1  0.46751000  0.72400000  0.51926000  1.0 -0.0605859011
C  C1045  1  0.53253000  0.70310000  0.51926000  1.0 -0.0605859011
C  C1046  1  0.66900000  0.77040000  0.72280000  1.0 0.1318313491
C  C1047  1  0.63460000  0.77780000  0.69980000  1.0 0.0304496871
C  C1048  1  0.63400000  0.79920000  0.66730000  1.0 -0.1567427203
C  C1049  1  0.60110000  0.80230000  0.64660000  1.0 -0.0605859011
C  C1050  1  0.56890000  0.78390000  0.65840000  1.0 0.0304496871
C  C1051  1  0.56950000  0.76240000  0.69090000  1.0 -0.0521081324
C  C1052  1  0.60240000  0.75940000  0.71170000  1.0 -0.0521081324
C  C1053  1  0.53400000  0.79280000  0.63670000  1.0 0.0906636933
C  C1054  1  0.53370000  0.79040000  0.59780000  1.0 -0.3092285851
C  C1055  1  0.47030000  0.81170000  0.51925000  1.0 -0.0764627905
C  C1056  1  0.52967000  0.77780000  0.51926000  1.0 -0.0866425537
C  C1057  1  0.15610000  0.23140000  0.00000000  1.0 -0.2450834517
C  C1058  1  0.07930000  0.21670000  0.00000000  1.0 0.0790133956
C  C1059  1  0.03655000  0.21350000  0.00000000  1.0 -0.0018246853
C  C1060  1  0.15620000  0.29410000  0.00000000  1.0 -0.233868649
C  C1061  1  0.07830000  0.28910000  0.00000000  1.0 0.0590540642
C  C1062  1  0.03648000  0.29470000  0.00000000  1.0 0.0304496871
C  C1063  1  0.84390000  0.76860000  0.00000000  1.0 -0.2400560707
C  C1064  1  0.92070000  0.78330000  0.00000000  1.0 0.0790133956
C  C1065  1  0.96345000  0.78650000  0.00000000  1.0 -0.0018246853
C  C1066  1  0.84380000  0.70590000  0.00000000  1.0 -0.2400560707
C  C1067  1  0.92170000  0.71090000  0.00000000  1.0 0.0590540642
C  C1068  1  0.96352000  0.70530000  0.00000000  1.0 0.0304496871
C  C1069  1  0.84390000  0.23140000  0.00000000  1.0 -0.2400560707
C  C1070  1  0.92070000  0.21670000  0.00000000  1.0 0.0790133956
C  C1071  1  0.96345000  0.21350000  0.00000000  1.0 -0.0018246853
C  C1072  1  0.84380000  0.29410000  0.00000000  1.0 -0.2400560707
C  C1073  1  0.92170000  0.28910000  0.00000000  1.0 0.0590540642
C  C1074  1  0.96352000  0.29470000  0.00000000  1.0 0.0304496871
C  C1075  1  0.15610000  0.76860000  0.00000000  1.0 -0.2400560707
C  C1076  1  0.07930000  0.78330000  0.00000000  1.0 0.0790133956
C  C1077  1  0.03655000  0.78650000  0.00000000  1.0 -0.0018246853
C  C1078  1  0.15620000  0.70590000  0.00000000  1.0 -0.233868649
C  C1079  1  0.07830000  0.71090000  0.00000000  1.0 0.0590540642
C  C1080  1  0.03648000  0.70530000  0.00000000  1.0 0.0304496871
C  C1081  1  0.00000000  0.15610000  0.23140000  1.0 -0.2400560707
C  C1082  1  0.00000000  0.07930000  0.21670000  1.0 0.0790133956
C  C1083  1  0.00000000  0.03655000  0.21350000  1.0 -0.0018246853
C  C1084  1  0.00000000  0.15620000  0.29410000  1.0 -0.233868649
C  C1085  1  0.00000000  0.07830000  0.28910000  1.0 0.0590540642
C  C1086  1  0.00000000  0.03648000  0.29470000  1.0 0.0304496871
C  C1087  1  0.00000000  0.84390000  0.76860000  1.0 -0.2400560707
C  C1088  1  0.00000000  0.92070000  0.78330000  1.0 0.0790133956
C  C1089  1  0.00000000  0.96345000  0.78650000  1.0 -0.0018246853
C  C1090  1  0.00000000  0.84380000  0.70590000  1.0 -0.2400560707
C  C1091  1  0.00000000  0.92170000  0.71090000  1.0 0.0590540642
C  C1092  1  0.00000000  0.96352000  0.70530000  1.0 0.0304496871
C  C1093  1  0.00000000  0.84390000  0.23140000  1.0 -0.2400560707
C  C1094  1  0.00000000  0.92070000  0.21670000  1.0 0.0790133956
C  C1095  1  0.00000000  0.96345000  0.21350000  1.0 -0.0018246853
C  C1096  1  0.00000000  0.84380000  0.29410000  1.0 -0.2400560707
C  C1097  1  0.00000000  0.92170000  0.28910000  1.0 0.0590540642
C  C1098  1  0.00000000  0.96352000  0.29470000  1.0 0.0304496871
C  C1099  1  0.00000000  0.15610000  0.76860000  1.0 -0.2400560707
C  C1100  1  0.00000000  0.07930000  0.78330000  1.0 0.0790133956
C  C1101  1  0.00000000  0.03655000  0.78650000  1.0 -0.0018246853
C  C1102  1  0.00000000  0.15620000  0.70590000  1.0 -0.233868649
C  C1103  1  0.00000000  0.07830000  0.71090000  1.0 0.0590540642
C  C1104  1  0.00000000  0.03648000  0.70530000  1.0 0.0304496871
C  C1105  1  0.23140000  0.00000000  0.15610000  1.0 -0.2450834517
C  C1106  1  0.21670000  0.00000000  0.07930000  1.0 0.0790133956
C  C1107  1  0.21350000  0.00000000  0.03655000  1.0 -0.0018246853
C  C1108  1  0.29410000  0.00000000  0.15620000  1.0 -0.233868649
C  C1109  1  0.28910000  0.00000000  0.07830000  1.0 0.0590540642
C  C1110  1  0.29470000  0.00000000  0.03648000  1.0 0.0304496871
C  C1111  1  0.76860000  0.00000000  0.84390000  1.0 -0.2400560707
C  C1112  1  0.78330000  0.00000000  0.92070000  1.0 0.0790133956
C  C1113  1  0.78650000  0.00000000  0.96345000  1.0 -0.0018246853
C  C1114  1  0.70590000  0.00000000  0.84380000  1.0 -0.2400560707
C  C1115  1  0.71090000  0.00000000  0.92170000  1.0 0.0590540642
C  C1116  1  0.70530000  0.00000000  0.96352000  1.0 0.0304496871
C  C1117  1  0.23140000  0.00000000  0.84390000  1.0 -0.2400560707
C  C1118  1  0.21670000  0.00000000  0.92070000  1.0 0.0790133956
C  C1119  1  0.21350000  0.00000000  0.96345000  1.0 -0.0018246853
C  C1120  1  0.29410000  0.00000000  0.84380000  1.0 -0.2400560707
C  C1121  1  0.28910000  0.00000000  0.92170000  1.0 0.0590540642
C  C1122  1  0.29470000  0.00000000  0.96352000  1.0 0.0304496871
C  C1123  1  0.76860000  0.00000000  0.15610000  1.0 -0.2400560707
C  C1124  1  0.78330000  0.00000000  0.07930000  1.0 0.0790133956
C  C1125  1  0.78650000  0.00000000  0.03655000  1.0 -0.0018246853
C  C1126  1  0.70590000  0.00000000  0.15620000  1.0 -0.233868649
C  C1127  1  0.71090000  0.00000000  0.07830000  1.0 0.0590540642
C  C1128  1  0.70530000  0.00000000  0.03648000  1.0 0.0304496871
C  C1129  1  0.73140000  0.65610000  0.50000000  1.0 -0.2400560707
C  C1130  1  0.71670000  0.57930000  0.50000000  1.0 0.0790133956
C  C1131  1  0.71350000  0.53655000  0.50000000  1.0 -0.0018246853
C  C1132  1  0.79410000  0.65620000  0.50000000  1.0 -0.2400560707
C  C1133  1  0.78910000  0.57830000  0.50000000  1.0 0.0590540642
C  C1134  1  0.79470000  0.53648000  0.50000000  1.0 0.0304496871
C  C1135  1  0.26860000  0.34390000  0.50000000  1.0 -0.2400560707
C  C1136  1  0.28330000  0.42070000  0.50000000  1.0 0.0790133956
C  C1137  1  0.28650000  0.46345000  0.50000000  1.0 -0.0018246853
C  C1138  1  0.20590000  0.34380000  0.50000000  1.0 -0.2400560707
C  C1139  1  0.21090000  0.42170000  0.50000000  1.0 0.0590540642
C  C1140  1  0.20530000  0.46352000  0.50000000  1.0 0.0304496871
C  C1141  1  0.73140000  0.34390000  0.50000000  1.0 -0.2400560707
C  C1142  1  0.71670000  0.42070000  0.50000000  1.0 0.0790133956
C  C1143  1  0.71350000  0.46345000  0.50000000  1.0 -0.0018246853
C  C1144  1  0.79410000  0.34380000  0.50000000  1.0 -0.2400560707
C  C1145  1  0.78910000  0.42170000  0.50000000  1.0 0.0590540642
C  C1146  1  0.79470000  0.46352000  0.50000000  1.0 0.0304496871
C  C1147  1  0.26860000  0.65610000  0.50000000  1.0 -0.2400560707
C  C1148  1  0.28330000  0.57930000  0.50000000  1.0 0.0790133956
C  C1149  1  0.28650000  0.53655000  0.50000000  1.0 -0.0018246853
C  C1150  1  0.20590000  0.65620000  0.50000000  1.0 -0.2400560707
C  C1151  1  0.21090000  0.57830000  0.50000000  1.0 0.0590540642
C  C1152  1  0.20530000  0.53648000  0.50000000  1.0 0.0304496871
C  C1153  1  0.65610000  0.50000000  0.26860000  1.0 -0.2400560707
C  C1154  1  0.57930000  0.50000000  0.28330000  1.0 0.0790133956
C  C1155  1  0.53655000  0.50000000  0.28650000  1.0 -0.0018246853
C  C1156  1  0.65620000  0.50000000  0.20590000  1.0 -0.2400560707
C  C1157  1  0.57830000  0.50000000  0.21090000  1.0 0.0590540642
C  C1158  1  0.53648000  0.50000000  0.20530000  1.0 0.0304496871
C  C1159  1  0.34390000  0.50000000  0.73140000  1.0 -0.2400560707
C  C1160  1  0.42070000  0.50000000  0.71670000  1.0 0.0790133956
C  C1161  1  0.46345000  0.50000000  0.71350000  1.0 -0.0018246853
C  C1162  1  0.34380000  0.50000000  0.79410000  1.0 -0.2400560707
C  C1163  1  0.42170000  0.50000000  0.78910000  1.0 0.0590540642
C  C1164  1  0.46352000  0.50000000  0.79470000  1.0 0.0304496871
C  C1165  1  0.34390000  0.50000000  0.26860000  1.0 -0.2400560707
C  C1166  1  0.42070000  0.50000000  0.28330000  1.0 0.0790133956
C  C1167  1  0.46345000  0.50000000  0.28650000  1.0 -0.0018246853
C  C1168  1  0.34380000  0.50000000  0.20590000  1.0 -0.2400560707
C  C1169  1  0.42170000  0.50000000  0.21090000  1.0 0.0590540642
C  C1170  1  0.46352000  0.50000000  0.20530000  1.0 0.0304496871
C  C1171  1  0.65610000  0.50000000  0.73140000  1.0 -0.2400560707
C  C1172  1  0.57930000  0.50000000  0.71670000  1.0 0.0790133956
C  C1173  1  0.53655000  0.50000000  0.71350000  1.0 -0.0018246853
C  C1174  1  0.65620000  0.50000000  0.79410000  1.0 -0.2400560707
C  C1175  1  0.57830000  0.50000000  0.78910000  1.0 0.0590540642
C  C1176  1  0.53648000  0.50000000  0.79470000  1.0 0.0304496871
C  C1177  1  0.50000000  0.73140000  0.34390000  1.0 -0.2400560707
C  C1178  1  0.50000000  0.71670000  0.42070000  1.0 0.0790133956
C  C1179  1  0.50000000  0.71350000  0.46345000  1.0 -0.0018246853
C  C1180  1  0.50000000  0.79410000  0.34380000  1.0 -0.2400560707
C  C1181  1  0.50000000  0.78910000  0.42170000  1.0 0.0590540642
C  C1182  1  0.50000000  0.79470000  0.46352000  1.0 0.0304496871
C  C1183  1  0.50000000  0.26860000  0.65610000  1.0 -0.2400560707
C  C1184  1  0.50000000  0.28330000  0.57930000  1.0 0.0790133956
C  C1185  1  0.50000000  0.28650000  0.53655000  1.0 -0.0018246853
C  C1186  1  0.50000000  0.20590000  0.65620000  1.0 -0.2400560707
C  C1187  1  0.50000000  0.21090000  0.57830000  1.0 0.0590540642
C  C1188  1  0.50000000  0.20530000  0.53648000  1.0 0.0304496871
C  C1189  1  0.50000000  0.73140000  0.65610000  1.0 -0.2400560707
C  C1190  1  0.50000000  0.71670000  0.57930000  1.0 0.0790133956
C  C1191  1  0.50000000  0.71350000  0.53655000  1.0 -0.0018246853
C  C1192  1  0.50000000  0.79410000  0.65620000  1.0 -0.2400560707
C  C1193  1  0.50000000  0.78910000  0.57830000  1.0 0.0590540642
C  C1194  1  0.50000000  0.79470000  0.53648000  1.0 0.0304496871
C  C1195  1  0.50000000  0.26860000  0.34390000  1.0 -0.2400560707
C  C1196  1  0.50000000  0.28330000  0.42070000  1.0 0.0790133956
C  C1197  1  0.50000000  0.28650000  0.46345000  1.0 -0.0018246853
C  C1198  1  0.50000000  0.20590000  0.34380000  1.0 -0.2400560707
C  C1199  1  0.50000000  0.21090000  0.42170000  1.0 0.0590540642
C  C1200  1  0.50000000  0.20530000  0.46352000  1.0 0.0304496871
O  O1  1  0.20780000  0.28870000  0.19350000  1.0 -0.3223545773
O  O2  1  0.25010000  0.25030000  0.17112000  1.0 -0.3223545773
O  O3  1  0.79220000  0.71130000  0.19350000  1.0 -0.3223545773
O  O4  1  0.74990000  0.74970000  0.17112000  1.0 -0.3223545773
O  O5  1  0.79220000  0.28870000  0.80650000  1.0 -0.3223545773
O  O6  1  0.74990000  0.25030000  0.82888000  1.0 -0.3223545773
O  O7  1  0.20780000  0.71130000  0.80650000  1.0 -0.3223545773
O  O8  1  0.25010000  0.74970000  0.82888000  1.0 -0.3223545773
O  O9  1  0.19350000  0.20780000  0.28870000  1.0 -0.3223545773
O  O10  1  0.17112000  0.25010000  0.25030000  1.0 -0.3223545773
O  O11  1  0.19350000  0.79220000  0.71130000  1.0 -0.3223545773
O  O12  1  0.17112000  0.74990000  0.74970000  1.0 -0.3223545773
O  O13  1  0.80650000  0.79220000  0.28870000  1.0 -0.3223545773
O  O14  1  0.82888000  0.74990000  0.25030000  1.0 -0.3223545773
O  O15  1  0.80650000  0.20780000  0.71130000  1.0 -0.3223545773
O  O16  1  0.82888000  0.25010000  0.74970000  1.0 -0.3223545773
O  O17  1  0.28870000  0.19350000  0.20780000  1.0 -0.3223545773
O  O18  1  0.25030000  0.17112000  0.25010000  1.0 -0.3223545773
O  O19  1  0.71130000  0.19350000  0.79220000  1.0 -0.3223545773
O  O20  1  0.74970000  0.17112000  0.74990000  1.0 -0.3223545773
O  O21  1  0.28870000  0.80650000  0.79220000  1.0 -0.3223545773
O  O22  1  0.25030000  0.82888000  0.74990000  1.0 -0.3223545773
O  O23  1  0.71130000  0.80650000  0.20780000  1.0 -0.3223545773
O  O24  1  0.74970000  0.82888000  0.25010000  1.0 -0.3223545773
O  O25  1  0.78870000  0.70780000  0.30650000  1.0 -0.3223545773
O  O26  1  0.75030000  0.75010000  0.32888000  1.0 -0.3223545773
O  O27  1  0.21130000  0.29220000  0.30650000  1.0 -0.3223545773
O  O28  1  0.24970000  0.24990000  0.32888000  1.0 -0.3223545773
O  O29  1  0.78870000  0.29220000  0.69350000  1.0 -0.3223545773
O  O30  1  0.75030000  0.24990000  0.67112000  1.0 -0.3223545773
O  O31  1  0.21130000  0.70780000  0.69350000  1.0 -0.3223545773
O  O32  1  0.24970000  0.75010000  0.67112000  1.0 -0.3223545773
O  O33  1  0.70780000  0.69350000  0.21130000  1.0 -0.3223545773
O  O34  1  0.75010000  0.67112000  0.24970000  1.0 -0.3223545773
O  O35  1  0.29220000  0.69350000  0.78870000  1.0 -0.3223545773
O  O36  1  0.24990000  0.67112000  0.75030000  1.0 -0.3223545773
O  O37  1  0.29220000  0.30650000  0.21130000  1.0 -0.3223545773
O  O38  1  0.24990000  0.32888000  0.24970000  1.0 -0.3223545773
O  O39  1  0.70780000  0.30650000  0.78870000  1.0 -0.3223545773
O  O40  1  0.75010000  0.32888000  0.75030000  1.0 -0.3223545773
O  O41  1  0.69350000  0.78870000  0.29220000  1.0 -0.3223545773
O  O42  1  0.67112000  0.75030000  0.24990000  1.0 -0.3223545773
O  O43  1  0.69350000  0.21130000  0.70780000  1.0 -0.3223545773
O  O44  1  0.67112000  0.24970000  0.75010000  1.0 -0.3223545773
O  O45  1  0.30650000  0.78870000  0.70780000  1.0 -0.3223545773
O  O46  1  0.32888000  0.75030000  0.75010000  1.0 -0.3223545773
O  O47  1  0.30650000  0.21130000  0.29220000  1.0 -0.3223545773
O  O48  1  0.32888000  0.24970000  0.24990000  1.0 -0.3223545773
O  O49  1  0.79220000  0.71130000  0.80650000  1.0 -0.3223545773
O  O50  1  0.74990000  0.74970000  0.82888000  1.0 -0.3223545773
O  O51  1  0.20780000  0.28870000  0.80650000  1.0 -0.3223545773
O  O52  1  0.25010000  0.25030000  0.82888000  1.0 -0.3223545773
O  O53  1  0.20780000  0.71130000  0.19350000  1.0 -0.3223545773
O  O54  1  0.25010000  0.74970000  0.17112000  1.0 -0.3223545773
O  O55  1  0.79220000  0.28870000  0.19350000  1.0 -0.3223545773
O  O56  1  0.74990000  0.25030000  0.17112000  1.0 -0.3223545773
O  O57  1  0.80650000  0.79220000  0.71130000  1.0 -0.3223545773
O  O58  1  0.82888000  0.74990000  0.74970000  1.0 -0.3223545773
O  O59  1  0.80650000  0.20780000  0.28870000  1.0 -0.3223545773
O  O60  1  0.82888000  0.25010000  0.25030000  1.0 -0.3223545773
O  O61  1  0.19350000  0.20780000  0.71130000  1.0 -0.3223545773
O  O62  1  0.17112000  0.25010000  0.74970000  1.0 -0.3223545773
O  O63  1  0.19350000  0.79220000  0.28870000  1.0 -0.3223545773
O  O64  1  0.17112000  0.74990000  0.25030000  1.0 -0.3223545773
O  O65  1  0.71130000  0.80650000  0.79220000  1.0 -0.3223545773
O  O66  1  0.74970000  0.82888000  0.74990000  1.0 -0.3223545773
O  O67  1  0.28870000  0.80650000  0.20780000  1.0 -0.3223545773
O  O68  1  0.25030000  0.82888000  0.25010000  1.0 -0.3223545773
O  O69  1  0.71130000  0.19350000  0.20780000  1.0 -0.3223545773
O  O70  1  0.74970000  0.17112000  0.25010000  1.0 -0.3223545773
O  O71  1  0.28870000  0.19350000  0.79220000  1.0 -0.3223545773
O  O72  1  0.25030000  0.17112000  0.74990000  1.0 -0.3223545773
O  O73  1  0.21130000  0.29220000  0.69350000  1.0 -0.3223545773
O  O74  1  0.24970000  0.24990000  0.67112000  1.0 -0.3223545773
O  O75  1  0.78870000  0.70780000  0.69350000  1.0 -0.3223545773
O  O76  1  0.75030000  0.75010000  0.67112000  1.0 -0.3223545773
O  O77  1  0.21130000  0.70780000  0.30650000  1.0 -0.3223545773
O  O78  1  0.24970000  0.75010000  0.32888000  1.0 -0.3223545773
O  O79  1  0.78870000  0.29220000  0.30650000  1.0 -0.3223545773
O  O80  1  0.75030000  0.24990000  0.32888000  1.0 -0.3223545773
O  O81  1  0.29220000  0.30650000  0.78870000  1.0 -0.3223545773
O  O82  1  0.24990000  0.32888000  0.75030000  1.0 -0.3223545773
O  O83  1  0.70780000  0.30650000  0.21130000  1.0 -0.3223545773
O  O84  1  0.75010000  0.32888000  0.24970000  1.0 -0.3223545773
O  O85  1  0.70780000  0.69350000  0.78870000  1.0 -0.3223545773
O  O86  1  0.75010000  0.67112000  0.75030000  1.0 -0.3223545773
O  O87  1  0.29220000  0.69350000  0.21130000  1.0 -0.3223545773
O  O88  1  0.24990000  0.67112000  0.24970000  1.0 -0.3223545773
O  O89  1  0.30650000  0.21130000  0.70780000  1.0 -0.3223545773
O  O90  1  0.32888000  0.24970000  0.75010000  1.0 -0.3223545773
O  O91  1  0.30650000  0.78870000  0.29220000  1.0 -0.3223545773
O  O92  1  0.32888000  0.75030000  0.24990000  1.0 -0.3223545773
O  O93  1  0.69350000  0.21130000  0.29220000  1.0 -0.3223545773
O  O94  1  0.67112000  0.24970000  0.24990000  1.0 -0.3223545773
O  O95  1  0.69350000  0.78870000  0.70780000  1.0 -0.3223545773
O  O96  1  0.67112000  0.75030000  0.75010000  1.0 -0.3223545773
O  O97  1  0.25000000  0.25000000  0.25000000  1.0 -0.8383113523
O  O98  1  0.75000000  0.75000000  0.25000000  1.0 -0.8383113523
O  O99  1  0.75000000  0.25000000  0.75000000  1.0 -0.8383113523
O  O100  1  0.25000000  0.75000000  0.75000000  1.0 -0.8383113523
O  O101  1  0.75000000  0.75000000  0.75000000  1.0 -0.8383113523
O  O102  1  0.25000000  0.25000000  0.75000000  1.0 -0.8383113523
O  O103  1  0.25000000  0.75000000  0.25000000  1.0 -0.8383113523
O  O104  1  0.75000000  0.25000000  0.25000000  1.0 -0.8383113523
