# DDEC6 charges by PACMAN v1.1 (https://github.com/mtap-research/PACMAN-charge/)
data_QEPQOU_ASR_pacman
_symmetry_space_group_name_H-M   'P 1'
_cell_length_a   35.87500000
_cell_length_b   35.87500000
_cell_length_c   35.87500000
_cell_angle_alpha   90.00000000
_cell_angle_beta   90.00000000
_cell_angle_gamma   90.00000000
_symmetry_Int_Tables_number   1
_chemical_formula_structural   Fe3H90C150O13
_chemical_formula_sum   'Fe24 H720 C1200 O104'
_cell_volume   46171.68554688
_cell_formula_units_Z   8
loop_
 _symmetry_equiv_pos_site_id
 _symmetry_equiv_pos_as_xyz
  1  'x, y, z'
loop_
 _atom_site_type_symbol
 _atom_site_label
 _atom_site_symmetry_multiplicity
 _atom_site_fract_x
 _atom_site_fract_y
 _atom_site_fract_z
 _atom_site_occupancy
 _atom_site_charge
Fe  Fe1  1  0.21255000  0.28745000  0.25000000  1.0 0.8397984079
Fe  Fe2  1  0.78745000  0.71255000  0.25000000  1.0 0.8397984079
Fe  Fe3  1  0.78745000  0.28745000  0.75000000  1.0 0.8397984079
Fe  Fe4  1  0.21255000  0.71255000  0.75000000  1.0 0.8397984079
Fe  Fe5  1  0.25000000  0.21255000  0.28745000  1.0 0.8397984079
Fe  Fe6  1  0.25000000  0.78745000  0.71255000  1.0 0.8397984079
Fe  Fe7  1  0.75000000  0.78745000  0.28745000  1.0 0.8397984079
Fe  Fe8  1  0.75000000  0.21255000  0.71255000  1.0 0.8397984079
Fe  Fe9  1  0.28745000  0.25000000  0.21255000  1.0 0.8397984079
Fe  Fe10  1  0.71255000  0.25000000  0.78745000  1.0 0.8397984079
Fe  Fe11  1  0.28745000  0.75000000  0.78745000  1.0 0.8397984079
Fe  Fe12  1  0.71255000  0.75000000  0.21255000  1.0 0.8397984079
Fe  Fe13  1  0.78745000  0.71255000  0.75000000  1.0 0.8397984079
Fe  Fe14  1  0.21255000  0.28745000  0.75000000  1.0 0.8397984079
Fe  Fe15  1  0.21255000  0.71255000  0.25000000  1.0 0.8397984079
Fe  Fe16  1  0.78745000  0.28745000  0.25000000  1.0 0.8397984079
Fe  Fe17  1  0.75000000  0.78745000  0.71255000  1.0 0.8397984079
Fe  Fe18  1  0.75000000  0.21255000  0.28745000  1.0 0.8397984079
Fe  Fe19  1  0.25000000  0.21255000  0.71255000  1.0 0.8397984079
Fe  Fe20  1  0.25000000  0.78745000  0.28745000  1.0 0.8397984079
Fe  Fe21  1  0.71255000  0.75000000  0.78745000  1.0 0.8397984079
Fe  Fe22  1  0.28745000  0.75000000  0.21255000  1.0 0.8397984079
Fe  Fe23  1  0.71255000  0.25000000  0.21255000  1.0 0.8397984079
Fe  Fe24  1  0.28745000  0.25000000  0.78745000  1.0 0.8397984079
H  H1  1  0.15100000  0.28110000  0.14700000  1.0 0.1009321318
H  H2  1  0.11930000  0.26790000  0.09160000  1.0 0.0904000956
H  H3  1  0.20770000  0.20760000  0.05540000  1.0 0.0904000956
H  H4  1  0.23940000  0.22090000  0.11080000  1.0 0.1009321318
H  H5  1  0.08570000  0.22340000  0.05620000  1.0 0.1166755872
H  H6  1  0.03320000  0.24100000  0.94860000  1.0 0.0904000956
H  H7  1  0.03320000  0.19520000  0.05130000  1.0 0.1166755872
H  H8  1  0.15730000  0.30820000  0.15530000  1.0 0.1009321318
H  H9  1  0.12240000  0.31070000  0.10030000  1.0 0.0904000956
H  H10  1  0.20070000  0.24850000  0.04780000  1.0 0.0904000956
H  H11  1  0.23560000  0.24600000  0.10280000  1.0 0.1009321318
H  H12  1  0.08520000  0.29240000  0.05600000  1.0 0.1089489897
H  H13  1  0.03310000  0.31720000  0.95000000  1.0 0.1166755872
H  H14  1  0.03310000  0.26510000  0.05000000  1.0 0.0904000956
H  H15  1  0.84900000  0.71890000  0.14700000  1.0 0.1009321318
H  H16  1  0.88070000  0.73210000  0.09160000  1.0 0.0904000956
H  H17  1  0.79230000  0.79240000  0.05540000  1.0 0.0904000956
H  H18  1  0.76060000  0.77910000  0.11080000  1.0 0.1009321318
H  H19  1  0.91430000  0.77660000  0.05620000  1.0 0.1166755872
H  H20  1  0.96680000  0.75900000  0.94860000  1.0 0.0904000956
H  H21  1  0.96680000  0.80480000  0.05130000  1.0 0.1166755872
H  H22  1  0.84270000  0.69180000  0.15530000  1.0 0.1009321318
H  H23  1  0.87760000  0.68930000  0.10030000  1.0 0.0904000956
H  H24  1  0.79930000  0.75150000  0.04780000  1.0 0.0904000956
H  H25  1  0.76440000  0.75400000  0.10280000  1.0 0.1009321318
H  H26  1  0.91480000  0.70760000  0.05600000  1.0 0.1089489897
H  H27  1  0.96690000  0.68280000  0.95000000  1.0 0.1166755872
H  H28  1  0.96690000  0.73490000  0.05000000  1.0 0.0904000956
H  H29  1  0.84900000  0.28110000  0.85300000  1.0 0.1009321318
H  H30  1  0.88070000  0.26790000  0.90840000  1.0 0.0904000956
H  H31  1  0.79230000  0.20760000  0.94460000  1.0 0.0904000956
H  H32  1  0.76060000  0.22090000  0.88920000  1.0 0.1009321318
H  H33  1  0.91430000  0.22340000  0.94380000  1.0 0.1166755872
H  H34  1  0.96680000  0.24100000  0.05140000  1.0 0.0904000956
H  H35  1  0.96680000  0.19520000  0.94870000  1.0 0.1166755872
H  H36  1  0.84270000  0.30820000  0.84470000  1.0 0.1009321318
H  H37  1  0.87760000  0.31070000  0.89970000  1.0 0.0904000956
H  H38  1  0.79930000  0.24850000  0.95220000  1.0 0.0904000956
H  H39  1  0.76440000  0.24600000  0.89720000  1.0 0.1009321318
H  H40  1  0.91480000  0.29240000  0.94400000  1.0 0.1089489897
H  H41  1  0.96690000  0.31720000  0.05000000  1.0 0.1166755872
H  H42  1  0.96690000  0.26510000  0.95000000  1.0 0.0904000956
H  H43  1  0.15100000  0.71890000  0.85300000  1.0 0.1009321318
H  H44  1  0.11930000  0.73210000  0.90840000  1.0 0.0904000956
H  H45  1  0.20770000  0.79240000  0.94460000  1.0 0.0904000956
H  H46  1  0.23940000  0.77910000  0.88920000  1.0 0.1009321318
H  H47  1  0.08570000  0.77660000  0.94380000  1.0 0.1166755872
H  H48  1  0.03320000  0.75900000  0.05140000  1.0 0.0904000956
H  H49  1  0.03320000  0.80480000  0.94870000  1.0 0.1166755872
H  H50  1  0.15730000  0.69180000  0.84470000  1.0 0.1009321318
H  H51  1  0.12240000  0.68930000  0.89970000  1.0 0.0904000956
H  H52  1  0.20070000  0.75150000  0.95220000  1.0 0.0904000956
H  H53  1  0.23560000  0.75400000  0.89720000  1.0 0.1009321318
H  H54  1  0.08520000  0.70760000  0.94400000  1.0 0.1089489897
H  H55  1  0.03310000  0.68280000  0.05000000  1.0 0.1166755872
H  H56  1  0.03310000  0.73490000  0.95000000  1.0 0.0904000956
H  H57  1  0.14700000  0.15100000  0.28110000  1.0 0.1009321318
H  H58  1  0.09160000  0.11930000  0.26790000  1.0 0.0904000956
H  H59  1  0.05540000  0.20770000  0.20760000  1.0 0.0904000956
H  H60  1  0.11080000  0.23940000  0.22090000  1.0 0.1009321318
H  H61  1  0.05620000  0.08570000  0.22340000  1.0 0.1166755872
H  H62  1  0.94860000  0.03320000  0.24100000  1.0 0.0904000956
H  H63  1  0.05130000  0.03320000  0.19520000  1.0 0.1166755872
H  H64  1  0.15530000  0.15730000  0.30820000  1.0 0.1009321318
H  H65  1  0.10030000  0.12240000  0.31070000  1.0 0.0904000956
H  H66  1  0.04780000  0.20070000  0.24850000  1.0 0.0904000956
H  H67  1  0.10280000  0.23560000  0.24600000  1.0 0.1009321318
H  H68  1  0.05600000  0.08520000  0.29240000  1.0 0.1089489897
H  H69  1  0.95000000  0.03310000  0.31720000  1.0 0.1166755872
H  H70  1  0.05000000  0.03310000  0.26510000  1.0 0.0904000956
H  H71  1  0.14700000  0.84900000  0.71890000  1.0 0.1009321318
H  H72  1  0.09160000  0.88070000  0.73210000  1.0 0.0904000956
H  H73  1  0.05540000  0.79230000  0.79240000  1.0 0.0904000956
H  H74  1  0.11080000  0.76060000  0.77910000  1.0 0.1009321318
H  H75  1  0.05620000  0.91430000  0.77660000  1.0 0.1166755872
H  H76  1  0.94860000  0.96680000  0.75900000  1.0 0.0904000956
H  H77  1  0.05130000  0.96680000  0.80480000  1.0 0.1166755872
H  H78  1  0.15530000  0.84270000  0.69180000  1.0 0.1009321318
H  H79  1  0.10030000  0.87760000  0.68930000  1.0 0.0904000956
H  H80  1  0.04780000  0.79930000  0.75150000  1.0 0.0904000956
H  H81  1  0.10280000  0.76440000  0.75400000  1.0 0.1009321318
H  H82  1  0.05600000  0.91480000  0.70760000  1.0 0.1089489897
H  H83  1  0.95000000  0.96690000  0.68280000  1.0 0.1166755872
H  H84  1  0.05000000  0.96690000  0.73490000  1.0 0.0904000956
H  H85  1  0.85300000  0.84900000  0.28110000  1.0 0.1009321318
H  H86  1  0.90840000  0.88070000  0.26790000  1.0 0.0904000956
H  H87  1  0.94460000  0.79230000  0.20760000  1.0 0.0904000956
H  H88  1  0.88920000  0.76060000  0.22090000  1.0 0.1009321318
H  H89  1  0.94380000  0.91430000  0.22340000  1.0 0.1166755872
H  H90  1  0.05140000  0.96680000  0.24100000  1.0 0.0904000956
H  H91  1  0.94870000  0.96680000  0.19520000  1.0 0.1166755872
H  H92  1  0.84470000  0.84270000  0.30820000  1.0 0.1009321318
H  H93  1  0.89970000  0.87760000  0.31070000  1.0 0.0904000956
H  H94  1  0.95220000  0.79930000  0.24850000  1.0 0.0904000956
H  H95  1  0.89720000  0.76440000  0.24600000  1.0 0.1009321318
H  H96  1  0.94400000  0.91480000  0.29240000  1.0 0.1089489897
H  H97  1  0.05000000  0.96690000  0.31720000  1.0 0.1166755872
H  H98  1  0.95000000  0.96690000  0.26510000  1.0 0.0904000956
H  H99  1  0.85300000  0.15100000  0.71890000  1.0 0.1009321318
H  H100  1  0.90840000  0.11930000  0.73210000  1.0 0.0904000956
H  H101  1  0.94460000  0.20770000  0.79240000  1.0 0.0904000956
H  H102  1  0.88920000  0.23940000  0.77910000  1.0 0.1009321318
H  H103  1  0.94380000  0.08570000  0.77660000  1.0 0.1166755872
H  H104  1  0.05140000  0.03320000  0.75900000  1.0 0.0904000956
H  H105  1  0.94870000  0.03320000  0.80480000  1.0 0.1166755872
H  H106  1  0.84470000  0.15730000  0.69180000  1.0 0.1009321318
H  H107  1  0.89970000  0.12240000  0.68930000  1.0 0.0904000956
H  H108  1  0.95220000  0.20070000  0.75150000  1.0 0.0904000956
H  H109  1  0.89720000  0.23560000  0.75400000  1.0 0.1009321318
H  H110  1  0.94400000  0.08520000  0.70760000  1.0 0.1089489897
H  H111  1  0.05000000  0.03310000  0.68280000  1.0 0.1166755872
H  H112  1  0.95000000  0.03310000  0.73490000  1.0 0.0904000956
H  H113  1  0.28110000  0.14700000  0.15100000  1.0 0.1009321318
H  H114  1  0.26790000  0.09160000  0.11930000  1.0 0.0904000956
H  H115  1  0.20760000  0.05540000  0.20770000  1.0 0.0904000956
H  H116  1  0.22090000  0.11080000  0.23940000  1.0 0.1009321318
H  H117  1  0.22340000  0.05620000  0.08570000  1.0 0.1166755872
H  H118  1  0.24100000  0.94860000  0.03320000  1.0 0.0904000956
H  H119  1  0.19520000  0.05130000  0.03320000  1.0 0.1166755872
H  H120  1  0.30820000  0.15530000  0.15730000  1.0 0.1009321318
H  H121  1  0.31070000  0.10030000  0.12240000  1.0 0.0904000956
H  H122  1  0.24850000  0.04780000  0.20070000  1.0 0.0904000956
H  H123  1  0.24600000  0.10280000  0.23560000  1.0 0.1009321318
H  H124  1  0.29240000  0.05600000  0.08520000  1.0 0.1089489897
H  H125  1  0.31720000  0.95000000  0.03310000  1.0 0.1166755872
H  H126  1  0.26510000  0.05000000  0.03310000  1.0 0.0904000956
H  H127  1  0.71890000  0.14700000  0.84900000  1.0 0.1009321318
H  H128  1  0.73210000  0.09160000  0.88070000  1.0 0.0904000956
H  H129  1  0.79240000  0.05540000  0.79230000  1.0 0.0904000956
H  H130  1  0.77910000  0.11080000  0.76060000  1.0 0.1009321318
H  H131  1  0.77660000  0.05620000  0.91430000  1.0 0.1166755872
H  H132  1  0.75900000  0.94860000  0.96680000  1.0 0.0904000956
H  H133  1  0.80480000  0.05130000  0.96680000  1.0 0.1166755872
H  H134  1  0.69180000  0.15530000  0.84270000  1.0 0.1009321318
H  H135  1  0.68930000  0.10030000  0.87760000  1.0 0.0904000956
H  H136  1  0.75150000  0.04780000  0.79930000  1.0 0.0904000956
H  H137  1  0.75400000  0.10280000  0.76440000  1.0 0.1009321318
H  H138  1  0.70760000  0.05600000  0.91480000  1.0 0.1089489897
H  H139  1  0.68280000  0.95000000  0.96690000  1.0 0.1166755872
H  H140  1  0.73490000  0.05000000  0.96690000  1.0 0.0904000956
H  H141  1  0.28110000  0.85300000  0.84900000  1.0 0.1009321318
H  H142  1  0.26790000  0.90840000  0.88070000  1.0 0.0904000956
H  H143  1  0.20760000  0.94460000  0.79230000  1.0 0.0904000956
H  H144  1  0.22090000  0.88920000  0.76060000  1.0 0.1009321318
H  H145  1  0.22340000  0.94380000  0.91430000  1.0 0.1166755872
H  H146  1  0.24100000  0.05140000  0.96680000  1.0 0.0904000956
H  H147  1  0.19520000  0.94870000  0.96680000  1.0 0.1166755872
H  H148  1  0.30820000  0.84470000  0.84270000  1.0 0.1009321318
H  H149  1  0.31070000  0.89970000  0.87760000  1.0 0.0904000956
H  H150  1  0.24850000  0.95220000  0.79930000  1.0 0.0904000956
H  H151  1  0.24600000  0.89720000  0.76440000  1.0 0.1009321318
H  H152  1  0.29240000  0.94400000  0.91480000  1.0 0.1089489897
H  H153  1  0.31720000  0.05000000  0.96690000  1.0 0.1166755872
H  H154  1  0.26510000  0.95000000  0.96690000  1.0 0.0904000956
H  H155  1  0.71890000  0.85300000  0.15100000  1.0 0.1009321318
H  H156  1  0.73210000  0.90840000  0.11930000  1.0 0.0904000956
H  H157  1  0.79240000  0.94460000  0.20770000  1.0 0.0904000956
H  H158  1  0.77910000  0.88920000  0.23940000  1.0 0.1009321318
H  H159  1  0.77660000  0.94380000  0.08570000  1.0 0.1166755872
H  H160  1  0.75900000  0.05140000  0.03320000  1.0 0.0904000956
H  H161  1  0.80480000  0.94870000  0.03320000  1.0 0.1166755872
H  H162  1  0.69180000  0.84470000  0.15730000  1.0 0.1009321318
H  H163  1  0.68930000  0.89970000  0.12240000  1.0 0.0904000956
H  H164  1  0.75150000  0.95220000  0.20070000  1.0 0.0904000956
H  H165  1  0.75400000  0.89720000  0.23560000  1.0 0.1009321318
H  H166  1  0.70760000  0.94400000  0.08520000  1.0 0.1089489897
H  H167  1  0.68280000  0.05000000  0.03310000  1.0 0.1166755872
H  H168  1  0.73490000  0.95000000  0.03310000  1.0 0.0904000956
H  H169  1  0.78110000  0.65100000  0.35300000  1.0 0.1009321318
H  H170  1  0.76790000  0.61930000  0.40840000  1.0 0.0904000956
H  H171  1  0.70760000  0.70770000  0.44460000  1.0 0.0904000956
H  H172  1  0.72090000  0.73940000  0.38920000  1.0 0.1009321318
H  H173  1  0.72340000  0.58570000  0.44380000  1.0 0.1166755872
H  H174  1  0.74100000  0.53320000  0.55140000  1.0 0.0904000956
H  H175  1  0.69520000  0.53320000  0.44870000  1.0 0.1166755872
H  H176  1  0.80820000  0.65730000  0.34470000  1.0 0.1009321318
H  H177  1  0.81070000  0.62240000  0.39970000  1.0 0.0904000956
H  H178  1  0.74850000  0.70070000  0.45220000  1.0 0.0904000956
H  H179  1  0.74600000  0.73560000  0.39720000  1.0 0.1009321318
H  H180  1  0.79240000  0.58520000  0.44400000  1.0 0.1089489897
H  H181  1  0.81720000  0.53310000  0.55000000  1.0 0.1166755872
H  H182  1  0.76510000  0.53310000  0.45000000  1.0 0.0904000956
H  H183  1  0.21890000  0.34900000  0.35300000  1.0 0.1009321318
H  H184  1  0.23210000  0.38070000  0.40840000  1.0 0.0904000956
H  H185  1  0.29240000  0.29230000  0.44460000  1.0 0.0904000956
H  H186  1  0.27910000  0.26060000  0.38920000  1.0 0.1009321318
H  H187  1  0.27660000  0.41430000  0.44380000  1.0 0.1166755872
H  H188  1  0.25900000  0.46680000  0.55140000  1.0 0.0904000956
H  H189  1  0.30480000  0.46680000  0.44870000  1.0 0.1166755872
H  H190  1  0.19180000  0.34270000  0.34470000  1.0 0.1009321318
H  H191  1  0.18930000  0.37760000  0.39970000  1.0 0.0904000956
H  H192  1  0.25150000  0.29930000  0.45220000  1.0 0.0904000956
H  H193  1  0.25400000  0.26440000  0.39720000  1.0 0.1009321318
H  H194  1  0.20760000  0.41480000  0.44400000  1.0 0.1089489897
H  H195  1  0.18280000  0.46690000  0.55000000  1.0 0.1166755872
H  H196  1  0.23490000  0.46690000  0.45000000  1.0 0.0904000956
H  H197  1  0.78110000  0.34900000  0.64700000  1.0 0.1009321318
H  H198  1  0.76790000  0.38070000  0.59160000  1.0 0.0904000956
H  H199  1  0.70760000  0.29230000  0.55540000  1.0 0.0904000956
H  H200  1  0.72090000  0.26060000  0.61080000  1.0 0.1009321318
H  H201  1  0.72340000  0.41430000  0.55620000  1.0 0.1166755872
H  H202  1  0.74100000  0.46680000  0.44860000  1.0 0.0904000956
H  H203  1  0.69520000  0.46680000  0.55130000  1.0 0.1166755872
H  H204  1  0.80820000  0.34270000  0.65530000  1.0 0.1009321318
H  H205  1  0.81070000  0.37760000  0.60030000  1.0 0.0904000956
H  H206  1  0.74850000  0.29930000  0.54780000  1.0 0.0904000956
H  H207  1  0.74600000  0.26440000  0.60280000  1.0 0.1009321318
H  H208  1  0.79240000  0.41480000  0.55600000  1.0 0.1089489897
H  H209  1  0.81720000  0.46690000  0.45000000  1.0 0.1166755872
H  H210  1  0.76510000  0.46690000  0.55000000  1.0 0.0904000956
H  H211  1  0.21890000  0.65100000  0.64700000  1.0 0.1009321318
H  H212  1  0.23210000  0.61930000  0.59160000  1.0 0.0904000956
H  H213  1  0.29240000  0.70770000  0.55540000  1.0 0.0904000956
H  H214  1  0.27910000  0.73940000  0.61080000  1.0 0.1009321318
H  H215  1  0.27660000  0.58570000  0.55620000  1.0 0.1166755872
H  H216  1  0.25900000  0.53320000  0.44860000  1.0 0.0904000956
H  H217  1  0.30480000  0.53320000  0.55130000  1.0 0.1166755872
H  H218  1  0.19180000  0.65730000  0.65530000  1.0 0.1009321318
H  H219  1  0.18930000  0.62240000  0.60030000  1.0 0.0904000956
H  H220  1  0.25150000  0.70070000  0.54780000  1.0 0.0904000956
H  H221  1  0.25400000  0.73560000  0.60280000  1.0 0.1009321318
H  H222  1  0.20760000  0.58520000  0.55600000  1.0 0.1089489897
H  H223  1  0.18280000  0.53310000  0.45000000  1.0 0.1166755872
H  H224  1  0.23490000  0.53310000  0.55000000  1.0 0.0904000956
H  H225  1  0.65100000  0.64700000  0.21890000  1.0 0.1009321318
H  H226  1  0.61930000  0.59160000  0.23210000  1.0 0.0904000956
H  H227  1  0.70770000  0.55540000  0.29240000  1.0 0.0904000956
H  H228  1  0.73940000  0.61080000  0.27910000  1.0 0.1009321318
H  H229  1  0.58570000  0.55620000  0.27660000  1.0 0.1166755872
H  H230  1  0.53320000  0.44860000  0.25900000  1.0 0.0904000956
H  H231  1  0.53320000  0.55130000  0.30480000  1.0 0.1166755872
H  H232  1  0.65730000  0.65530000  0.19180000  1.0 0.1009321318
H  H233  1  0.62240000  0.60030000  0.18930000  1.0 0.0904000956
H  H234  1  0.70070000  0.54780000  0.25150000  1.0 0.0904000956
H  H235  1  0.73560000  0.60280000  0.25400000  1.0 0.1009321318
H  H236  1  0.58520000  0.55600000  0.20760000  1.0 0.1089489897
H  H237  1  0.53310000  0.45000000  0.18280000  1.0 0.1166755872
H  H238  1  0.53310000  0.55000000  0.23490000  1.0 0.0904000956
H  H239  1  0.34900000  0.64700000  0.78110000  1.0 0.1009321318
H  H240  1  0.38070000  0.59160000  0.76790000  1.0 0.0904000956
H  H241  1  0.29230000  0.55540000  0.70760000  1.0 0.0904000956
H  H242  1  0.26060000  0.61080000  0.72090000  1.0 0.1009321318
H  H243  1  0.41430000  0.55620000  0.72340000  1.0 0.1166755872
H  H244  1  0.46680000  0.44860000  0.74100000  1.0 0.0904000956
H  H245  1  0.46680000  0.55130000  0.69520000  1.0 0.1166755872
H  H246  1  0.34270000  0.65530000  0.80820000  1.0 0.1009321318
H  H247  1  0.37760000  0.60030000  0.81070000  1.0 0.0904000956
H  H248  1  0.29930000  0.54780000  0.74850000  1.0 0.0904000956
H  H249  1  0.26440000  0.60280000  0.74600000  1.0 0.1009321318
H  H250  1  0.41480000  0.55600000  0.79240000  1.0 0.1089489897
H  H251  1  0.46690000  0.45000000  0.81720000  1.0 0.1166755872
H  H252  1  0.46690000  0.55000000  0.76510000  1.0 0.0904000956
H  H253  1  0.34900000  0.35300000  0.21890000  1.0 0.1009321318
H  H254  1  0.38070000  0.40840000  0.23210000  1.0 0.0904000956
H  H255  1  0.29230000  0.44460000  0.29240000  1.0 0.0904000956
H  H256  1  0.26060000  0.38920000  0.27910000  1.0 0.1009321318
H  H257  1  0.41430000  0.44380000  0.27660000  1.0 0.1166755872
H  H258  1  0.46680000  0.55140000  0.25900000  1.0 0.0904000956
H  H259  1  0.46680000  0.44870000  0.30480000  1.0 0.1166755872
H  H260  1  0.34270000  0.34470000  0.19180000  1.0 0.1009321318
H  H261  1  0.37760000  0.39970000  0.18930000  1.0 0.0904000956
H  H262  1  0.29930000  0.45220000  0.25150000  1.0 0.0904000956
H  H263  1  0.26440000  0.39720000  0.25400000  1.0 0.1009321318
H  H264  1  0.41480000  0.44400000  0.20760000  1.0 0.1089489897
H  H265  1  0.46690000  0.55000000  0.18280000  1.0 0.1166755872
H  H266  1  0.46690000  0.45000000  0.23490000  1.0 0.0904000956
H  H267  1  0.65100000  0.35300000  0.78110000  1.0 0.1009321318
H  H268  1  0.61930000  0.40840000  0.76790000  1.0 0.0904000956
H  H269  1  0.70770000  0.44460000  0.70760000  1.0 0.0904000956
H  H270  1  0.73940000  0.38920000  0.72090000  1.0 0.1009321318
H  H271  1  0.58570000  0.44380000  0.72340000  1.0 0.1166755872
H  H272  1  0.53320000  0.55140000  0.74100000  1.0 0.0904000956
H  H273  1  0.53320000  0.44870000  0.69520000  1.0 0.1166755872
H  H274  1  0.65730000  0.34470000  0.80820000  1.0 0.1009321318
H  H275  1  0.62240000  0.39970000  0.81070000  1.0 0.0904000956
H  H276  1  0.70070000  0.45220000  0.74850000  1.0 0.0904000956
H  H277  1  0.73560000  0.39720000  0.74600000  1.0 0.1009321318
H  H278  1  0.58520000  0.44400000  0.79240000  1.0 0.1089489897
H  H279  1  0.53310000  0.55000000  0.81720000  1.0 0.1166755872
H  H280  1  0.53310000  0.45000000  0.76510000  1.0 0.0904000956
H  H281  1  0.64700000  0.78110000  0.34900000  1.0 0.1009321318
H  H282  1  0.59160000  0.76790000  0.38070000  1.0 0.0904000956
H  H283  1  0.55540000  0.70760000  0.29230000  1.0 0.0904000956
H  H284  1  0.61080000  0.72090000  0.26060000  1.0 0.1009321318
H  H285  1  0.55620000  0.72340000  0.41430000  1.0 0.1166755872
H  H286  1  0.44860000  0.74100000  0.46680000  1.0 0.0904000956
H  H287  1  0.55130000  0.69520000  0.46680000  1.0 0.1166755872
H  H288  1  0.65530000  0.80820000  0.34270000  1.0 0.1009321318
H  H289  1  0.60030000  0.81070000  0.37760000  1.0 0.0904000956
H  H290  1  0.54780000  0.74850000  0.29930000  1.0 0.0904000956
H  H291  1  0.60280000  0.74600000  0.26440000  1.0 0.1009321318
H  H292  1  0.55600000  0.79240000  0.41480000  1.0 0.1089489897
H  H293  1  0.45000000  0.81720000  0.46690000  1.0 0.1166755872
H  H294  1  0.55000000  0.76510000  0.46690000  1.0 0.0904000956
H  H295  1  0.64700000  0.21890000  0.65100000  1.0 0.1009321318
H  H296  1  0.59160000  0.23210000  0.61930000  1.0 0.0904000956
H  H297  1  0.55540000  0.29240000  0.70770000  1.0 0.0904000956
H  H298  1  0.61080000  0.27910000  0.73940000  1.0 0.1009321318
H  H299  1  0.55620000  0.27660000  0.58570000  1.0 0.1166755872
H  H300  1  0.44860000  0.25900000  0.53320000  1.0 0.0904000956
H  H301  1  0.55130000  0.30480000  0.53320000  1.0 0.1166755872
H  H302  1  0.65530000  0.19180000  0.65730000  1.0 0.1009321318
H  H303  1  0.60030000  0.18930000  0.62240000  1.0 0.0904000956
H  H304  1  0.54780000  0.25150000  0.70070000  1.0 0.0904000956
H  H305  1  0.60280000  0.25400000  0.73560000  1.0 0.1009321318
H  H306  1  0.55600000  0.20760000  0.58520000  1.0 0.1089489897
H  H307  1  0.45000000  0.18280000  0.53310000  1.0 0.1166755872
H  H308  1  0.55000000  0.23490000  0.53310000  1.0 0.0904000956
H  H309  1  0.35300000  0.78110000  0.65100000  1.0 0.1009321318
H  H310  1  0.40840000  0.76790000  0.61930000  1.0 0.0904000956
H  H311  1  0.44460000  0.70760000  0.70770000  1.0 0.0904000956
H  H312  1  0.38920000  0.72090000  0.73940000  1.0 0.1009321318
H  H313  1  0.44380000  0.72340000  0.58570000  1.0 0.1166755872
H  H314  1  0.55140000  0.74100000  0.53320000  1.0 0.0904000956
H  H315  1  0.44870000  0.69520000  0.53320000  1.0 0.1166755872
H  H316  1  0.34470000  0.80820000  0.65730000  1.0 0.1009321318
H  H317  1  0.39970000  0.81070000  0.62240000  1.0 0.0904000956
H  H318  1  0.45220000  0.74850000  0.70070000  1.0 0.0904000956
H  H319  1  0.39720000  0.74600000  0.73560000  1.0 0.1009321318
H  H320  1  0.44400000  0.79240000  0.58520000  1.0 0.1089489897
H  H321  1  0.55000000  0.81720000  0.53310000  1.0 0.1166755872
H  H322  1  0.45000000  0.76510000  0.53310000  1.0 0.0904000956
H  H323  1  0.35300000  0.21890000  0.34900000  1.0 0.1009321318
H  H324  1  0.40840000  0.23210000  0.38070000  1.0 0.0904000956
H  H325  1  0.44460000  0.29240000  0.29230000  1.0 0.0904000956
H  H326  1  0.38920000  0.27910000  0.26060000  1.0 0.1009321318
H  H327  1  0.44380000  0.27660000  0.41430000  1.0 0.1166755872
H  H328  1  0.55140000  0.25900000  0.46680000  1.0 0.0904000956
H  H329  1  0.44870000  0.30480000  0.46680000  1.0 0.1166755872
H  H330  1  0.34470000  0.19180000  0.34270000  1.0 0.1009321318
H  H331  1  0.39970000  0.18930000  0.37760000  1.0 0.0904000956
H  H332  1  0.45220000  0.25150000  0.29930000  1.0 0.0904000956
H  H333  1  0.39720000  0.25400000  0.26440000  1.0 0.1009321318
H  H334  1  0.44400000  0.20760000  0.41480000  1.0 0.1089489897
H  H335  1  0.55000000  0.18280000  0.46690000  1.0 0.1166755872
H  H336  1  0.45000000  0.23490000  0.46690000  1.0 0.0904000956
H  H337  1  0.84900000  0.71890000  0.85300000  1.0 0.1009321318
H  H338  1  0.88070000  0.73210000  0.90840000  1.0 0.0904000956
H  H339  1  0.79230000  0.79240000  0.94460000  1.0 0.0904000956
H  H340  1  0.76060000  0.77910000  0.88920000  1.0 0.1009321318
H  H341  1  0.91430000  0.77660000  0.94380000  1.0 0.1166755872
H  H342  1  0.96680000  0.75900000  0.05140000  1.0 0.0904000956
H  H343  1  0.96680000  0.80480000  0.94870000  1.0 0.1166755872
H  H344  1  0.84270000  0.69180000  0.84470000  1.0 0.1009321318
H  H345  1  0.87760000  0.68930000  0.89970000  1.0 0.0904000956
H  H346  1  0.79930000  0.75150000  0.95220000  1.0 0.0904000956
H  H347  1  0.76440000  0.75400000  0.89720000  1.0 0.1009321318
H  H348  1  0.91480000  0.70760000  0.94400000  1.0 0.1089489897
H  H349  1  0.96690000  0.68280000  0.05000000  1.0 0.1166755872
H  H350  1  0.96690000  0.73490000  0.95000000  1.0 0.0904000956
H  H351  1  0.15100000  0.28110000  0.85300000  1.0 0.1009321318
H  H352  1  0.11930000  0.26790000  0.90840000  1.0 0.0904000956
H  H353  1  0.20770000  0.20760000  0.94460000  1.0 0.0904000956
H  H354  1  0.23940000  0.22090000  0.88920000  1.0 0.1009321318
H  H355  1  0.08570000  0.22340000  0.94380000  1.0 0.1166755872
H  H356  1  0.03320000  0.24100000  0.05140000  1.0 0.0904000956
H  H357  1  0.03320000  0.19520000  0.94870000  1.0 0.1166755872
H  H358  1  0.15730000  0.30820000  0.84470000  1.0 0.1009321318
H  H359  1  0.12240000  0.31070000  0.89970000  1.0 0.0904000956
H  H360  1  0.20070000  0.24850000  0.95220000  1.0 0.0904000956
H  H361  1  0.23560000  0.24600000  0.89720000  1.0 0.1009321318
H  H362  1  0.08520000  0.29240000  0.94400000  1.0 0.1089489897
H  H363  1  0.03310000  0.31720000  0.05000000  1.0 0.1166755872
H  H364  1  0.03310000  0.26510000  0.95000000  1.0 0.0904000956
H  H365  1  0.15100000  0.71890000  0.14700000  1.0 0.1009321318
H  H366  1  0.11930000  0.73210000  0.09160000  1.0 0.0904000956
H  H367  1  0.20770000  0.79240000  0.05540000  1.0 0.0904000956
H  H368  1  0.23940000  0.77910000  0.11080000  1.0 0.1009321318
H  H369  1  0.08570000  0.77660000  0.05620000  1.0 0.1166755872
H  H370  1  0.03320000  0.75900000  0.94860000  1.0 0.0904000956
H  H371  1  0.03320000  0.80480000  0.05130000  1.0 0.1166755872
H  H372  1  0.15730000  0.69180000  0.15530000  1.0 0.1009321318
H  H373  1  0.12240000  0.68930000  0.10030000  1.0 0.0904000956
H  H374  1  0.20070000  0.75150000  0.04780000  1.0 0.0904000956
H  H375  1  0.23560000  0.75400000  0.10280000  1.0 0.1009321318
H  H376  1  0.08520000  0.70760000  0.05600000  1.0 0.1089489897
H  H377  1  0.03310000  0.68280000  0.95000000  1.0 0.1166755872
H  H378  1  0.03310000  0.73490000  0.05000000  1.0 0.0904000956
H  H379  1  0.84900000  0.28110000  0.14700000  1.0 0.1009321318
H  H380  1  0.88070000  0.26790000  0.09160000  1.0 0.0904000956
H  H381  1  0.79230000  0.20760000  0.05540000  1.0 0.0904000956
H  H382  1  0.76060000  0.22090000  0.11080000  1.0 0.1009321318
H  H383  1  0.91430000  0.22340000  0.05620000  1.0 0.1166755872
H  H384  1  0.96680000  0.24100000  0.94860000  1.0 0.0904000956
H  H385  1  0.96680000  0.19520000  0.05130000  1.0 0.1166755872
H  H386  1  0.84270000  0.30820000  0.15530000  1.0 0.1009321318
H  H387  1  0.87760000  0.31070000  0.10030000  1.0 0.0904000956
H  H388  1  0.79930000  0.24850000  0.04780000  1.0 0.0904000956
H  H389  1  0.76440000  0.24600000  0.10280000  1.0 0.1009321318
H  H390  1  0.91480000  0.29240000  0.05600000  1.0 0.1089489897
H  H391  1  0.96690000  0.31720000  0.95000000  1.0 0.1166755872
H  H392  1  0.96690000  0.26510000  0.05000000  1.0 0.0904000956
H  H393  1  0.85300000  0.84900000  0.71890000  1.0 0.1009321318
H  H394  1  0.90840000  0.88070000  0.73210000  1.0 0.0904000956
H  H395  1  0.94460000  0.79230000  0.79240000  1.0 0.0904000956
H  H396  1  0.88920000  0.76060000  0.77910000  1.0 0.1009321318
H  H397  1  0.94380000  0.91430000  0.77660000  1.0 0.1166755872
H  H398  1  0.05140000  0.96680000  0.75900000  1.0 0.0904000956
H  H399  1  0.94870000  0.96680000  0.80480000  1.0 0.1166755872
H  H400  1  0.84470000  0.84270000  0.69180000  1.0 0.1009321318
H  H401  1  0.89970000  0.87760000  0.68930000  1.0 0.0904000956
H  H402  1  0.95220000  0.79930000  0.75150000  1.0 0.0904000956
H  H403  1  0.89720000  0.76440000  0.75400000  1.0 0.1009321318
H  H404  1  0.94400000  0.91480000  0.70760000  1.0 0.1089489897
H  H405  1  0.05000000  0.96690000  0.68280000  1.0 0.1166755872
H  H406  1  0.95000000  0.96690000  0.73490000  1.0 0.0904000956
H  H407  1  0.85300000  0.15100000  0.28110000  1.0 0.1009321318
H  H408  1  0.90840000  0.11930000  0.26790000  1.0 0.0904000956
H  H409  1  0.94460000  0.20770000  0.20760000  1.0 0.0904000956
H  H410  1  0.88920000  0.23940000  0.22090000  1.0 0.1009321318
H  H411  1  0.94380000  0.08570000  0.22340000  1.0 0.1166755872
H  H412  1  0.05140000  0.03320000  0.24100000  1.0 0.0904000956
H  H413  1  0.94870000  0.03320000  0.19520000  1.0 0.1166755872
H  H414  1  0.84470000  0.15730000  0.30820000  1.0 0.1009321318
H  H415  1  0.89970000  0.12240000  0.31070000  1.0 0.0904000956
H  H416  1  0.95220000  0.20070000  0.24850000  1.0 0.0904000956
H  H417  1  0.89720000  0.23560000  0.24600000  1.0 0.1009321318
H  H418  1  0.94400000  0.08520000  0.29240000  1.0 0.1089489897
H  H419  1  0.05000000  0.03310000  0.31720000  1.0 0.1166755872
H  H420  1  0.95000000  0.03310000  0.26510000  1.0 0.0904000956
H  H421  1  0.14700000  0.15100000  0.71890000  1.0 0.1009321318
H  H422  1  0.09160000  0.11930000  0.73210000  1.0 0.0904000956
H  H423  1  0.05540000  0.20770000  0.79240000  1.0 0.0904000956
H  H424  1  0.11080000  0.23940000  0.77910000  1.0 0.1009321318
H  H425  1  0.05620000  0.08570000  0.77660000  1.0 0.1166755872
H  H426  1  0.94860000  0.03320000  0.75900000  1.0 0.0904000956
H  H427  1  0.05130000  0.03320000  0.80480000  1.0 0.1166755872
H  H428  1  0.15530000  0.15730000  0.69180000  1.0 0.1009321318
H  H429  1  0.10030000  0.12240000  0.68930000  1.0 0.0904000956
H  H430  1  0.04780000  0.20070000  0.75150000  1.0 0.0904000956
H  H431  1  0.10280000  0.23560000  0.75400000  1.0 0.1009321318
H  H432  1  0.05600000  0.08520000  0.70760000  1.0 0.1089489897
H  H433  1  0.95000000  0.03310000  0.68280000  1.0 0.1166755872
H  H434  1  0.05000000  0.03310000  0.73490000  1.0 0.0904000956
H  H435  1  0.14700000  0.84900000  0.28110000  1.0 0.1009321318
H  H436  1  0.09160000  0.88070000  0.26790000  1.0 0.0904000956
H  H437  1  0.05540000  0.79230000  0.20760000  1.0 0.0904000956
H  H438  1  0.11080000  0.76060000  0.22090000  1.0 0.1009321318
H  H439  1  0.05620000  0.91430000  0.22340000  1.0 0.1166755872
H  H440  1  0.94860000  0.96680000  0.24100000  1.0 0.0904000956
H  H441  1  0.05130000  0.96680000  0.19520000  1.0 0.1166755872
H  H442  1  0.15530000  0.84270000  0.30820000  1.0 0.1009321318
H  H443  1  0.10030000  0.87760000  0.31070000  1.0 0.0904000956
H  H444  1  0.04780000  0.79930000  0.24850000  1.0 0.0904000956
H  H445  1  0.10280000  0.76440000  0.24600000  1.0 0.1009321318
H  H446  1  0.05600000  0.91480000  0.29240000  1.0 0.1089489897
H  H447  1  0.95000000  0.96690000  0.31720000  1.0 0.1166755872
H  H448  1  0.05000000  0.96690000  0.26510000  1.0 0.0904000956
H  H449  1  0.71890000  0.85300000  0.84900000  1.0 0.1009321318
H  H450  1  0.73210000  0.90840000  0.88070000  1.0 0.0904000956
H  H451  1  0.79240000  0.94460000  0.79230000  1.0 0.0904000956
H  H452  1  0.77910000  0.88920000  0.76060000  1.0 0.1009321318
H  H453  1  0.77660000  0.94380000  0.91430000  1.0 0.1166755872
H  H454  1  0.75900000  0.05140000  0.96680000  1.0 0.0904000956
H  H455  1  0.80480000  0.94870000  0.96680000  1.0 0.1166755872
H  H456  1  0.69180000  0.84470000  0.84270000  1.0 0.1009321318
H  H457  1  0.68930000  0.89970000  0.87760000  1.0 0.0904000956
H  H458  1  0.75150000  0.95220000  0.79930000  1.0 0.0904000956
H  H459  1  0.75400000  0.89720000  0.76440000  1.0 0.1009321318
H  H460  1  0.70760000  0.94400000  0.91480000  1.0 0.1089489897
H  H461  1  0.68280000  0.05000000  0.96690000  1.0 0.1166755872
H  H462  1  0.73490000  0.95000000  0.96690000  1.0 0.0904000956
H  H463  1  0.28110000  0.85300000  0.15100000  1.0 0.1009321318
H  H464  1  0.26790000  0.90840000  0.11930000  1.0 0.0904000956
H  H465  1  0.20760000  0.94460000  0.20770000  1.0 0.0904000956
H  H466  1  0.22090000  0.88920000  0.23940000  1.0 0.1009321318
H  H467  1  0.22340000  0.94380000  0.08570000  1.0 0.1166755872
H  H468  1  0.24100000  0.05140000  0.03320000  1.0 0.0904000956
H  H469  1  0.19520000  0.94870000  0.03320000  1.0 0.1166755872
H  H470  1  0.30820000  0.84470000  0.15730000  1.0 0.1009321318
H  H471  1  0.31070000  0.89970000  0.12240000  1.0 0.0904000956
H  H472  1  0.24850000  0.95220000  0.20070000  1.0 0.0904000956
H  H473  1  0.24600000  0.89720000  0.23560000  1.0 0.1009321318
H  H474  1  0.29240000  0.94400000  0.08520000  1.0 0.1089489897
H  H475  1  0.31720000  0.05000000  0.03310000  1.0 0.1166755872
H  H476  1  0.26510000  0.95000000  0.03310000  1.0 0.0904000956
H  H477  1  0.71890000  0.14700000  0.15100000  1.0 0.1009321318
H  H478  1  0.73210000  0.09160000  0.11930000  1.0 0.0904000956
H  H479  1  0.79240000  0.05540000  0.20770000  1.0 0.0904000956
H  H480  1  0.77910000  0.11080000  0.23940000  1.0 0.1009321318
H  H481  1  0.77660000  0.05620000  0.08570000  1.0 0.1166755872
H  H482  1  0.75900000  0.94860000  0.03320000  1.0 0.0904000956
H  H483  1  0.80480000  0.05130000  0.03320000  1.0 0.1166755872
H  H484  1  0.69180000  0.15530000  0.15730000  1.0 0.1009321318
H  H485  1  0.68930000  0.10030000  0.12240000  1.0 0.0904000956
H  H486  1  0.75150000  0.04780000  0.20070000  1.0 0.0904000956
H  H487  1  0.75400000  0.10280000  0.23560000  1.0 0.1009321318
H  H488  1  0.70760000  0.05600000  0.08520000  1.0 0.1089489897
H  H489  1  0.68280000  0.95000000  0.03310000  1.0 0.1166755872
H  H490  1  0.73490000  0.05000000  0.03310000  1.0 0.0904000956
H  H491  1  0.28110000  0.14700000  0.84900000  1.0 0.1009321318
H  H492  1  0.26790000  0.09160000  0.88070000  1.0 0.0904000956
H  H493  1  0.20760000  0.05540000  0.79230000  1.0 0.0904000956
H  H494  1  0.22090000  0.11080000  0.76060000  1.0 0.1009321318
H  H495  1  0.22340000  0.05620000  0.91430000  1.0 0.1166755872
H  H496  1  0.24100000  0.94860000  0.96680000  1.0 0.0904000956
H  H497  1  0.19520000  0.05130000  0.96680000  1.0 0.1166755872
H  H498  1  0.30820000  0.15530000  0.84270000  1.0 0.1009321318
H  H499  1  0.31070000  0.10030000  0.87760000  1.0 0.0904000956
H  H500  1  0.24850000  0.04780000  0.79930000  1.0 0.0904000956
H  H501  1  0.24600000  0.10280000  0.76440000  1.0 0.1009321318
H  H502  1  0.29240000  0.05600000  0.91480000  1.0 0.1089489897
H  H503  1  0.31720000  0.95000000  0.96690000  1.0 0.1166755872
H  H504  1  0.26510000  0.05000000  0.96690000  1.0 0.0904000956
H  H505  1  0.21890000  0.34900000  0.64700000  1.0 0.1009321318
H  H506  1  0.23210000  0.38070000  0.59160000  1.0 0.0904000956
H  H507  1  0.29240000  0.29230000  0.55540000  1.0 0.0904000956
H  H508  1  0.27910000  0.26060000  0.61080000  1.0 0.1009321318
H  H509  1  0.27660000  0.41430000  0.55620000  1.0 0.1166755872
H  H510  1  0.25900000  0.46680000  0.44860000  1.0 0.0904000956
H  H511  1  0.30480000  0.46680000  0.55130000  1.0 0.1166755872
H  H512  1  0.19180000  0.34270000  0.65530000  1.0 0.1009321318
H  H513  1  0.18930000  0.37760000  0.60030000  1.0 0.0904000956
H  H514  1  0.25150000  0.29930000  0.54780000  1.0 0.0904000956
H  H515  1  0.25400000  0.26440000  0.60280000  1.0 0.1009321318
H  H516  1  0.20760000  0.41480000  0.55600000  1.0 0.1089489897
H  H517  1  0.18280000  0.46690000  0.45000000  1.0 0.1166755872
H  H518  1  0.23490000  0.46690000  0.55000000  1.0 0.0904000956
H  H519  1  0.78110000  0.65100000  0.64700000  1.0 0.1009321318
H  H520  1  0.76790000  0.61930000  0.59160000  1.0 0.0904000956
H  H521  1  0.70760000  0.70770000  0.55540000  1.0 0.0904000956
H  H522  1  0.72090000  0.73940000  0.61080000  1.0 0.1009321318
H  H523  1  0.72340000  0.58570000  0.55620000  1.0 0.1166755872
H  H524  1  0.74100000  0.53320000  0.44860000  1.0 0.0904000956
H  H525  1  0.69520000  0.53320000  0.55130000  1.0 0.1166755872
H  H526  1  0.80820000  0.65730000  0.65530000  1.0 0.1009321318
H  H527  1  0.81070000  0.62240000  0.60030000  1.0 0.0904000956
H  H528  1  0.74850000  0.70070000  0.54780000  1.0 0.0904000956
H  H529  1  0.74600000  0.73560000  0.60280000  1.0 0.1009321318
H  H530  1  0.79240000  0.58520000  0.55600000  1.0 0.1089489897
H  H531  1  0.81720000  0.53310000  0.45000000  1.0 0.1166755872
H  H532  1  0.76510000  0.53310000  0.55000000  1.0 0.0904000956
H  H533  1  0.21890000  0.65100000  0.35300000  1.0 0.1009321318
H  H534  1  0.23210000  0.61930000  0.40840000  1.0 0.0904000956
H  H535  1  0.29240000  0.70770000  0.44460000  1.0 0.0904000956
H  H536  1  0.27910000  0.73940000  0.38920000  1.0 0.1009321318
H  H537  1  0.27660000  0.58570000  0.44380000  1.0 0.1166755872
H  H538  1  0.25900000  0.53320000  0.55140000  1.0 0.0904000956
H  H539  1  0.30480000  0.53320000  0.44870000  1.0 0.1166755872
H  H540  1  0.19180000  0.65730000  0.34470000  1.0 0.1009321318
H  H541  1  0.18930000  0.62240000  0.39970000  1.0 0.0904000956
H  H542  1  0.25150000  0.70070000  0.45220000  1.0 0.0904000956
H  H543  1  0.25400000  0.73560000  0.39720000  1.0 0.1009321318
H  H544  1  0.20760000  0.58520000  0.44400000  1.0 0.1089489897
H  H545  1  0.18280000  0.53310000  0.55000000  1.0 0.1166755872
H  H546  1  0.23490000  0.53310000  0.45000000  1.0 0.0904000956
H  H547  1  0.78110000  0.34900000  0.35300000  1.0 0.1009321318
H  H548  1  0.76790000  0.38070000  0.40840000  1.0 0.0904000956
H  H549  1  0.70760000  0.29230000  0.44460000  1.0 0.0904000956
H  H550  1  0.72090000  0.26060000  0.38920000  1.0 0.1009321318
H  H551  1  0.72340000  0.41430000  0.44380000  1.0 0.1166755872
H  H552  1  0.74100000  0.46680000  0.55140000  1.0 0.0904000956
H  H553  1  0.69520000  0.46680000  0.44870000  1.0 0.1166755872
H  H554  1  0.80820000  0.34270000  0.34470000  1.0 0.1009321318
H  H555  1  0.81070000  0.37760000  0.39970000  1.0 0.0904000956
H  H556  1  0.74850000  0.29930000  0.45220000  1.0 0.0904000956
H  H557  1  0.74600000  0.26440000  0.39720000  1.0 0.1009321318
H  H558  1  0.79240000  0.41480000  0.44400000  1.0 0.1089489897
H  H559  1  0.81720000  0.46690000  0.55000000  1.0 0.1166755872
H  H560  1  0.76510000  0.46690000  0.45000000  1.0 0.0904000956
H  H561  1  0.34900000  0.35300000  0.78110000  1.0 0.1009321318
H  H562  1  0.38070000  0.40840000  0.76790000  1.0 0.0904000956
H  H563  1  0.29230000  0.44460000  0.70760000  1.0 0.0904000956
H  H564  1  0.26060000  0.38920000  0.72090000  1.0 0.1009321318
H  H565  1  0.41430000  0.44380000  0.72340000  1.0 0.1166755872
H  H566  1  0.46680000  0.55140000  0.74100000  1.0 0.0904000956
H  H567  1  0.46680000  0.44870000  0.69520000  1.0 0.1166755872
H  H568  1  0.34270000  0.34470000  0.80820000  1.0 0.1009321318
H  H569  1  0.37760000  0.39970000  0.81070000  1.0 0.0904000956
H  H570  1  0.29930000  0.45220000  0.74850000  1.0 0.0904000956
H  H571  1  0.26440000  0.39720000  0.74600000  1.0 0.1009321318
H  H572  1  0.41480000  0.44400000  0.79240000  1.0 0.1089489897
H  H573  1  0.46690000  0.55000000  0.81720000  1.0 0.1166755872
H  H574  1  0.46690000  0.45000000  0.76510000  1.0 0.0904000956
H  H575  1  0.65100000  0.35300000  0.21890000  1.0 0.1009321318
H  H576  1  0.61930000  0.40840000  0.23210000  1.0 0.0904000956
H  H577  1  0.70770000  0.44460000  0.29240000  1.0 0.0904000956
H  H578  1  0.73940000  0.38920000  0.27910000  1.0 0.1009321318
H  H579  1  0.58570000  0.44380000  0.27660000  1.0 0.1166755872
H  H580  1  0.53320000  0.55140000  0.25900000  1.0 0.0904000956
H  H581  1  0.53320000  0.44870000  0.30480000  1.0 0.1166755872
H  H582  1  0.65730000  0.34470000  0.19180000  1.0 0.1009321318
H  H583  1  0.62240000  0.39970000  0.18930000  1.0 0.0904000956
H  H584  1  0.70070000  0.45220000  0.25150000  1.0 0.0904000956
H  H585  1  0.73560000  0.39720000  0.25400000  1.0 0.1009321318
H  H586  1  0.58520000  0.44400000  0.20760000  1.0 0.1089489897
H  H587  1  0.53310000  0.55000000  0.18280000  1.0 0.1166755872
H  H588  1  0.53310000  0.45000000  0.23490000  1.0 0.0904000956
H  H589  1  0.65100000  0.64700000  0.78110000  1.0 0.1009321318
H  H590  1  0.61930000  0.59160000  0.76790000  1.0 0.0904000956
H  H591  1  0.70770000  0.55540000  0.70760000  1.0 0.0904000956
H  H592  1  0.73940000  0.61080000  0.72090000  1.0 0.1009321318
H  H593  1  0.58570000  0.55620000  0.72340000  1.0 0.1166755872
H  H594  1  0.53320000  0.44860000  0.74100000  1.0 0.0904000956
H  H595  1  0.53320000  0.55130000  0.69520000  1.0 0.1166755872
H  H596  1  0.65730000  0.65530000  0.80820000  1.0 0.1009321318
H  H597  1  0.62240000  0.60030000  0.81070000  1.0 0.0904000956
H  H598  1  0.70070000  0.54780000  0.74850000  1.0 0.0904000956
H  H599  1  0.73560000  0.60280000  0.74600000  1.0 0.1009321318
H  H600  1  0.58520000  0.55600000  0.79240000  1.0 0.1089489897
H  H601  1  0.53310000  0.45000000  0.81720000  1.0 0.1166755872
H  H602  1  0.53310000  0.55000000  0.76510000  1.0 0.0904000956
H  H603  1  0.34900000  0.64700000  0.21890000  1.0 0.1009321318
H  H604  1  0.38070000  0.59160000  0.23210000  1.0 0.0904000956
H  H605  1  0.29230000  0.55540000  0.29240000  1.0 0.0904000956
H  H606  1  0.26060000  0.61080000  0.27910000  1.0 0.1009321318
H  H607  1  0.41430000  0.55620000  0.27660000  1.0 0.1166755872
H  H608  1  0.46680000  0.44860000  0.25900000  1.0 0.0904000956
H  H609  1  0.46680000  0.55130000  0.30480000  1.0 0.1166755872
H  H610  1  0.34270000  0.65530000  0.19180000  1.0 0.1009321318
H  H611  1  0.37760000  0.60030000  0.18930000  1.0 0.0904000956
H  H612  1  0.29930000  0.54780000  0.25150000  1.0 0.0904000956
H  H613  1  0.26440000  0.60280000  0.25400000  1.0 0.1009321318
H  H614  1  0.41480000  0.55600000  0.20760000  1.0 0.1089489897
H  H615  1  0.46690000  0.45000000  0.18280000  1.0 0.1166755872
H  H616  1  0.46690000  0.55000000  0.23490000  1.0 0.0904000956
H  H617  1  0.35300000  0.21890000  0.65100000  1.0 0.1009321318
H  H618  1  0.40840000  0.23210000  0.61930000  1.0 0.0904000956
H  H619  1  0.44460000  0.29240000  0.70770000  1.0 0.0904000956
H  H620  1  0.38920000  0.27910000  0.73940000  1.0 0.1009321318
H  H621  1  0.44380000  0.27660000  0.58570000  1.0 0.1166755872
H  H622  1  0.55140000  0.25900000  0.53320000  1.0 0.0904000956
H  H623  1  0.44870000  0.30480000  0.53320000  1.0 0.1166755872
H  H624  1  0.34470000  0.19180000  0.65730000  1.0 0.1009321318
H  H625  1  0.39970000  0.18930000  0.62240000  1.0 0.0904000956
H  H626  1  0.45220000  0.25150000  0.70070000  1.0 0.0904000956
H  H627  1  0.39720000  0.25400000  0.73560000  1.0 0.1009321318
H  H628  1  0.44400000  0.20760000  0.58520000  1.0 0.1089489897
H  H629  1  0.55000000  0.18280000  0.53310000  1.0 0.1166755872
H  H630  1  0.45000000  0.23490000  0.53310000  1.0 0.0904000956
H  H631  1  0.35300000  0.78110000  0.34900000  1.0 0.1009321318
H  H632  1  0.40840000  0.76790000  0.38070000  1.0 0.0904000956
H  H633  1  0.44460000  0.70760000  0.29230000  1.0 0.0904000956
H  H634  1  0.38920000  0.72090000  0.26060000  1.0 0.1009321318
H  H635  1  0.44380000  0.72340000  0.41430000  1.0 0.1166755872
H  H636  1  0.55140000  0.74100000  0.46680000  1.0 0.0904000956
H  H637  1  0.44870000  0.69520000  0.46680000  1.0 0.1166755872
H  H638  1  0.34470000  0.80820000  0.34270000  1.0 0.1009321318
H  H639  1  0.39970000  0.81070000  0.37760000  1.0 0.0904000956
H  H640  1  0.45220000  0.74850000  0.29930000  1.0 0.0904000956
H  H641  1  0.39720000  0.74600000  0.26440000  1.0 0.1009321318
H  H642  1  0.44400000  0.79240000  0.41480000  1.0 0.1089489897
H  H643  1  0.55000000  0.81720000  0.46690000  1.0 0.1166755872
H  H644  1  0.45000000  0.76510000  0.46690000  1.0 0.0904000956
H  H645  1  0.64700000  0.21890000  0.34900000  1.0 0.1009321318
H  H646  1  0.59160000  0.23210000  0.38070000  1.0 0.0904000956
H  H647  1  0.55540000  0.29240000  0.29230000  1.0 0.0904000956
H  H648  1  0.61080000  0.27910000  0.26060000  1.0 0.1009321318
H  H649  1  0.55620000  0.27660000  0.41430000  1.0 0.1166755872
H  H650  1  0.44860000  0.25900000  0.46680000  1.0 0.0904000956
H  H651  1  0.55130000  0.30480000  0.46680000  1.0 0.1166755872
H  H652  1  0.65530000  0.19180000  0.34270000  1.0 0.1009321318
H  H653  1  0.60030000  0.18930000  0.37760000  1.0 0.0904000956
H  H654  1  0.54780000  0.25150000  0.29930000  1.0 0.0904000956
H  H655  1  0.60280000  0.25400000  0.26440000  1.0 0.1009321318
H  H656  1  0.55600000  0.20760000  0.41480000  1.0 0.1089489897
H  H657  1  0.45000000  0.18280000  0.46690000  1.0 0.1166755872
H  H658  1  0.55000000  0.23490000  0.46690000  1.0 0.0904000956
H  H659  1  0.64700000  0.78110000  0.65100000  1.0 0.1009321318
H  H660  1  0.59160000  0.76790000  0.61930000  1.0 0.0904000956
H  H661  1  0.55540000  0.70760000  0.70770000  1.0 0.0904000956
H  H662  1  0.61080000  0.72090000  0.73940000  1.0 0.1009321318
H  H663  1  0.55620000  0.72340000  0.58570000  1.0 0.1166755872
H  H664  1  0.44860000  0.74100000  0.53320000  1.0 0.0904000956
H  H665  1  0.55130000  0.69520000  0.53320000  1.0 0.1166755872
H  H666  1  0.65530000  0.80820000  0.65730000  1.0 0.1009321318
H  H667  1  0.60030000  0.81070000  0.62240000  1.0 0.0904000956
H  H668  1  0.54780000  0.74850000  0.70070000  1.0 0.0904000956
H  H669  1  0.60280000  0.74600000  0.73560000  1.0 0.1009321318
H  H670  1  0.55600000  0.79240000  0.58520000  1.0 0.1089489897
H  H671  1  0.45000000  0.81720000  0.53310000  1.0 0.1166755872
H  H672  1  0.55000000  0.76510000  0.53310000  1.0 0.0904000956
H  H673  1  0.18240000  0.23590000  0.00000000  1.0 0.0904000956
H  H674  1  0.18250000  0.28210000  0.00000000  1.0 0.1009321318
H  H675  1  0.81760000  0.76410000  0.00000000  1.0 0.0904000956
H  H676  1  0.81750000  0.71790000  0.00000000  1.0 0.1009321318
H  H677  1  0.81760000  0.23590000  0.00000000  1.0 0.0904000956
H  H678  1  0.81750000  0.28210000  0.00000000  1.0 0.1009321318
H  H679  1  0.18240000  0.76410000  0.00000000  1.0 0.0904000956
H  H680  1  0.18250000  0.71790000  0.00000000  1.0 0.1009321318
H  H681  1  0.00000000  0.18240000  0.23590000  1.0 0.0904000956
H  H682  1  0.00000000  0.18250000  0.28210000  1.0 0.1009321318
H  H683  1  0.00000000  0.81760000  0.76410000  1.0 0.0904000956
H  H684  1  0.00000000  0.81750000  0.71790000  1.0 0.1009321318
H  H685  1  0.00000000  0.81760000  0.23590000  1.0 0.0904000956
H  H686  1  0.00000000  0.81750000  0.28210000  1.0 0.1009321318
H  H687  1  0.00000000  0.18240000  0.76410000  1.0 0.0904000956
H  H688  1  0.00000000  0.18250000  0.71790000  1.0 0.1009321318
H  H689  1  0.23590000  0.00000000  0.18240000  1.0 0.0904000956
H  H690  1  0.28210000  0.00000000  0.18250000  1.0 0.1009321318
H  H691  1  0.76410000  0.00000000  0.81760000  1.0 0.0904000956
H  H692  1  0.71790000  0.00000000  0.81750000  1.0 0.1009321318
H  H693  1  0.23590000  0.00000000  0.81760000  1.0 0.0904000956
H  H694  1  0.28210000  0.00000000  0.81750000  1.0 0.1009321318
H  H695  1  0.76410000  0.00000000  0.18240000  1.0 0.0904000956
H  H696  1  0.71790000  0.00000000  0.18250000  1.0 0.1009321318
H  H697  1  0.73590000  0.68240000  0.50000000  1.0 0.0904000956
H  H698  1  0.78210000  0.68250000  0.50000000  1.0 0.1009321318
H  H699  1  0.26410000  0.31760000  0.50000000  1.0 0.0904000956
H  H700  1  0.21790000  0.31750000  0.50000000  1.0 0.1009321318
H  H701  1  0.73590000  0.31760000  0.50000000  1.0 0.0904000956
H  H702  1  0.78210000  0.31750000  0.50000000  1.0 0.1009321318
H  H703  1  0.26410000  0.68240000  0.50000000  1.0 0.0904000956
H  H704  1  0.21790000  0.68250000  0.50000000  1.0 0.1009321318
H  H705  1  0.68240000  0.50000000  0.26410000  1.0 0.0904000956
H  H706  1  0.68250000  0.50000000  0.21790000  1.0 0.1009321318
H  H707  1  0.31760000  0.50000000  0.73590000  1.0 0.0904000956
H  H708  1  0.31750000  0.50000000  0.78210000  1.0 0.1009321318
H  H709  1  0.31760000  0.50000000  0.26410000  1.0 0.0904000956
H  H710  1  0.31750000  0.50000000  0.21790000  1.0 0.1009321318
H  H711  1  0.68240000  0.50000000  0.73590000  1.0 0.0904000956
H  H712  1  0.68250000  0.50000000  0.78210000  1.0 0.1009321318
H  H713  1  0.50000000  0.73590000  0.31760000  1.0 0.0904000956
H  H714  1  0.50000000  0.78210000  0.31750000  1.0 0.1009321318
H  H715  1  0.50000000  0.26410000  0.68240000  1.0 0.0904000956
H  H716  1  0.50000000  0.21790000  0.68250000  1.0 0.1009321318
H  H717  1  0.50000000  0.73590000  0.68240000  1.0 0.0904000956
H  H718  1  0.50000000  0.78210000  0.68250000  1.0 0.1009321318
H  H719  1  0.50000000  0.26410000  0.31760000  1.0 0.0904000956
H  H720  1  0.50000000  0.21790000  0.31750000  1.0 0.1009321318
C  C1  1  0.21870000  0.26590000  0.16870000  1.0 0.0904000956
C  C2  1  0.19820000  0.25220000  0.13410000  1.0 0.0215463623
C  C3  1  0.16250000  0.26620000  0.12840000  1.0 -0.0377516453
C  C4  1  0.14370000  0.25830000  0.09550000  1.0 -0.0869820199
C  C5  1  0.16050000  0.23650000  0.06830000  1.0 0.0420876014
C  C6  1  0.19620000  0.22250000  0.07400000  1.0 -0.1000710685
C  C7  1  0.21500000  0.23040000  0.10690000  1.0 -0.1139036905
C  C8  1  0.13710000  0.23010000  0.03370000  1.0 0.0567829769
C  C9  1  0.09870000  0.22520000  0.03320000  1.0 -0.2898658455
C  C10  1  0.01931000  0.23410000  0.97010000  1.0 -0.0691873532
C  C11  1  0.01926000  0.20220000  0.02980000  1.0 -0.0869820199
C  C12  1  0.22250000  0.27040000  0.16850000  1.0 0.1089489897
C  C13  1  0.19970000  0.27690000  0.13430000  1.0 0.0215463623
C  C14  1  0.16610000  0.29610000  0.13350000  1.0 -0.1334184262
C  C15  1  0.14530000  0.29760000  0.10080000  1.0 -0.0691873532
C  C16  1  0.15820000  0.27980000  0.06890000  1.0 0.0215463623
C  C17  1  0.19190000  0.26060000  0.06960000  1.0 -0.0507515037
C  C18  1  0.21260000  0.25910000  0.10230000  1.0 -0.0507515037
C  C19  1  0.13690000  0.28690000  0.03350000  1.0 0.0721148933
C  C20  1  0.09830000  0.29100000  0.03310000  1.0 -0.2898658455
C  C21  1  0.01922000  0.30590000  0.96950000  1.0 -0.0869820199
C  C22  1  0.01925000  0.27630000  0.03040000  1.0 -0.0573978526
C  C23  1  0.78130000  0.73410000  0.16870000  1.0 0.0904000956
C  C24  1  0.80180000  0.74780000  0.13410000  1.0 0.0215463623
C  C25  1  0.83750000  0.73380000  0.12840000  1.0 -0.0377516453
C  C26  1  0.85630000  0.74170000  0.09550000  1.0 -0.0869820199
C  C27  1  0.83950000  0.76350000  0.06830000  1.0 0.0420876014
C  C28  1  0.80380000  0.77750000  0.07400000  1.0 -0.1000710685
C  C29  1  0.78500000  0.76960000  0.10690000  1.0 -0.1139036905
C  C30  1  0.86290000  0.76990000  0.03370000  1.0 0.0567829769
C  C31  1  0.90130000  0.77480000  0.03320000  1.0 -0.2898658455
C  C32  1  0.98069000  0.76590000  0.97010000  1.0 -0.0691873532
C  C33  1  0.98074000  0.79780000  0.02980000  1.0 -0.0869820199
C  C34  1  0.77750000  0.72960000  0.16850000  1.0 0.1166755872
C  C35  1  0.80030000  0.72310000  0.13430000  1.0 0.0215463623
C  C36  1  0.83390000  0.70390000  0.13350000  1.0 -0.1334184262
C  C37  1  0.85470000  0.70240000  0.10080000  1.0 -0.0691873532
C  C38  1  0.84180000  0.72020000  0.06890000  1.0 0.0215463623
C  C39  1  0.80810000  0.73940000  0.06960000  1.0 -0.0507515037
C  C40  1  0.78740000  0.74090000  0.10230000  1.0 -0.0507515037
C  C41  1  0.86310000  0.71310000  0.03350000  1.0 0.0721148933
C  C42  1  0.90170000  0.70900000  0.03310000  1.0 -0.2898658455
C  C43  1  0.98078000  0.69410000  0.96950000  1.0 -0.0869820199
C  C44  1  0.98075000  0.72370000  0.03040000  1.0 -0.0573978526
C  C45  1  0.78130000  0.26590000  0.83130000  1.0 0.1009321318
C  C46  1  0.80180000  0.25220000  0.86590000  1.0 0.0215463623
C  C47  1  0.83750000  0.26620000  0.87160000  1.0 -0.0377516453
C  C48  1  0.85630000  0.25830000  0.90450000  1.0 -0.0869820199
C  C49  1  0.83950000  0.23650000  0.93170000  1.0 0.0420876014
C  C50  1  0.80380000  0.22250000  0.92600000  1.0 -0.1000710685
C  C51  1  0.78500000  0.23040000  0.89310000  1.0 -0.1139036905
C  C52  1  0.86290000  0.23010000  0.96630000  1.0 0.0567829769
C  C53  1  0.90130000  0.22520000  0.96680000  1.0 -0.2898658455
C  C54  1  0.98069000  0.23410000  0.02990000  1.0 -0.0691873532
C  C55  1  0.98074000  0.20220000  0.97020000  1.0 -0.0869820199
C  C56  1  0.77750000  0.27040000  0.83150000  1.0 0.1166755872
C  C57  1  0.80030000  0.27690000  0.86570000  1.0 0.0215463623
C  C58  1  0.83390000  0.29610000  0.86650000  1.0 -0.1334184262
C  C59  1  0.85470000  0.29760000  0.89920000  1.0 -0.0691873532
C  C60  1  0.84180000  0.27980000  0.93110000  1.0 0.0215463623
C  C61  1  0.80810000  0.26060000  0.93040000  1.0 -0.0507515037
C  C62  1  0.78740000  0.25910000  0.89770000  1.0 -0.0507515037
C  C63  1  0.86310000  0.28690000  0.96650000  1.0 0.0721148933
C  C64  1  0.90170000  0.29100000  0.96690000  1.0 -0.2898658455
C  C65  1  0.98078000  0.30590000  0.03050000  1.0 -0.0869820199
C  C66  1  0.98075000  0.27630000  0.96960000  1.0 -0.0573978526
C  C67  1  0.21870000  0.73410000  0.83130000  1.0 0.0904000956
C  C68  1  0.19820000  0.74780000  0.86590000  1.0 0.0215463623
C  C69  1  0.16250000  0.73380000  0.87160000  1.0 -0.0377516453
C  C70  1  0.14370000  0.74170000  0.90450000  1.0 -0.0869820199
C  C71  1  0.16050000  0.76350000  0.93170000  1.0 0.0420876014
C  C72  1  0.19620000  0.77750000  0.92600000  1.0 -0.1000710685
C  C73  1  0.21500000  0.76960000  0.89310000  1.0 -0.1139036905
C  C74  1  0.13710000  0.76990000  0.96630000  1.0 0.0567829769
C  C75  1  0.09870000  0.77480000  0.96680000  1.0 -0.2898658455
C  C76  1  0.01931000  0.76590000  0.02990000  1.0 -0.0691873532
C  C77  1  0.01926000  0.79780000  0.97020000  1.0 -0.0869820199
C  C78  1  0.22250000  0.72960000  0.83150000  1.0 0.1166755872
C  C79  1  0.19970000  0.72310000  0.86570000  1.0 0.0215463623
C  C80  1  0.16610000  0.70390000  0.86650000  1.0 -0.1334184262
C  C81  1  0.14530000  0.70240000  0.89920000  1.0 -0.0691873532
C  C82  1  0.15820000  0.72020000  0.93110000  1.0 0.0215463623
C  C83  1  0.19190000  0.73940000  0.93040000  1.0 -0.0507515037
C  C84  1  0.21260000  0.74090000  0.89770000  1.0 -0.0507515037
C  C85  1  0.13690000  0.71310000  0.96650000  1.0 0.0721148933
C  C86  1  0.09830000  0.70900000  0.96690000  1.0 -0.2898658455
C  C87  1  0.01922000  0.69410000  0.03050000  1.0 -0.0869820199
C  C88  1  0.01925000  0.72370000  0.96960000  1.0 -0.0573978526
C  C89  1  0.16870000  0.21870000  0.26590000  1.0 0.0904000956
C  C90  1  0.13410000  0.19820000  0.25220000  1.0 0.0215463623
C  C91  1  0.12840000  0.16250000  0.26620000  1.0 -0.0377516453
C  C92  1  0.09550000  0.14370000  0.25830000  1.0 -0.0869820199
C  C93  1  0.06830000  0.16050000  0.23650000  1.0 0.0420876014
C  C94  1  0.07400000  0.19620000  0.22250000  1.0 -0.1000710685
C  C95  1  0.10690000  0.21500000  0.23040000  1.0 -0.1139036905
C  C96  1  0.03370000  0.13710000  0.23010000  1.0 0.0567829769
C  C97  1  0.03320000  0.09870000  0.22520000  1.0 -0.2898658455
C  C98  1  0.97010000  0.01931000  0.23410000  1.0 -0.0691873532
C  C99  1  0.02980000  0.01926000  0.20220000  1.0 -0.0869820199
C  C100  1  0.16850000  0.22250000  0.27040000  1.0 0.1089489897
C  C101  1  0.13430000  0.19970000  0.27690000  1.0 0.0215463623
C  C102  1  0.13350000  0.16610000  0.29610000  1.0 -0.1334184262
C  C103  1  0.10080000  0.14530000  0.29760000  1.0 -0.0691873532
C  C104  1  0.06890000  0.15820000  0.27980000  1.0 0.0215463623
C  C105  1  0.06960000  0.19190000  0.26060000  1.0 -0.0507515037
C  C106  1  0.10230000  0.21260000  0.25910000  1.0 -0.0507515037
C  C107  1  0.03350000  0.13690000  0.28690000  1.0 0.0721148933
C  C108  1  0.03310000  0.09830000  0.29100000  1.0 -0.2898658455
C  C109  1  0.96950000  0.01922000  0.30590000  1.0 -0.0869820199
C  C110  1  0.03040000  0.01925000  0.27630000  1.0 -0.0573978526
C  C111  1  0.16870000  0.78130000  0.73410000  1.0 0.0904000956
C  C112  1  0.13410000  0.80180000  0.74780000  1.0 0.0215463623
C  C113  1  0.12840000  0.83750000  0.73380000  1.0 -0.0377516453
C  C114  1  0.09550000  0.85630000  0.74170000  1.0 -0.0869820199
C  C115  1  0.06830000  0.83950000  0.76350000  1.0 0.0420876014
C  C116  1  0.07400000  0.80380000  0.77750000  1.0 -0.1000710685
C  C117  1  0.10690000  0.78500000  0.76960000  1.0 -0.1139036905
C  C118  1  0.03370000  0.86290000  0.76990000  1.0 0.0567829769
C  C119  1  0.03320000  0.90130000  0.77480000  1.0 -0.2898658455
C  C120  1  0.97010000  0.98069000  0.76590000  1.0 -0.0691873532
C  C121  1  0.02980000  0.98074000  0.79780000  1.0 -0.0869820199
C  C122  1  0.16850000  0.77750000  0.72960000  1.0 0.1166755872
C  C123  1  0.13430000  0.80030000  0.72310000  1.0 0.0215463623
C  C124  1  0.13350000  0.83390000  0.70390000  1.0 -0.1334184262
C  C125  1  0.10080000  0.85470000  0.70240000  1.0 -0.0691873532
C  C126  1  0.06890000  0.84180000  0.72020000  1.0 0.0215463623
C  C127  1  0.06960000  0.80810000  0.73940000  1.0 -0.0507515037
C  C128  1  0.10230000  0.78740000  0.74090000  1.0 -0.0507515037
C  C129  1  0.03350000  0.86310000  0.71310000  1.0 0.0721148933
C  C130  1  0.03310000  0.90170000  0.70900000  1.0 -0.2898658455
C  C131  1  0.96950000  0.98078000  0.69410000  1.0 -0.0869820199
C  C132  1  0.03040000  0.98075000  0.72370000  1.0 -0.0573978526
C  C133  1  0.83130000  0.78130000  0.26590000  1.0 0.0904000956
C  C134  1  0.86590000  0.80180000  0.25220000  1.0 0.0215463623
C  C135  1  0.87160000  0.83750000  0.26620000  1.0 -0.0377516453
C  C136  1  0.90450000  0.85630000  0.25830000  1.0 -0.0869820199
C  C137  1  0.93170000  0.83950000  0.23650000  1.0 0.0420876014
C  C138  1  0.92600000  0.80380000  0.22250000  1.0 -0.1000710685
C  C139  1  0.89310000  0.78500000  0.23040000  1.0 -0.1139036905
C  C140  1  0.96630000  0.86290000  0.23010000  1.0 0.0567829769
C  C141  1  0.96680000  0.90130000  0.22520000  1.0 -0.2898658455
C  C142  1  0.02990000  0.98069000  0.23410000  1.0 -0.0691873532
C  C143  1  0.97020000  0.98074000  0.20220000  1.0 -0.0869820199
C  C144  1  0.83150000  0.77750000  0.27040000  1.0 0.1166755872
C  C145  1  0.86570000  0.80030000  0.27690000  1.0 0.0215463623
C  C146  1  0.86650000  0.83390000  0.29610000  1.0 -0.1334184262
C  C147  1  0.89920000  0.85470000  0.29760000  1.0 -0.0691873532
C  C148  1  0.93110000  0.84180000  0.27980000  1.0 0.0215463623
C  C149  1  0.93040000  0.80810000  0.26060000  1.0 -0.0507515037
C  C150  1  0.89770000  0.78740000  0.25910000  1.0 -0.0507515037
C  C151  1  0.96650000  0.86310000  0.28690000  1.0 0.0721148933
C  C152  1  0.96690000  0.90170000  0.29100000  1.0 -0.2898658455
C  C153  1  0.03050000  0.98078000  0.30590000  1.0 -0.0869820199
C  C154  1  0.96960000  0.98075000  0.27630000  1.0 -0.0573978526
C  C155  1  0.83130000  0.21870000  0.73410000  1.0 0.1009321318
C  C156  1  0.86590000  0.19820000  0.74780000  1.0 0.0215463623
C  C157  1  0.87160000  0.16250000  0.73380000  1.0 -0.0377516453
C  C158  1  0.90450000  0.14370000  0.74170000  1.0 -0.0869820199
C  C159  1  0.93170000  0.16050000  0.76350000  1.0 0.0420876014
C  C160  1  0.92600000  0.19620000  0.77750000  1.0 -0.1000710685
C  C161  1  0.89310000  0.21500000  0.76960000  1.0 -0.1139036905
C  C162  1  0.96630000  0.13710000  0.76990000  1.0 0.0567829769
C  C163  1  0.96680000  0.09870000  0.77480000  1.0 -0.2898658455
C  C164  1  0.02990000  0.01931000  0.76590000  1.0 -0.0691873532
C  C165  1  0.97020000  0.01926000  0.79780000  1.0 -0.0869820199
C  C166  1  0.83150000  0.22250000  0.72960000  1.0 0.1166755872
C  C167  1  0.86570000  0.19970000  0.72310000  1.0 0.0215463623
C  C168  1  0.86650000  0.16610000  0.70390000  1.0 -0.1334184262
C  C169  1  0.89920000  0.14530000  0.70240000  1.0 -0.0691873532
C  C170  1  0.93110000  0.15820000  0.72020000  1.0 0.0215463623
C  C171  1  0.93040000  0.19190000  0.73940000  1.0 -0.0507515037
C  C172  1  0.89770000  0.21260000  0.74090000  1.0 -0.0507515037
C  C173  1  0.96650000  0.13690000  0.71310000  1.0 0.0721148933
C  C174  1  0.96690000  0.09830000  0.70900000  1.0 -0.2898658455
C  C175  1  0.03050000  0.01922000  0.69410000  1.0 -0.0869820199
C  C176  1  0.96960000  0.01925000  0.72370000  1.0 -0.0573978526
C  C177  1  0.26590000  0.16870000  0.21870000  1.0 0.0904000956
C  C178  1  0.25220000  0.13410000  0.19820000  1.0 0.0215463623
C  C179  1  0.26620000  0.12840000  0.16250000  1.0 -0.0377516453
C  C180  1  0.25830000  0.09550000  0.14370000  1.0 -0.0869820199
C  C181  1  0.23650000  0.06830000  0.16050000  1.0 0.0420876014
C  C182  1  0.22250000  0.07400000  0.19620000  1.0 -0.1000710685
C  C183  1  0.23040000  0.10690000  0.21500000  1.0 -0.1139036905
C  C184  1  0.23010000  0.03370000  0.13710000  1.0 0.0567829769
C  C185  1  0.22520000  0.03320000  0.09870000  1.0 -0.2898658455
C  C186  1  0.23410000  0.97010000  0.01931000  1.0 -0.0691873532
C  C187  1  0.20220000  0.02980000  0.01926000  1.0 -0.0869820199
C  C188  1  0.27040000  0.16850000  0.22250000  1.0 0.1089489897
C  C189  1  0.27690000  0.13430000  0.19970000  1.0 0.0215463623
C  C190  1  0.29610000  0.13350000  0.16610000  1.0 -0.1334184262
C  C191  1  0.29760000  0.10080000  0.14530000  1.0 -0.0691873532
C  C192  1  0.27980000  0.06890000  0.15820000  1.0 0.0215463623
C  C193  1  0.26060000  0.06960000  0.19190000  1.0 -0.0507515037
C  C194  1  0.25910000  0.10230000  0.21260000  1.0 -0.0507515037
C  C195  1  0.28690000  0.03350000  0.13690000  1.0 0.0721148933
C  C196  1  0.29100000  0.03310000  0.09830000  1.0 -0.2898658455
C  C197  1  0.30590000  0.96950000  0.01922000  1.0 -0.0869820199
C  C198  1  0.27630000  0.03040000  0.01925000  1.0 -0.0573978526
C  C199  1  0.73410000  0.16870000  0.78130000  1.0 0.1009321318
C  C200  1  0.74780000  0.13410000  0.80180000  1.0 0.0215463623
C  C201  1  0.73380000  0.12840000  0.83750000  1.0 -0.0377516453
C  C202  1  0.74170000  0.09550000  0.85630000  1.0 -0.0869820199
C  C203  1  0.76350000  0.06830000  0.83950000  1.0 0.0420876014
C  C204  1  0.77750000  0.07400000  0.80380000  1.0 -0.1000710685
C  C205  1  0.76960000  0.10690000  0.78500000  1.0 -0.1139036905
C  C206  1  0.76990000  0.03370000  0.86290000  1.0 0.0567829769
C  C207  1  0.77480000  0.03320000  0.90130000  1.0 -0.2898658455
C  C208  1  0.76590000  0.97010000  0.98069000  1.0 -0.0691873532
C  C209  1  0.79780000  0.02980000  0.98074000  1.0 -0.0869820199
C  C210  1  0.72960000  0.16850000  0.77750000  1.0 0.1166755872
C  C211  1  0.72310000  0.13430000  0.80030000  1.0 0.0215463623
C  C212  1  0.70390000  0.13350000  0.83390000  1.0 -0.1334184262
C  C213  1  0.70240000  0.10080000  0.85470000  1.0 -0.0691873532
C  C214  1  0.72020000  0.06890000  0.84180000  1.0 0.0215463623
C  C215  1  0.73940000  0.06960000  0.80810000  1.0 -0.0507515037
C  C216  1  0.74090000  0.10230000  0.78740000  1.0 -0.0507515037
C  C217  1  0.71310000  0.03350000  0.86310000  1.0 0.0721148933
C  C218  1  0.70900000  0.03310000  0.90170000  1.0 -0.2898658455
C  C219  1  0.69410000  0.96950000  0.98078000  1.0 -0.0869820199
C  C220  1  0.72370000  0.03040000  0.98075000  1.0 -0.0573978526
C  C221  1  0.26590000  0.83130000  0.78130000  1.0 0.0904000956
C  C222  1  0.25220000  0.86590000  0.80180000  1.0 0.0215463623
C  C223  1  0.26620000  0.87160000  0.83750000  1.0 -0.0377516453
C  C224  1  0.25830000  0.90450000  0.85630000  1.0 -0.0869820199
C  C225  1  0.23650000  0.93170000  0.83950000  1.0 0.0420876014
C  C226  1  0.22250000  0.92600000  0.80380000  1.0 -0.1000710685
C  C227  1  0.23040000  0.89310000  0.78500000  1.0 -0.1139036905
C  C228  1  0.23010000  0.96630000  0.86290000  1.0 0.0567829769
C  C229  1  0.22520000  0.96680000  0.90130000  1.0 -0.2898658455
C  C230  1  0.23410000  0.02990000  0.98069000  1.0 -0.0691873532
C  C231  1  0.20220000  0.97020000  0.98074000  1.0 -0.0869820199
C  C232  1  0.27040000  0.83150000  0.77750000  1.0 0.1166755872
C  C233  1  0.27690000  0.86570000  0.80030000  1.0 0.0215463623
C  C234  1  0.29610000  0.86650000  0.83390000  1.0 -0.1334184262
C  C235  1  0.29760000  0.89920000  0.85470000  1.0 -0.0691873532
C  C236  1  0.27980000  0.93110000  0.84180000  1.0 0.0215463623
C  C237  1  0.26060000  0.93040000  0.80810000  1.0 -0.0507515037
C  C238  1  0.25910000  0.89770000  0.78740000  1.0 -0.0507515037
C  C239  1  0.28690000  0.96650000  0.86310000  1.0 0.0721148933
C  C240  1  0.29100000  0.96690000  0.90170000  1.0 -0.2898658455
C  C241  1  0.30590000  0.03050000  0.98078000  1.0 -0.0869820199
C  C242  1  0.27630000  0.96960000  0.98075000  1.0 -0.0573978526
C  C243  1  0.73410000  0.83130000  0.21870000  1.0 0.0904000956
C  C244  1  0.74780000  0.86590000  0.19820000  1.0 0.0215463623
C  C245  1  0.73380000  0.87160000  0.16250000  1.0 -0.0377516453
C  C246  1  0.74170000  0.90450000  0.14370000  1.0 -0.0869820199
C  C247  1  0.76350000  0.93170000  0.16050000  1.0 0.0420876014
C  C248  1  0.77750000  0.92600000  0.19620000  1.0 -0.1000710685
C  C249  1  0.76960000  0.89310000  0.21500000  1.0 -0.1139036905
C  C250  1  0.76990000  0.96630000  0.13710000  1.0 0.0567829769
C  C251  1  0.77480000  0.96680000  0.09870000  1.0 -0.2898658455
C  C252  1  0.76590000  0.02990000  0.01931000  1.0 -0.0691873532
C  C253  1  0.79780000  0.97020000  0.01926000  1.0 -0.0869820199
C  C254  1  0.72960000  0.83150000  0.22250000  1.0 0.1166755872
C  C255  1  0.72310000  0.86570000  0.19970000  1.0 0.0215463623
C  C256  1  0.70390000  0.86650000  0.16610000  1.0 -0.1334184262
C  C257  1  0.70240000  0.89920000  0.14530000  1.0 -0.0691873532
C  C258  1  0.72020000  0.93110000  0.15820000  1.0 0.0215463623
C  C259  1  0.73940000  0.93040000  0.19190000  1.0 -0.0507515037
C  C260  1  0.74090000  0.89770000  0.21260000  1.0 -0.0507515037
C  C261  1  0.71310000  0.96650000  0.13690000  1.0 0.0721148933
C  C262  1  0.70900000  0.96690000  0.09830000  1.0 -0.2898658455
C  C263  1  0.69410000  0.03050000  0.01922000  1.0 -0.0869820199
C  C264  1  0.72370000  0.96960000  0.01925000  1.0 -0.0573978526
C  C265  1  0.76590000  0.71870000  0.33130000  1.0 0.0904000956
C  C266  1  0.75220000  0.69820000  0.36590000  1.0 0.0215463623
C  C267  1  0.76620000  0.66250000  0.37160000  1.0 -0.0377516453
C  C268  1  0.75830000  0.64370000  0.40450000  1.0 -0.0869820199
C  C269  1  0.73650000  0.66050000  0.43170000  1.0 0.0420876014
C  C270  1  0.72250000  0.69620000  0.42600000  1.0 -0.1000710685
C  C271  1  0.73040000  0.71500000  0.39310000  1.0 -0.1139036905
C  C272  1  0.73010000  0.63710000  0.46630000  1.0 0.0567829769
C  C273  1  0.72520000  0.59870000  0.46680000  1.0 -0.2898658455
C  C274  1  0.73410000  0.51931000  0.52990000  1.0 -0.0691873532
C  C275  1  0.70220000  0.51926000  0.47020000  1.0 -0.0869820199
C  C276  1  0.77040000  0.72250000  0.33150000  1.0 0.1166755872
C  C277  1  0.77690000  0.69970000  0.36570000  1.0 0.0215463623
C  C278  1  0.79610000  0.66610000  0.36650000  1.0 -0.1334184262
C  C279  1  0.79760000  0.64530000  0.39920000  1.0 -0.0691873532
C  C280  1  0.77980000  0.65820000  0.43110000  1.0 0.0215463623
C  C281  1  0.76060000  0.69190000  0.43040000  1.0 -0.0507515037
C  C282  1  0.75910000  0.71260000  0.39770000  1.0 -0.0507515037
C  C283  1  0.78690000  0.63690000  0.46650000  1.0 0.0721148933
C  C284  1  0.79100000  0.59830000  0.46690000  1.0 -0.2898658455
C  C285  1  0.80590000  0.51922000  0.53050000  1.0 -0.0869820199
C  C286  1  0.77630000  0.51925000  0.46960000  1.0 -0.0573978526
C  C287  1  0.23410000  0.28130000  0.33130000  1.0 0.0904000956
C  C288  1  0.24780000  0.30180000  0.36590000  1.0 0.0215463623
C  C289  1  0.23380000  0.33750000  0.37160000  1.0 -0.0377516453
C  C290  1  0.24170000  0.35630000  0.40450000  1.0 -0.0869820199
C  C291  1  0.26350000  0.33950000  0.43170000  1.0 0.0420876014
C  C292  1  0.27750000  0.30380000  0.42600000  1.0 -0.1000710685
C  C293  1  0.26960000  0.28500000  0.39310000  1.0 -0.1139036905
C  C294  1  0.26990000  0.36290000  0.46630000  1.0 0.0567829769
C  C295  1  0.27480000  0.40130000  0.46680000  1.0 -0.2898658455
C  C296  1  0.26590000  0.48069000  0.52990000  1.0 -0.0691873532
C  C297  1  0.29780000  0.48074000  0.47020000  1.0 -0.0869820199
C  C298  1  0.22960000  0.27750000  0.33150000  1.0 0.1166755872
C  C299  1  0.22310000  0.30030000  0.36570000  1.0 0.0215463623
C  C300  1  0.20390000  0.33390000  0.36650000  1.0 -0.1334184262
C  C301  1  0.20240000  0.35470000  0.39920000  1.0 -0.0691873532
C  C302  1  0.22020000  0.34180000  0.43110000  1.0 0.0215463623
C  C303  1  0.23940000  0.30810000  0.43040000  1.0 -0.0507515037
C  C304  1  0.24090000  0.28740000  0.39770000  1.0 -0.0507515037
C  C305  1  0.21310000  0.36310000  0.46650000  1.0 0.0721148933
C  C306  1  0.20900000  0.40170000  0.46690000  1.0 -0.2898658455
C  C307  1  0.19410000  0.48078000  0.53050000  1.0 -0.0869820199
C  C308  1  0.22370000  0.48075000  0.46960000  1.0 -0.0573978526
C  C309  1  0.76590000  0.28130000  0.66870000  1.0 0.0904000956
C  C310  1  0.75220000  0.30180000  0.63410000  1.0 0.0215463623
C  C311  1  0.76620000  0.33750000  0.62840000  1.0 -0.0377516453
C  C312  1  0.75830000  0.35630000  0.59550000  1.0 -0.0869820199
C  C313  1  0.73650000  0.33950000  0.56830000  1.0 0.0420876014
C  C314  1  0.72250000  0.30380000  0.57400000  1.0 -0.1000710685
C  C315  1  0.73040000  0.28500000  0.60690000  1.0 -0.1139036905
C  C316  1  0.73010000  0.36290000  0.53370000  1.0 0.0567829769
C  C317  1  0.72520000  0.40130000  0.53320000  1.0 -0.2898658455
C  C318  1  0.73410000  0.48069000  0.47010000  1.0 -0.0691873532
C  C319  1  0.70220000  0.48074000  0.52980000  1.0 -0.0869820199
C  C320  1  0.77040000  0.27750000  0.66850000  1.0 0.1166755872
C  C321  1  0.77690000  0.30030000  0.63430000  1.0 0.0215463623
C  C322  1  0.79610000  0.33390000  0.63350000  1.0 -0.1334184262
C  C323  1  0.79760000  0.35470000  0.60080000  1.0 -0.0691873532
C  C324  1  0.77980000  0.34180000  0.56890000  1.0 0.0215463623
C  C325  1  0.76060000  0.30810000  0.56960000  1.0 -0.0507515037
C  C326  1  0.75910000  0.28740000  0.60230000  1.0 -0.0507515037
C  C327  1  0.78690000  0.36310000  0.53350000  1.0 0.0721148933
C  C328  1  0.79100000  0.40170000  0.53310000  1.0 -0.2898658455
C  C329  1  0.80590000  0.48078000  0.46950000  1.0 -0.0869820199
C  C330  1  0.77630000  0.48075000  0.53040000  1.0 -0.0573978526
C  C331  1  0.23410000  0.71870000  0.66870000  1.0 0.0904000956
C  C332  1  0.24780000  0.69820000  0.63410000  1.0 0.0215463623
C  C333  1  0.23380000  0.66250000  0.62840000  1.0 -0.0377516453
C  C334  1  0.24170000  0.64370000  0.59550000  1.0 -0.0869820199
C  C335  1  0.26350000  0.66050000  0.56830000  1.0 0.0420876014
C  C336  1  0.27750000  0.69620000  0.57400000  1.0 -0.1000710685
C  C337  1  0.26960000  0.71500000  0.60690000  1.0 -0.1139036905
C  C338  1  0.26990000  0.63710000  0.53370000  1.0 0.0567829769
C  C339  1  0.27480000  0.59870000  0.53320000  1.0 -0.2898658455
C  C340  1  0.26590000  0.51931000  0.47010000  1.0 -0.0691873532
C  C341  1  0.29780000  0.51926000  0.52980000  1.0 -0.0869820199
C  C342  1  0.22960000  0.72250000  0.66850000  1.0 0.1166755872
C  C343  1  0.22310000  0.69970000  0.63430000  1.0 0.0215463623
C  C344  1  0.20390000  0.66610000  0.63350000  1.0 -0.1334184262
C  C345  1  0.20240000  0.64530000  0.60080000  1.0 -0.0691873532
C  C346  1  0.22020000  0.65820000  0.56890000  1.0 0.0215463623
C  C347  1  0.23940000  0.69190000  0.56960000  1.0 -0.0507515037
C  C348  1  0.24090000  0.71260000  0.60230000  1.0 -0.0507515037
C  C349  1  0.21310000  0.63690000  0.53350000  1.0 0.0721148933
C  C350  1  0.20900000  0.59830000  0.53310000  1.0 -0.2898658455
C  C351  1  0.19410000  0.51922000  0.46950000  1.0 -0.0869820199
C  C352  1  0.22370000  0.51925000  0.53040000  1.0 -0.0573978526
C  C353  1  0.71870000  0.66870000  0.23410000  1.0 0.0904000956
C  C354  1  0.69820000  0.63410000  0.24780000  1.0 0.0215463623
C  C355  1  0.66250000  0.62840000  0.23380000  1.0 -0.0377516453
C  C356  1  0.64370000  0.59550000  0.24170000  1.0 -0.0869820199
C  C357  1  0.66050000  0.56830000  0.26350000  1.0 0.0420876014
C  C358  1  0.69620000  0.57400000  0.27750000  1.0 -0.1000710685
C  C359  1  0.71500000  0.60690000  0.26960000  1.0 -0.1139036905
C  C360  1  0.63710000  0.53370000  0.26990000  1.0 0.0567829769
C  C361  1  0.59870000  0.53320000  0.27480000  1.0 -0.2898658455
C  C362  1  0.51931000  0.47010000  0.26590000  1.0 -0.0691873532
C  C363  1  0.51926000  0.52980000  0.29780000  1.0 -0.0869820199
C  C364  1  0.72250000  0.66850000  0.22960000  1.0 0.1166755872
C  C365  1  0.69970000  0.63430000  0.22310000  1.0 0.0215463623
C  C366  1  0.66610000  0.63350000  0.20390000  1.0 -0.1334184262
C  C367  1  0.64530000  0.60080000  0.20240000  1.0 -0.0691873532
C  C368  1  0.65820000  0.56890000  0.22020000  1.0 0.0215463623
C  C369  1  0.69190000  0.56960000  0.23940000  1.0 -0.0507515037
C  C370  1  0.71260000  0.60230000  0.24090000  1.0 -0.0507515037
C  C371  1  0.63690000  0.53350000  0.21310000  1.0 0.0721148933
C  C372  1  0.59830000  0.53310000  0.20900000  1.0 -0.2898658455
C  C373  1  0.51922000  0.46950000  0.19410000  1.0 -0.0869820199
C  C374  1  0.51925000  0.53040000  0.22370000  1.0 -0.0573978526
C  C375  1  0.28130000  0.66870000  0.76590000  1.0 0.0904000956
C  C376  1  0.30180000  0.63410000  0.75220000  1.0 0.0215463623
C  C377  1  0.33750000  0.62840000  0.76620000  1.0 -0.0377516453
C  C378  1  0.35630000  0.59550000  0.75830000  1.0 -0.0869820199
C  C379  1  0.33950000  0.56830000  0.73650000  1.0 0.0420876014
C  C380  1  0.30380000  0.57400000  0.72250000  1.0 -0.1000710685
C  C381  1  0.28500000  0.60690000  0.73040000  1.0 -0.1139036905
C  C382  1  0.36290000  0.53370000  0.73010000  1.0 0.0567829769
C  C383  1  0.40130000  0.53320000  0.72520000  1.0 -0.2898658455
C  C384  1  0.48069000  0.47010000  0.73410000  1.0 -0.0691873532
C  C385  1  0.48074000  0.52980000  0.70220000  1.0 -0.0869820199
C  C386  1  0.27750000  0.66850000  0.77040000  1.0 0.1166755872
C  C387  1  0.30030000  0.63430000  0.77690000  1.0 0.0215463623
C  C388  1  0.33390000  0.63350000  0.79610000  1.0 -0.1334184262
C  C389  1  0.35470000  0.60080000  0.79760000  1.0 -0.0691873532
C  C390  1  0.34180000  0.56890000  0.77980000  1.0 0.0215463623
C  C391  1  0.30810000  0.56960000  0.76060000  1.0 -0.0507515037
C  C392  1  0.28740000  0.60230000  0.75910000  1.0 -0.0507515037
C  C393  1  0.36310000  0.53350000  0.78690000  1.0 0.0721148933
C  C394  1  0.40170000  0.53310000  0.79100000  1.0 -0.2898658455
C  C395  1  0.48078000  0.46950000  0.80590000  1.0 -0.0869820199
C  C396  1  0.48075000  0.53040000  0.77630000  1.0 -0.0573978526
C  C397  1  0.28130000  0.33130000  0.23410000  1.0 0.0904000956
C  C398  1  0.30180000  0.36590000  0.24780000  1.0 0.0215463623
C  C399  1  0.33750000  0.37160000  0.23380000  1.0 -0.0377516453
C  C400  1  0.35630000  0.40450000  0.24170000  1.0 -0.0869820199
C  C401  1  0.33950000  0.43170000  0.26350000  1.0 0.0420876014
C  C402  1  0.30380000  0.42600000  0.27750000  1.0 -0.1000710685
C  C403  1  0.28500000  0.39310000  0.26960000  1.0 -0.1139036905
C  C404  1  0.36290000  0.46630000  0.26990000  1.0 0.0567829769
C  C405  1  0.40130000  0.46680000  0.27480000  1.0 -0.2898658455
C  C406  1  0.48069000  0.52990000  0.26590000  1.0 -0.0691873532
C  C407  1  0.48074000  0.47020000  0.29780000  1.0 -0.0869820199
C  C408  1  0.27750000  0.33150000  0.22960000  1.0 0.1166755872
C  C409  1  0.30030000  0.36570000  0.22310000  1.0 0.0215463623
C  C410  1  0.33390000  0.36650000  0.20390000  1.0 -0.1334184262
C  C411  1  0.35470000  0.39920000  0.20240000  1.0 -0.0691873532
C  C412  1  0.34180000  0.43110000  0.22020000  1.0 0.0215463623
C  C413  1  0.30810000  0.43040000  0.23940000  1.0 -0.0507515037
C  C414  1  0.28740000  0.39770000  0.24090000  1.0 -0.0507515037
C  C415  1  0.36310000  0.46650000  0.21310000  1.0 0.0721148933
C  C416  1  0.40170000  0.46690000  0.20900000  1.0 -0.2898658455
C  C417  1  0.48078000  0.53050000  0.19410000  1.0 -0.0869820199
C  C418  1  0.48075000  0.46960000  0.22370000  1.0 -0.0573978526
C  C419  1  0.71870000  0.33130000  0.76590000  1.0 0.0904000956
C  C420  1  0.69820000  0.36590000  0.75220000  1.0 0.0215463623
C  C421  1  0.66250000  0.37160000  0.76620000  1.0 -0.0377516453
C  C422  1  0.64370000  0.40450000  0.75830000  1.0 -0.0869820199
C  C423  1  0.66050000  0.43170000  0.73650000  1.0 0.0420876014
C  C424  1  0.69620000  0.42600000  0.72250000  1.0 -0.1000710685
C  C425  1  0.71500000  0.39310000  0.73040000  1.0 -0.1139036905
C  C426  1  0.63710000  0.46630000  0.73010000  1.0 0.0567829769
C  C427  1  0.59870000  0.46680000  0.72520000  1.0 -0.2898658455
C  C428  1  0.51931000  0.52990000  0.73410000  1.0 -0.0691873532
C  C429  1  0.51926000  0.47020000  0.70220000  1.0 -0.0869820199
C  C430  1  0.72250000  0.33150000  0.77040000  1.0 0.1166755872
C  C431  1  0.69970000  0.36570000  0.77690000  1.0 0.0215463623
C  C432  1  0.66610000  0.36650000  0.79610000  1.0 -0.1334184262
C  C433  1  0.64530000  0.39920000  0.79760000  1.0 -0.0691873532
C  C434  1  0.65820000  0.43110000  0.77980000  1.0 0.0215463623
C  C435  1  0.69190000  0.43040000  0.76060000  1.0 -0.0507515037
C  C436  1  0.71260000  0.39770000  0.75910000  1.0 -0.0507515037
C  C437  1  0.63690000  0.46650000  0.78690000  1.0 0.0721148933
C  C438  1  0.59830000  0.46690000  0.79100000  1.0 -0.2898658455
C  C439  1  0.51922000  0.53050000  0.80590000  1.0 -0.0869820199
C  C440  1  0.51925000  0.46960000  0.77630000  1.0 -0.0573978526
C  C441  1  0.66870000  0.76590000  0.28130000  1.0 0.0904000956
C  C442  1  0.63410000  0.75220000  0.30180000  1.0 0.0215463623
C  C443  1  0.62840000  0.76620000  0.33750000  1.0 -0.0377516453
C  C444  1  0.59550000  0.75830000  0.35630000  1.0 -0.0869820199
C  C445  1  0.56830000  0.73650000  0.33950000  1.0 0.0420876014
C  C446  1  0.57400000  0.72250000  0.30380000  1.0 -0.1000710685
C  C447  1  0.60690000  0.73040000  0.28500000  1.0 -0.1139036905
C  C448  1  0.53370000  0.73010000  0.36290000  1.0 0.0567829769
C  C449  1  0.53320000  0.72520000  0.40130000  1.0 -0.2898658455
C  C450  1  0.47010000  0.73410000  0.48069000  1.0 -0.0691873532
C  C451  1  0.52980000  0.70220000  0.48074000  1.0 -0.0869820199
C  C452  1  0.66850000  0.77040000  0.27750000  1.0 0.1166755872
C  C453  1  0.63430000  0.77690000  0.30030000  1.0 0.0215463623
C  C454  1  0.63350000  0.79610000  0.33390000  1.0 -0.1334184262
C  C455  1  0.60080000  0.79760000  0.35470000  1.0 -0.0691873532
C  C456  1  0.56890000  0.77980000  0.34180000  1.0 0.0215463623
C  C457  1  0.56960000  0.76060000  0.30810000  1.0 -0.0507515037
C  C458  1  0.60230000  0.75910000  0.28740000  1.0 -0.0507515037
C  C459  1  0.53350000  0.78690000  0.36310000  1.0 0.0721148933
C  C460  1  0.53310000  0.79100000  0.40170000  1.0 -0.2898658455
C  C461  1  0.46950000  0.80590000  0.48078000  1.0 -0.0869820199
C  C462  1  0.53040000  0.77630000  0.48075000  1.0 -0.0573978526
C  C463  1  0.66870000  0.23410000  0.71870000  1.0 0.0904000956
C  C464  1  0.63410000  0.24780000  0.69820000  1.0 0.0215463623
C  C465  1  0.62840000  0.23380000  0.66250000  1.0 -0.0377516453
C  C466  1  0.59550000  0.24170000  0.64370000  1.0 -0.0869820199
C  C467  1  0.56830000  0.26350000  0.66050000  1.0 0.0420876014
C  C468  1  0.57400000  0.27750000  0.69620000  1.0 -0.1000710685
C  C469  1  0.60690000  0.26960000  0.71500000  1.0 -0.1139036905
C  C470  1  0.53370000  0.26990000  0.63710000  1.0 0.0567829769
C  C471  1  0.53320000  0.27480000  0.59870000  1.0 -0.2898658455
C  C472  1  0.47010000  0.26590000  0.51931000  1.0 -0.0691873532
C  C473  1  0.52980000  0.29780000  0.51926000  1.0 -0.0869820199
C  C474  1  0.66850000  0.22960000  0.72250000  1.0 0.1166755872
C  C475  1  0.63430000  0.22310000  0.69970000  1.0 0.0215463623
C  C476  1  0.63350000  0.20390000  0.66610000  1.0 -0.1334184262
C  C477  1  0.60080000  0.20240000  0.64530000  1.0 -0.0691873532
C  C478  1  0.56890000  0.22020000  0.65820000  1.0 0.0215463623
C  C479  1  0.56960000  0.23940000  0.69190000  1.0 -0.0507515037
C  C480  1  0.60230000  0.24090000  0.71260000  1.0 -0.0507515037
C  C481  1  0.53350000  0.21310000  0.63690000  1.0 0.0721148933
C  C482  1  0.53310000  0.20900000  0.59830000  1.0 -0.2898658455
C  C483  1  0.46950000  0.19410000  0.51922000  1.0 -0.0869820199
C  C484  1  0.53040000  0.22370000  0.51925000  1.0 -0.0573978526
C  C485  1  0.33130000  0.76590000  0.71870000  1.0 0.0904000956
C  C486  1  0.36590000  0.75220000  0.69820000  1.0 0.0215463623
C  C487  1  0.37160000  0.76620000  0.66250000  1.0 -0.0377516453
C  C488  1  0.40450000  0.75830000  0.64370000  1.0 -0.0869820199
C  C489  1  0.43170000  0.73650000  0.66050000  1.0 0.0420876014
C  C490  1  0.42600000  0.72250000  0.69620000  1.0 -0.1000710685
C  C491  1  0.39310000  0.73040000  0.71500000  1.0 -0.1139036905
C  C492  1  0.46630000  0.73010000  0.63710000  1.0 0.0567829769
C  C493  1  0.46680000  0.72520000  0.59870000  1.0 -0.2898658455
C  C494  1  0.52990000  0.73410000  0.51931000  1.0 -0.0691873532
C  C495  1  0.47020000  0.70220000  0.51926000  1.0 -0.0869820199
C  C496  1  0.33150000  0.77040000  0.72250000  1.0 0.1166755872
C  C497  1  0.36570000  0.77690000  0.69970000  1.0 0.0215463623
C  C498  1  0.36650000  0.79610000  0.66610000  1.0 -0.1334184262
C  C499  1  0.39920000  0.79760000  0.64530000  1.0 -0.0691873532
C  C500  1  0.43110000  0.77980000  0.65820000  1.0 0.0215463623
C  C501  1  0.43040000  0.76060000  0.69190000  1.0 -0.0507515037
C  C502  1  0.39770000  0.75910000  0.71260000  1.0 -0.0507515037
C  C503  1  0.46650000  0.78690000  0.63690000  1.0 0.0721148933
C  C504  1  0.46690000  0.79100000  0.59830000  1.0 -0.2898658455
C  C505  1  0.53050000  0.80590000  0.51922000  1.0 -0.0869820199
C  C506  1  0.46960000  0.77630000  0.51925000  1.0 -0.0573978526
C  C507  1  0.33130000  0.23410000  0.28130000  1.0 0.0904000956
C  C508  1  0.36590000  0.24780000  0.30180000  1.0 0.0215463623
C  C509  1  0.37160000  0.23380000  0.33750000  1.0 -0.0377516453
C  C510  1  0.40450000  0.24170000  0.35630000  1.0 -0.0869820199
C  C511  1  0.43170000  0.26350000  0.33950000  1.0 0.0420876014
C  C512  1  0.42600000  0.27750000  0.30380000  1.0 -0.1000710685
C  C513  1  0.39310000  0.26960000  0.28500000  1.0 -0.1139036905
C  C514  1  0.46630000  0.26990000  0.36290000  1.0 0.0567829769
C  C515  1  0.46680000  0.27480000  0.40130000  1.0 -0.2898658455
C  C516  1  0.52990000  0.26590000  0.48069000  1.0 -0.0691873532
C  C517  1  0.47020000  0.29780000  0.48074000  1.0 -0.0869820199
C  C518  1  0.33150000  0.22960000  0.27750000  1.0 0.1166755872
C  C519  1  0.36570000  0.22310000  0.30030000  1.0 0.0215463623
C  C520  1  0.36650000  0.20390000  0.33390000  1.0 -0.1334184262
C  C521  1  0.39920000  0.20240000  0.35470000  1.0 -0.0691873532
C  C522  1  0.43110000  0.22020000  0.34180000  1.0 0.0215463623
C  C523  1  0.43040000  0.23940000  0.30810000  1.0 -0.0507515037
C  C524  1  0.39770000  0.24090000  0.28740000  1.0 -0.0507515037
C  C525  1  0.46650000  0.21310000  0.36310000  1.0 0.0721148933
C  C526  1  0.46690000  0.20900000  0.40170000  1.0 -0.2898658455
C  C527  1  0.53050000  0.19410000  0.48078000  1.0 -0.0869820199
C  C528  1  0.46960000  0.22370000  0.48075000  1.0 -0.0573978526
C  C529  1  0.78130000  0.73410000  0.83130000  1.0 0.1009321318
C  C530  1  0.80180000  0.74780000  0.86590000  1.0 0.0215463623
C  C531  1  0.83750000  0.73380000  0.87160000  1.0 -0.0377516453
C  C532  1  0.85630000  0.74170000  0.90450000  1.0 -0.0869820199
C  C533  1  0.83950000  0.76350000  0.93170000  1.0 0.0420876014
C  C534  1  0.80380000  0.77750000  0.92600000  1.0 -0.1000710685
C  C535  1  0.78500000  0.76960000  0.89310000  1.0 -0.1139036905
C  C536  1  0.86290000  0.76990000  0.96630000  1.0 0.0567829769
C  C537  1  0.90130000  0.77480000  0.96680000  1.0 -0.2898658455
C  C538  1  0.98069000  0.76590000  0.02990000  1.0 -0.0691873532
C  C539  1  0.98074000  0.79780000  0.97020000  1.0 -0.0869820199
C  C540  1  0.77750000  0.72960000  0.83150000  1.0 0.1166755872
C  C541  1  0.80030000  0.72310000  0.86570000  1.0 0.0215463623
C  C542  1  0.83390000  0.70390000  0.86650000  1.0 -0.1334184262
C  C543  1  0.85470000  0.70240000  0.89920000  1.0 -0.0691873532
C  C544  1  0.84180000  0.72020000  0.93110000  1.0 0.0215463623
C  C545  1  0.80810000  0.73940000  0.93040000  1.0 -0.0507515037
C  C546  1  0.78740000  0.74090000  0.89770000  1.0 -0.0507515037
C  C547  1  0.86310000  0.71310000  0.96650000  1.0 0.0721148933
C  C548  1  0.90170000  0.70900000  0.96690000  1.0 -0.2898658455
C  C549  1  0.98078000  0.69410000  0.03050000  1.0 -0.0869820199
C  C550  1  0.98075000  0.72370000  0.96960000  1.0 -0.0573978526
C  C551  1  0.21870000  0.26590000  0.83130000  1.0 0.0904000956
C  C552  1  0.19820000  0.25220000  0.86590000  1.0 0.0215463623
C  C553  1  0.16250000  0.26620000  0.87160000  1.0 -0.0377516453
C  C554  1  0.14370000  0.25830000  0.90450000  1.0 -0.0869820199
C  C555  1  0.16050000  0.23650000  0.93170000  1.0 0.0420876014
C  C556  1  0.19620000  0.22250000  0.92600000  1.0 -0.1000710685
C  C557  1  0.21500000  0.23040000  0.89310000  1.0 -0.1139036905
C  C558  1  0.13710000  0.23010000  0.96630000  1.0 0.0567829769
C  C559  1  0.09870000  0.22520000  0.96680000  1.0 -0.2898658455
C  C560  1  0.01931000  0.23410000  0.02990000  1.0 -0.0691873532
C  C561  1  0.01926000  0.20220000  0.97020000  1.0 -0.0869820199
C  C562  1  0.22250000  0.27040000  0.83150000  1.0 0.1166755872
C  C563  1  0.19970000  0.27690000  0.86570000  1.0 0.0215463623
C  C564  1  0.16610000  0.29610000  0.86650000  1.0 -0.1334184262
C  C565  1  0.14530000  0.29760000  0.89920000  1.0 -0.0691873532
C  C566  1  0.15820000  0.27980000  0.93110000  1.0 0.0215463623
C  C567  1  0.19190000  0.26060000  0.93040000  1.0 -0.0507515037
C  C568  1  0.21260000  0.25910000  0.89770000  1.0 -0.0507515037
C  C569  1  0.13690000  0.28690000  0.96650000  1.0 0.0721148933
C  C570  1  0.09830000  0.29100000  0.96690000  1.0 -0.2898658455
C  C571  1  0.01922000  0.30590000  0.03050000  1.0 -0.0869820199
C  C572  1  0.01925000  0.27630000  0.96960000  1.0 -0.0573978526
C  C573  1  0.21870000  0.73410000  0.16870000  1.0 0.0904000956
C  C574  1  0.19820000  0.74780000  0.13410000  1.0 0.0215463623
C  C575  1  0.16250000  0.73380000  0.12840000  1.0 -0.0377516453
C  C576  1  0.14370000  0.74170000  0.09550000  1.0 -0.0869820199
C  C577  1  0.16050000  0.76350000  0.06830000  1.0 0.0420876014
C  C578  1  0.19620000  0.77750000  0.07400000  1.0 -0.1000710685
C  C579  1  0.21500000  0.76960000  0.10690000  1.0 -0.1139036905
C  C580  1  0.13710000  0.76990000  0.03370000  1.0 0.0567829769
C  C581  1  0.09870000  0.77480000  0.03320000  1.0 -0.2898658455
C  C582  1  0.01931000  0.76590000  0.97010000  1.0 -0.0691873532
C  C583  1  0.01926000  0.79780000  0.02980000  1.0 -0.0869820199
C  C584  1  0.22250000  0.72960000  0.16850000  1.0 0.1089489897
C  C585  1  0.19970000  0.72310000  0.13430000  1.0 0.0215463623
C  C586  1  0.16610000  0.70390000  0.13350000  1.0 -0.1334184262
C  C587  1  0.14530000  0.70240000  0.10080000  1.0 -0.0691873532
C  C588  1  0.15820000  0.72020000  0.06890000  1.0 0.0215463623
C  C589  1  0.19190000  0.73940000  0.06960000  1.0 -0.0507515037
C  C590  1  0.21260000  0.74090000  0.10230000  1.0 -0.0507515037
C  C591  1  0.13690000  0.71310000  0.03350000  1.0 0.0721148933
C  C592  1  0.09830000  0.70900000  0.03310000  1.0 -0.2898658455
C  C593  1  0.01922000  0.69410000  0.96950000  1.0 -0.0869820199
C  C594  1  0.01925000  0.72370000  0.03040000  1.0 -0.0573978526
C  C595  1  0.78130000  0.26590000  0.16870000  1.0 0.0904000956
C  C596  1  0.80180000  0.25220000  0.13410000  1.0 0.0215463623
C  C597  1  0.83750000  0.26620000  0.12840000  1.0 -0.0377516453
C  C598  1  0.85630000  0.25830000  0.09550000  1.0 -0.0869820199
C  C599  1  0.83950000  0.23650000  0.06830000  1.0 0.0420876014
C  C600  1  0.80380000  0.22250000  0.07400000  1.0 -0.1000710685
C  C601  1  0.78500000  0.23040000  0.10690000  1.0 -0.1139036905
C  C602  1  0.86290000  0.23010000  0.03370000  1.0 0.0567829769
C  C603  1  0.90130000  0.22520000  0.03320000  1.0 -0.2898658455
C  C604  1  0.98069000  0.23410000  0.97010000  1.0 -0.0691873532
C  C605  1  0.98074000  0.20220000  0.02980000  1.0 -0.0869820199
C  C606  1  0.77750000  0.27040000  0.16850000  1.0 0.1166755872
C  C607  1  0.80030000  0.27690000  0.13430000  1.0 0.0215463623
C  C608  1  0.83390000  0.29610000  0.13350000  1.0 -0.1334184262
C  C609  1  0.85470000  0.29760000  0.10080000  1.0 -0.0691873532
C  C610  1  0.84180000  0.27980000  0.06890000  1.0 0.0215463623
C  C611  1  0.80810000  0.26060000  0.06960000  1.0 -0.0507515037
C  C612  1  0.78740000  0.25910000  0.10230000  1.0 -0.0507515037
C  C613  1  0.86310000  0.28690000  0.03350000  1.0 0.0721148933
C  C614  1  0.90170000  0.29100000  0.03310000  1.0 -0.2898658455
C  C615  1  0.98078000  0.30590000  0.96950000  1.0 -0.0869820199
C  C616  1  0.98075000  0.27630000  0.03040000  1.0 -0.0573978526
C  C617  1  0.83130000  0.78130000  0.73410000  1.0 0.1009321318
C  C618  1  0.86590000  0.80180000  0.74780000  1.0 0.0215463623
C  C619  1  0.87160000  0.83750000  0.73380000  1.0 -0.0377516453
C  C620  1  0.90450000  0.85630000  0.74170000  1.0 -0.0869820199
C  C621  1  0.93170000  0.83950000  0.76350000  1.0 0.0420876014
C  C622  1  0.92600000  0.80380000  0.77750000  1.0 -0.1000710685
C  C623  1  0.89310000  0.78500000  0.76960000  1.0 -0.1139036905
C  C624  1  0.96630000  0.86290000  0.76990000  1.0 0.0567829769
C  C625  1  0.96680000  0.90130000  0.77480000  1.0 -0.2898658455
C  C626  1  0.02990000  0.98069000  0.76590000  1.0 -0.0691873532
C  C627  1  0.97020000  0.98074000  0.79780000  1.0 -0.0869820199
C  C628  1  0.83150000  0.77750000  0.72960000  1.0 0.1166755872
C  C629  1  0.86570000  0.80030000  0.72310000  1.0 0.0215463623
C  C630  1  0.86650000  0.83390000  0.70390000  1.0 -0.1334184262
C  C631  1  0.89920000  0.85470000  0.70240000  1.0 -0.0691873532
C  C632  1  0.93110000  0.84180000  0.72020000  1.0 0.0215463623
C  C633  1  0.93040000  0.80810000  0.73940000  1.0 -0.0507515037
C  C634  1  0.89770000  0.78740000  0.74090000  1.0 -0.0507515037
C  C635  1  0.96650000  0.86310000  0.71310000  1.0 0.0721148933
C  C636  1  0.96690000  0.90170000  0.70900000  1.0 -0.2898658455
C  C637  1  0.03050000  0.98078000  0.69410000  1.0 -0.0869820199
C  C638  1  0.96960000  0.98075000  0.72370000  1.0 -0.0573978526
C  C639  1  0.83130000  0.21870000  0.26590000  1.0 0.0904000956
C  C640  1  0.86590000  0.19820000  0.25220000  1.0 0.0215463623
C  C641  1  0.87160000  0.16250000  0.26620000  1.0 -0.0377516453
C  C642  1  0.90450000  0.14370000  0.25830000  1.0 -0.0869820199
C  C643  1  0.93170000  0.16050000  0.23650000  1.0 0.0420876014
C  C644  1  0.92600000  0.19620000  0.22250000  1.0 -0.1000710685
C  C645  1  0.89310000  0.21500000  0.23040000  1.0 -0.1139036905
C  C646  1  0.96630000  0.13710000  0.23010000  1.0 0.0567829769
C  C647  1  0.96680000  0.09870000  0.22520000  1.0 -0.2898658455
C  C648  1  0.02990000  0.01931000  0.23410000  1.0 -0.0691873532
C  C649  1  0.97020000  0.01926000  0.20220000  1.0 -0.0869820199
C  C650  1  0.83150000  0.22250000  0.27040000  1.0 0.1166755872
C  C651  1  0.86570000  0.19970000  0.27690000  1.0 0.0215463623
C  C652  1  0.86650000  0.16610000  0.29610000  1.0 -0.1334184262
C  C653  1  0.89920000  0.14530000  0.29760000  1.0 -0.0691873532
C  C654  1  0.93110000  0.15820000  0.27980000  1.0 0.0215463623
C  C655  1  0.93040000  0.19190000  0.26060000  1.0 -0.0507515037
C  C656  1  0.89770000  0.21260000  0.25910000  1.0 -0.0507515037
C  C657  1  0.96650000  0.13690000  0.28690000  1.0 0.0721148933
C  C658  1  0.96690000  0.09830000  0.29100000  1.0 -0.2898658455
C  C659  1  0.03050000  0.01922000  0.30590000  1.0 -0.0869820199
C  C660  1  0.96960000  0.01925000  0.27630000  1.0 -0.0573978526
C  C661  1  0.16870000  0.21870000  0.73410000  1.0 0.0904000956
C  C662  1  0.13410000  0.19820000  0.74780000  1.0 0.0215463623
C  C663  1  0.12840000  0.16250000  0.73380000  1.0 -0.0377516453
C  C664  1  0.09550000  0.14370000  0.74170000  1.0 -0.0869820199
C  C665  1  0.06830000  0.16050000  0.76350000  1.0 0.0420876014
C  C666  1  0.07400000  0.19620000  0.77750000  1.0 -0.1000710685
C  C667  1  0.10690000  0.21500000  0.76960000  1.0 -0.1139036905
C  C668  1  0.03370000  0.13710000  0.76990000  1.0 0.0567829769
C  C669  1  0.03320000  0.09870000  0.77480000  1.0 -0.2898658455
C  C670  1  0.97010000  0.01931000  0.76590000  1.0 -0.0691873532
C  C671  1  0.02980000  0.01926000  0.79780000  1.0 -0.0869820199
C  C672  1  0.16850000  0.22250000  0.72960000  1.0 0.1166755872
C  C673  1  0.13430000  0.19970000  0.72310000  1.0 0.0215463623
C  C674  1  0.13350000  0.16610000  0.70390000  1.0 -0.1334184262
C  C675  1  0.10080000  0.14530000  0.70240000  1.0 -0.0691873532
C  C676  1  0.06890000  0.15820000  0.72020000  1.0 0.0215463623
C  C677  1  0.06960000  0.19190000  0.73940000  1.0 -0.0507515037
C  C678  1  0.10230000  0.21260000  0.74090000  1.0 -0.0507515037
C  C679  1  0.03350000  0.13690000  0.71310000  1.0 0.0721148933
C  C680  1  0.03310000  0.09830000  0.70900000  1.0 -0.2898658455
C  C681  1  0.96950000  0.01922000  0.69410000  1.0 -0.0869820199
C  C682  1  0.03040000  0.01925000  0.72370000  1.0 -0.0573978526
C  C683  1  0.16870000  0.78130000  0.26590000  1.0 0.0904000956
C  C684  1  0.13410000  0.80180000  0.25220000  1.0 0.0215463623
C  C685  1  0.12840000  0.83750000  0.26620000  1.0 -0.0377516453
C  C686  1  0.09550000  0.85630000  0.25830000  1.0 -0.0869820199
C  C687  1  0.06830000  0.83950000  0.23650000  1.0 0.0420876014
C  C688  1  0.07400000  0.80380000  0.22250000  1.0 -0.1000710685
C  C689  1  0.10690000  0.78500000  0.23040000  1.0 -0.1139036905
C  C690  1  0.03370000  0.86290000  0.23010000  1.0 0.0567829769
C  C691  1  0.03320000  0.90130000  0.22520000  1.0 -0.2898658455
C  C692  1  0.97010000  0.98069000  0.23410000  1.0 -0.0691873532
C  C693  1  0.02980000  0.98074000  0.20220000  1.0 -0.0869820199
C  C694  1  0.16850000  0.77750000  0.27040000  1.0 0.1089489897
C  C695  1  0.13430000  0.80030000  0.27690000  1.0 0.0215463623
C  C696  1  0.13350000  0.83390000  0.29610000  1.0 -0.1334184262
C  C697  1  0.10080000  0.85470000  0.29760000  1.0 -0.0691873532
C  C698  1  0.06890000  0.84180000  0.27980000  1.0 0.0215463623
C  C699  1  0.06960000  0.80810000  0.26060000  1.0 -0.0507515037
C  C700  1  0.10230000  0.78740000  0.25910000  1.0 -0.0507515037
C  C701  1  0.03350000  0.86310000  0.28690000  1.0 0.0721148933
C  C702  1  0.03310000  0.90170000  0.29100000  1.0 -0.2898658455
C  C703  1  0.96950000  0.98078000  0.30590000  1.0 -0.0869820199
C  C704  1  0.03040000  0.98075000  0.27630000  1.0 -0.0573978526
C  C705  1  0.73410000  0.83130000  0.78130000  1.0 0.1009321318
C  C706  1  0.74780000  0.86590000  0.80180000  1.0 0.0215463623
C  C707  1  0.73380000  0.87160000  0.83750000  1.0 -0.0377516453
C  C708  1  0.74170000  0.90450000  0.85630000  1.0 -0.0869820199
C  C709  1  0.76350000  0.93170000  0.83950000  1.0 0.0420876014
C  C710  1  0.77750000  0.92600000  0.80380000  1.0 -0.1000710685
C  C711  1  0.76960000  0.89310000  0.78500000  1.0 -0.1139036905
C  C712  1  0.76990000  0.96630000  0.86290000  1.0 0.0567829769
C  C713  1  0.77480000  0.96680000  0.90130000  1.0 -0.2898658455
C  C714  1  0.76590000  0.02990000  0.98069000  1.0 -0.0691873532
C  C715  1  0.79780000  0.97020000  0.98074000  1.0 -0.0869820199
C  C716  1  0.72960000  0.83150000  0.77750000  1.0 0.1166755872
C  C717  1  0.72310000  0.86570000  0.80030000  1.0 0.0215463623
C  C718  1  0.70390000  0.86650000  0.83390000  1.0 -0.1334184262
C  C719  1  0.70240000  0.89920000  0.85470000  1.0 -0.0691873532
C  C720  1  0.72020000  0.93110000  0.84180000  1.0 0.0215463623
C  C721  1  0.73940000  0.93040000  0.80810000  1.0 -0.0507515037
C  C722  1  0.74090000  0.89770000  0.78740000  1.0 -0.0507515037
C  C723  1  0.71310000  0.96650000  0.86310000  1.0 0.0721148933
C  C724  1  0.70900000  0.96690000  0.90170000  1.0 -0.2898658455
C  C725  1  0.69410000  0.03050000  0.98078000  1.0 -0.0869820199
C  C726  1  0.72370000  0.96960000  0.98075000  1.0 -0.0573978526
C  C727  1  0.26590000  0.83130000  0.21870000  1.0 0.0904000956
C  C728  1  0.25220000  0.86590000  0.19820000  1.0 0.0215463623
C  C729  1  0.26620000  0.87160000  0.16250000  1.0 -0.0377516453
C  C730  1  0.25830000  0.90450000  0.14370000  1.0 -0.0869820199
C  C731  1  0.23650000  0.93170000  0.16050000  1.0 0.0420876014
C  C732  1  0.22250000  0.92600000  0.19620000  1.0 -0.1000710685
C  C733  1  0.23040000  0.89310000  0.21500000  1.0 -0.1139036905
C  C734  1  0.23010000  0.96630000  0.13710000  1.0 0.0567829769
C  C735  1  0.22520000  0.96680000  0.09870000  1.0 -0.2898658455
C  C736  1  0.23410000  0.02990000  0.01931000  1.0 -0.0691873532
C  C737  1  0.20220000  0.97020000  0.01926000  1.0 -0.0869820199
C  C738  1  0.27040000  0.83150000  0.22250000  1.0 0.1089489897
C  C739  1  0.27690000  0.86570000  0.19970000  1.0 0.0215463623
C  C740  1  0.29610000  0.86650000  0.16610000  1.0 -0.1334184262
C  C741  1  0.29760000  0.89920000  0.14530000  1.0 -0.0691873532
C  C742  1  0.27980000  0.93110000  0.15820000  1.0 0.0215463623
C  C743  1  0.26060000  0.93040000  0.19190000  1.0 -0.0507515037
C  C744  1  0.25910000  0.89770000  0.21260000  1.0 -0.0507515037
C  C745  1  0.28690000  0.96650000  0.13690000  1.0 0.0721148933
C  C746  1  0.29100000  0.96690000  0.09830000  1.0 -0.2898658455
C  C747  1  0.30590000  0.03050000  0.01922000  1.0 -0.0869820199
C  C748  1  0.27630000  0.96960000  0.01925000  1.0 -0.0573978526
C  C749  1  0.73410000  0.16870000  0.21870000  1.0 0.0904000956
C  C750  1  0.74780000  0.13410000  0.19820000  1.0 0.0215463623
C  C751  1  0.73380000  0.12840000  0.16250000  1.0 -0.0377516453
C  C752  1  0.74170000  0.09550000  0.14370000  1.0 -0.0869820199
C  C753  1  0.76350000  0.06830000  0.16050000  1.0 0.0420876014
C  C754  1  0.77750000  0.07400000  0.19620000  1.0 -0.1000710685
C  C755  1  0.76960000  0.10690000  0.21500000  1.0 -0.1139036905
C  C756  1  0.76990000  0.03370000  0.13710000  1.0 0.0567829769
C  C757  1  0.77480000  0.03320000  0.09870000  1.0 -0.2898658455
C  C758  1  0.76590000  0.97010000  0.01931000  1.0 -0.0691873532
C  C759  1  0.79780000  0.02980000  0.01926000  1.0 -0.0869820199
C  C760  1  0.72960000  0.16850000  0.22250000  1.0 0.1166755872
C  C761  1  0.72310000  0.13430000  0.19970000  1.0 0.0215463623
C  C762  1  0.70390000  0.13350000  0.16610000  1.0 -0.1334184262
C  C763  1  0.70240000  0.10080000  0.14530000  1.0 -0.0691873532
C  C764  1  0.72020000  0.06890000  0.15820000  1.0 0.0215463623
C  C765  1  0.73940000  0.06960000  0.19190000  1.0 -0.0507515037
C  C766  1  0.74090000  0.10230000  0.21260000  1.0 -0.0507515037
C  C767  1  0.71310000  0.03350000  0.13690000  1.0 0.0721148933
C  C768  1  0.70900000  0.03310000  0.09830000  1.0 -0.2898658455
C  C769  1  0.69410000  0.96950000  0.01922000  1.0 -0.0869820199
C  C770  1  0.72370000  0.03040000  0.01925000  1.0 -0.0573978526
C  C771  1  0.26590000  0.16870000  0.78130000  1.0 0.0904000956
C  C772  1  0.25220000  0.13410000  0.80180000  1.0 0.0215463623
C  C773  1  0.26620000  0.12840000  0.83750000  1.0 -0.0377516453
C  C774  1  0.25830000  0.09550000  0.85630000  1.0 -0.0869820199
C  C775  1  0.23650000  0.06830000  0.83950000  1.0 0.0420876014
C  C776  1  0.22250000  0.07400000  0.80380000  1.0 -0.1000710685
C  C777  1  0.23040000  0.10690000  0.78500000  1.0 -0.1139036905
C  C778  1  0.23010000  0.03370000  0.86290000  1.0 0.0567829769
C  C779  1  0.22520000  0.03320000  0.90130000  1.0 -0.2898658455
C  C780  1  0.23410000  0.97010000  0.98069000  1.0 -0.0691873532
C  C781  1  0.20220000  0.02980000  0.98074000  1.0 -0.0869820199
C  C782  1  0.27040000  0.16850000  0.77750000  1.0 0.1166755872
C  C783  1  0.27690000  0.13430000  0.80030000  1.0 0.0215463623
C  C784  1  0.29610000  0.13350000  0.83390000  1.0 -0.1334184262
C  C785  1  0.29760000  0.10080000  0.85470000  1.0 -0.0691873532
C  C786  1  0.27980000  0.06890000  0.84180000  1.0 0.0215463623
C  C787  1  0.26060000  0.06960000  0.80810000  1.0 -0.0507515037
C  C788  1  0.25910000  0.10230000  0.78740000  1.0 -0.0507515037
C  C789  1  0.28690000  0.03350000  0.86310000  1.0 0.0721148933
C  C790  1  0.29100000  0.03310000  0.90170000  1.0 -0.2898658455
C  C791  1  0.30590000  0.96950000  0.98078000  1.0 -0.0869820199
C  C792  1  0.27630000  0.03040000  0.98075000  1.0 -0.0573978526
C  C793  1  0.23410000  0.28130000  0.66870000  1.0 0.0904000956
C  C794  1  0.24780000  0.30180000  0.63410000  1.0 0.0215463623
C  C795  1  0.23380000  0.33750000  0.62840000  1.0 -0.0377516453
C  C796  1  0.24170000  0.35630000  0.59550000  1.0 -0.0869820199
C  C797  1  0.26350000  0.33950000  0.56830000  1.0 0.0420876014
C  C798  1  0.27750000  0.30380000  0.57400000  1.0 -0.1000710685
C  C799  1  0.26960000  0.28500000  0.60690000  1.0 -0.1139036905
C  C800  1  0.26990000  0.36290000  0.53370000  1.0 0.0567829769
C  C801  1  0.27480000  0.40130000  0.53320000  1.0 -0.2898658455
C  C802  1  0.26590000  0.48069000  0.47010000  1.0 -0.0691873532
C  C803  1  0.29780000  0.48074000  0.52980000  1.0 -0.0869820199
C  C804  1  0.22960000  0.27750000  0.66850000  1.0 0.1166755872
C  C805  1  0.22310000  0.30030000  0.63430000  1.0 0.0215463623
C  C806  1  0.20390000  0.33390000  0.63350000  1.0 -0.1334184262
C  C807  1  0.20240000  0.35470000  0.60080000  1.0 -0.0691873532
C  C808  1  0.22020000  0.34180000  0.56890000  1.0 0.0215463623
C  C809  1  0.23940000  0.30810000  0.56960000  1.0 -0.0507515037
C  C810  1  0.24090000  0.28740000  0.60230000  1.0 -0.0507515037
C  C811  1  0.21310000  0.36310000  0.53350000  1.0 0.0721148933
C  C812  1  0.20900000  0.40170000  0.53310000  1.0 -0.2898658455
C  C813  1  0.19410000  0.48078000  0.46950000  1.0 -0.0869820199
C  C814  1  0.22370000  0.48075000  0.53040000  1.0 -0.0573978526
C  C815  1  0.76590000  0.71870000  0.66870000  1.0 0.0904000956
C  C816  1  0.75220000  0.69820000  0.63410000  1.0 0.0215463623
C  C817  1  0.76620000  0.66250000  0.62840000  1.0 -0.0377516453
C  C818  1  0.75830000  0.64370000  0.59550000  1.0 -0.0869820199
C  C819  1  0.73650000  0.66050000  0.56830000  1.0 0.0420876014
C  C820  1  0.72250000  0.69620000  0.57400000  1.0 -0.1000710685
C  C821  1  0.73040000  0.71500000  0.60690000  1.0 -0.1139036905
C  C822  1  0.73010000  0.63710000  0.53370000  1.0 0.0567829769
C  C823  1  0.72520000  0.59870000  0.53320000  1.0 -0.2898658455
C  C824  1  0.73410000  0.51931000  0.47010000  1.0 -0.0691873532
C  C825  1  0.70220000  0.51926000  0.52980000  1.0 -0.0869820199
C  C826  1  0.77040000  0.72250000  0.66850000  1.0 0.1166755872
C  C827  1  0.77690000  0.69970000  0.63430000  1.0 0.0215463623
C  C828  1  0.79610000  0.66610000  0.63350000  1.0 -0.1334184262
C  C829  1  0.79760000  0.64530000  0.60080000  1.0 -0.0691873532
C  C830  1  0.77980000  0.65820000  0.56890000  1.0 0.0215463623
C  C831  1  0.76060000  0.69190000  0.56960000  1.0 -0.0507515037
C  C832  1  0.75910000  0.71260000  0.60230000  1.0 -0.0507515037
C  C833  1  0.78690000  0.63690000  0.53350000  1.0 0.0721148933
C  C834  1  0.79100000  0.59830000  0.53310000  1.0 -0.2898658455
C  C835  1  0.80590000  0.51922000  0.46950000  1.0 -0.0869820199
C  C836  1  0.77630000  0.51925000  0.53040000  1.0 -0.0573978526
C  C837  1  0.23410000  0.71870000  0.33130000  1.0 0.0904000956
C  C838  1  0.24780000  0.69820000  0.36590000  1.0 0.0215463623
C  C839  1  0.23380000  0.66250000  0.37160000  1.0 -0.0377516453
C  C840  1  0.24170000  0.64370000  0.40450000  1.0 -0.0869820199
C  C841  1  0.26350000  0.66050000  0.43170000  1.0 0.0420876014
C  C842  1  0.27750000  0.69620000  0.42600000  1.0 -0.1000710685
C  C843  1  0.26960000  0.71500000  0.39310000  1.0 -0.1139036905
C  C844  1  0.26990000  0.63710000  0.46630000  1.0 0.0567829769
C  C845  1  0.27480000  0.59870000  0.46680000  1.0 -0.2898658455
C  C846  1  0.26590000  0.51931000  0.52990000  1.0 -0.0691873532
C  C847  1  0.29780000  0.51926000  0.47020000  1.0 -0.0869820199
C  C848  1  0.22960000  0.72250000  0.33150000  1.0 0.1166755872
C  C849  1  0.22310000  0.69970000  0.36570000  1.0 0.0215463623
C  C850  1  0.20390000  0.66610000  0.36650000  1.0 -0.1334184262
C  C851  1  0.20240000  0.64530000  0.39920000  1.0 -0.0691873532
C  C852  1  0.22020000  0.65820000  0.43110000  1.0 0.0215463623
C  C853  1  0.23940000  0.69190000  0.43040000  1.0 -0.0507515037
C  C854  1  0.24090000  0.71260000  0.39770000  1.0 -0.0507515037
C  C855  1  0.21310000  0.63690000  0.46650000  1.0 0.0721148933
C  C856  1  0.20900000  0.59830000  0.46690000  1.0 -0.2898658455
C  C857  1  0.19410000  0.51922000  0.53050000  1.0 -0.0869820199
C  C858  1  0.22370000  0.51925000  0.46960000  1.0 -0.0573978526
C  C859  1  0.76590000  0.28130000  0.33130000  1.0 0.0904000956
C  C860  1  0.75220000  0.30180000  0.36590000  1.0 0.0215463623
C  C861  1  0.76620000  0.33750000  0.37160000  1.0 -0.0377516453
C  C862  1  0.75830000  0.35630000  0.40450000  1.0 -0.0869820199
C  C863  1  0.73650000  0.33950000  0.43170000  1.0 0.0420876014
C  C864  1  0.72250000  0.30380000  0.42600000  1.0 -0.1000710685
C  C865  1  0.73040000  0.28500000  0.39310000  1.0 -0.1139036905
C  C866  1  0.73010000  0.36290000  0.46630000  1.0 0.0567829769
C  C867  1  0.72520000  0.40130000  0.46680000  1.0 -0.2898658455
C  C868  1  0.73410000  0.48069000  0.52990000  1.0 -0.0691873532
C  C869  1  0.70220000  0.48074000  0.47020000  1.0 -0.0869820199
C  C870  1  0.77040000  0.27750000  0.33150000  1.0 0.1166755872
C  C871  1  0.77690000  0.30030000  0.36570000  1.0 0.0215463623
C  C872  1  0.79610000  0.33390000  0.36650000  1.0 -0.1334184262
C  C873  1  0.79760000  0.35470000  0.39920000  1.0 -0.0691873532
C  C874  1  0.77980000  0.34180000  0.43110000  1.0 0.0215463623
C  C875  1  0.76060000  0.30810000  0.43040000  1.0 -0.0507515037
C  C876  1  0.75910000  0.28740000  0.39770000  1.0 -0.0507515037
C  C877  1  0.78690000  0.36310000  0.46650000  1.0 0.0721148933
C  C878  1  0.79100000  0.40170000  0.46690000  1.0 -0.2898658455
C  C879  1  0.80590000  0.48078000  0.53050000  1.0 -0.0869820199
C  C880  1  0.77630000  0.48075000  0.46960000  1.0 -0.0573978526
C  C881  1  0.28130000  0.33130000  0.76590000  1.0 0.0904000956
C  C882  1  0.30180000  0.36590000  0.75220000  1.0 0.0215463623
C  C883  1  0.33750000  0.37160000  0.76620000  1.0 -0.0377516453
C  C884  1  0.35630000  0.40450000  0.75830000  1.0 -0.0869820199
C  C885  1  0.33950000  0.43170000  0.73650000  1.0 0.0420876014
C  C886  1  0.30380000  0.42600000  0.72250000  1.0 -0.1000710685
C  C887  1  0.28500000  0.39310000  0.73040000  1.0 -0.1139036905
C  C888  1  0.36290000  0.46630000  0.73010000  1.0 0.0567829769
C  C889  1  0.40130000  0.46680000  0.72520000  1.0 -0.2898658455
C  C890  1  0.48069000  0.52990000  0.73410000  1.0 -0.0691873532
C  C891  1  0.48074000  0.47020000  0.70220000  1.0 -0.0869820199
C  C892  1  0.27750000  0.33150000  0.77040000  1.0 0.1166755872
C  C893  1  0.30030000  0.36570000  0.77690000  1.0 0.0215463623
C  C894  1  0.33390000  0.36650000  0.79610000  1.0 -0.1334184262
C  C895  1  0.35470000  0.39920000  0.79760000  1.0 -0.0691873532
C  C896  1  0.34180000  0.43110000  0.77980000  1.0 0.0215463623
C  C897  1  0.30810000  0.43040000  0.76060000  1.0 -0.0507515037
C  C898  1  0.28740000  0.39770000  0.75910000  1.0 -0.0507515037
C  C899  1  0.36310000  0.46650000  0.78690000  1.0 0.0721148933
C  C900  1  0.40170000  0.46690000  0.79100000  1.0 -0.2898658455
C  C901  1  0.48078000  0.53050000  0.80590000  1.0 -0.0869820199
C  C902  1  0.48075000  0.46960000  0.77630000  1.0 -0.0573978526
C  C903  1  0.71870000  0.33130000  0.23410000  1.0 0.0904000956
C  C904  1  0.69820000  0.36590000  0.24780000  1.0 0.0215463623
C  C905  1  0.66250000  0.37160000  0.23380000  1.0 -0.0377516453
C  C906  1  0.64370000  0.40450000  0.24170000  1.0 -0.0869820199
C  C907  1  0.66050000  0.43170000  0.26350000  1.0 0.0420876014
C  C908  1  0.69620000  0.42600000  0.27750000  1.0 -0.1000710685
C  C909  1  0.71500000  0.39310000  0.26960000  1.0 -0.1139036905
C  C910  1  0.63710000  0.46630000  0.26990000  1.0 0.0567829769
C  C911  1  0.59870000  0.46680000  0.27480000  1.0 -0.2898658455
C  C912  1  0.51931000  0.52990000  0.26590000  1.0 -0.0691873532
C  C913  1  0.51926000  0.47020000  0.29780000  1.0 -0.0869820199
C  C914  1  0.72250000  0.33150000  0.22960000  1.0 0.1166755872
C  C915  1  0.69970000  0.36570000  0.22310000  1.0 0.0215463623
C  C916  1  0.66610000  0.36650000  0.20390000  1.0 -0.1334184262
C  C917  1  0.64530000  0.39920000  0.20240000  1.0 -0.0691873532
C  C918  1  0.65820000  0.43110000  0.22020000  1.0 0.0215463623
C  C919  1  0.69190000  0.43040000  0.23940000  1.0 -0.0507515037
C  C920  1  0.71260000  0.39770000  0.24090000  1.0 -0.0507515037
C  C921  1  0.63690000  0.46650000  0.21310000  1.0 0.0721148933
C  C922  1  0.59830000  0.46690000  0.20900000  1.0 -0.2898658455
C  C923  1  0.51922000  0.53050000  0.19410000  1.0 -0.0869820199
C  C924  1  0.51925000  0.46960000  0.22370000  1.0 -0.0573978526
C  C925  1  0.71870000  0.66870000  0.76590000  1.0 0.0904000956
C  C926  1  0.69820000  0.63410000  0.75220000  1.0 0.0215463623
C  C927  1  0.66250000  0.62840000  0.76620000  1.0 -0.0377516453
C  C928  1  0.64370000  0.59550000  0.75830000  1.0 -0.0869820199
C  C929  1  0.66050000  0.56830000  0.73650000  1.0 0.0420876014
C  C930  1  0.69620000  0.57400000  0.72250000  1.0 -0.1000710685
C  C931  1  0.71500000  0.60690000  0.73040000  1.0 -0.1139036905
C  C932  1  0.63710000  0.53370000  0.73010000  1.0 0.0567829769
C  C933  1  0.59870000  0.53320000  0.72520000  1.0 -0.2898658455
C  C934  1  0.51931000  0.47010000  0.73410000  1.0 -0.0691873532
C  C935  1  0.51926000  0.52980000  0.70220000  1.0 -0.0869820199
C  C936  1  0.72250000  0.66850000  0.77040000  1.0 0.1166755872
C  C937  1  0.69970000  0.63430000  0.77690000  1.0 0.0215463623
C  C938  1  0.66610000  0.63350000  0.79610000  1.0 -0.1334184262
C  C939  1  0.64530000  0.60080000  0.79760000  1.0 -0.0691873532
C  C940  1  0.65820000  0.56890000  0.77980000  1.0 0.0215463623
C  C941  1  0.69190000  0.56960000  0.76060000  1.0 -0.0507515037
C  C942  1  0.71260000  0.60230000  0.75910000  1.0 -0.0507515037
C  C943  1  0.63690000  0.53350000  0.78690000  1.0 0.0721148933
C  C944  1  0.59830000  0.53310000  0.79100000  1.0 -0.2898658455
C  C945  1  0.51922000  0.46950000  0.80590000  1.0 -0.0869820199
C  C946  1  0.51925000  0.53040000  0.77630000  1.0 -0.0573978526
C  C947  1  0.28130000  0.66870000  0.23410000  1.0 0.0904000956
C  C948  1  0.30180000  0.63410000  0.24780000  1.0 0.0215463623
C  C949  1  0.33750000  0.62840000  0.23380000  1.0 -0.0377516453
C  C950  1  0.35630000  0.59550000  0.24170000  1.0 -0.0869820199
C  C951  1  0.33950000  0.56830000  0.26350000  1.0 0.0420876014
C  C952  1  0.30380000  0.57400000  0.27750000  1.0 -0.1000710685
C  C953  1  0.28500000  0.60690000  0.26960000  1.0 -0.1139036905
C  C954  1  0.36290000  0.53370000  0.26990000  1.0 0.0567829769
C  C955  1  0.40130000  0.53320000  0.27480000  1.0 -0.2898658455
C  C956  1  0.48069000  0.47010000  0.26590000  1.0 -0.0691873532
C  C957  1  0.48074000  0.52980000  0.29780000  1.0 -0.0869820199
C  C958  1  0.27750000  0.66850000  0.22960000  1.0 0.1166755872
C  C959  1  0.30030000  0.63430000  0.22310000  1.0 0.0215463623
C  C960  1  0.33390000  0.63350000  0.20390000  1.0 -0.1334184262
C  C961  1  0.35470000  0.60080000  0.20240000  1.0 -0.0691873532
C  C962  1  0.34180000  0.56890000  0.22020000  1.0 0.0215463623
C  C963  1  0.30810000  0.56960000  0.23940000  1.0 -0.0507515037
C  C964  1  0.28740000  0.60230000  0.24090000  1.0 -0.0507515037
C  C965  1  0.36310000  0.53350000  0.21310000  1.0 0.0721148933
C  C966  1  0.40170000  0.53310000  0.20900000  1.0 -0.2898658455
C  C967  1  0.48078000  0.46950000  0.19410000  1.0 -0.0869820199
C  C968  1  0.48075000  0.53040000  0.22370000  1.0 -0.0573978526
C  C969  1  0.33130000  0.23410000  0.71870000  1.0 0.0904000956
C  C970  1  0.36590000  0.24780000  0.69820000  1.0 0.0215463623
C  C971  1  0.37160000  0.23380000  0.66250000  1.0 -0.0377516453
C  C972  1  0.40450000  0.24170000  0.64370000  1.0 -0.0869820199
C  C973  1  0.43170000  0.26350000  0.66050000  1.0 0.0420876014
C  C974  1  0.42600000  0.27750000  0.69620000  1.0 -0.1000710685
C  C975  1  0.39310000  0.26960000  0.71500000  1.0 -0.1139036905
C  C976  1  0.46630000  0.26990000  0.63710000  1.0 0.0567829769
C  C977  1  0.46680000  0.27480000  0.59870000  1.0 -0.2898658455
C  C978  1  0.52990000  0.26590000  0.51931000  1.0 -0.0691873532
C  C979  1  0.47020000  0.29780000  0.51926000  1.0 -0.0869820199
C  C980  1  0.33150000  0.22960000  0.72250000  1.0 0.1166755872
C  C981  1  0.36570000  0.22310000  0.69970000  1.0 0.0215463623
C  C982  1  0.36650000  0.20390000  0.66610000  1.0 -0.1334184262
C  C983  1  0.39920000  0.20240000  0.64530000  1.0 -0.0691873532
C  C984  1  0.43110000  0.22020000  0.65820000  1.0 0.0215463623
C  C985  1  0.43040000  0.23940000  0.69190000  1.0 -0.0507515037
C  C986  1  0.39770000  0.24090000  0.71260000  1.0 -0.0507515037
C  C987  1  0.46650000  0.21310000  0.63690000  1.0 0.0721148933
C  C988  1  0.46690000  0.20900000  0.59830000  1.0 -0.2898658455
C  C989  1  0.53050000  0.19410000  0.51922000  1.0 -0.0869820199
C  C990  1  0.46960000  0.22370000  0.51925000  1.0 -0.0573978526
C  C991  1  0.33130000  0.76590000  0.28130000  1.0 0.0904000956
C  C992  1  0.36590000  0.75220000  0.30180000  1.0 0.0215463623
C  C993  1  0.37160000  0.76620000  0.33750000  1.0 -0.0377516453
C  C994  1  0.40450000  0.75830000  0.35630000  1.0 -0.0869820199
C  C995  1  0.43170000  0.73650000  0.33950000  1.0 0.0420876014
C  C996  1  0.42600000  0.72250000  0.30380000  1.0 -0.1000710685
C  C997  1  0.39310000  0.73040000  0.28500000  1.0 -0.1139036905
C  C998  1  0.46630000  0.73010000  0.36290000  1.0 0.0567829769
C  C999  1  0.46680000  0.72520000  0.40130000  1.0 -0.2898658455
C  C1000  1  0.52990000  0.73410000  0.48069000  1.0 -0.0691873532
C  C1001  1  0.47020000  0.70220000  0.48074000  1.0 -0.0869820199
C  C1002  1  0.33150000  0.77040000  0.27750000  1.0 0.1166755872
C  C1003  1  0.36570000  0.77690000  0.30030000  1.0 0.0215463623
C  C1004  1  0.36650000  0.79610000  0.33390000  1.0 -0.1334184262
C  C1005  1  0.39920000  0.79760000  0.35470000  1.0 -0.0691873532
C  C1006  1  0.43110000  0.77980000  0.34180000  1.0 0.0215463623
C  C1007  1  0.43040000  0.76060000  0.30810000  1.0 -0.0507515037
C  C1008  1  0.39770000  0.75910000  0.28740000  1.0 -0.0507515037
C  C1009  1  0.46650000  0.78690000  0.36310000  1.0 0.0721148933
C  C1010  1  0.46690000  0.79100000  0.40170000  1.0 -0.2898658455
C  C1011  1  0.53050000  0.80590000  0.48078000  1.0 -0.0869820199
C  C1012  1  0.46960000  0.77630000  0.48075000  1.0 -0.0573978526
C  C1013  1  0.66870000  0.23410000  0.28130000  1.0 0.0904000956
C  C1014  1  0.63410000  0.24780000  0.30180000  1.0 0.0215463623
C  C1015  1  0.62840000  0.23380000  0.33750000  1.0 -0.0377516453
C  C1016  1  0.59550000  0.24170000  0.35630000  1.0 -0.0869820199
C  C1017  1  0.56830000  0.26350000  0.33950000  1.0 0.0420876014
C  C1018  1  0.57400000  0.27750000  0.30380000  1.0 -0.1000710685
C  C1019  1  0.60690000  0.26960000  0.28500000  1.0 -0.1139036905
C  C1020  1  0.53370000  0.26990000  0.36290000  1.0 0.0567829769
C  C1021  1  0.53320000  0.27480000  0.40130000  1.0 -0.2898658455
C  C1022  1  0.47010000  0.26590000  0.48069000  1.0 -0.0691873532
C  C1023  1  0.52980000  0.29780000  0.48074000  1.0 -0.0869820199
C  C1024  1  0.66850000  0.22960000  0.27750000  1.0 0.1166755872
C  C1025  1  0.63430000  0.22310000  0.30030000  1.0 0.0215463623
C  C1026  1  0.63350000  0.20390000  0.33390000  1.0 -0.1334184262
C  C1027  1  0.60080000  0.20240000  0.35470000  1.0 -0.0691873532
C  C1028  1  0.56890000  0.22020000  0.34180000  1.0 0.0215463623
C  C1029  1  0.56960000  0.23940000  0.30810000  1.0 -0.0507515037
C  C1030  1  0.60230000  0.24090000  0.28740000  1.0 -0.0507515037
C  C1031  1  0.53350000  0.21310000  0.36310000  1.0 0.0721148933
C  C1032  1  0.53310000  0.20900000  0.40170000  1.0 -0.2898658455
C  C1033  1  0.46950000  0.19410000  0.48078000  1.0 -0.0869820199
C  C1034  1  0.53040000  0.22370000  0.48075000  1.0 -0.0573978526
C  C1035  1  0.66870000  0.76590000  0.71870000  1.0 0.0904000956
C  C1036  1  0.63410000  0.75220000  0.69820000  1.0 0.0215463623
C  C1037  1  0.62840000  0.76620000  0.66250000  1.0 -0.0377516453
C  C1038  1  0.59550000  0.75830000  0.64370000  1.0 -0.0869820199
C  C1039  1  0.56830000  0.73650000  0.66050000  1.0 0.0420876014
C  C1040  1  0.57400000  0.72250000  0.69620000  1.0 -0.1000710685
C  C1041  1  0.60690000  0.73040000  0.71500000  1.0 -0.1139036905
C  C1042  1  0.53370000  0.73010000  0.63710000  1.0 0.0567829769
C  C1043  1  0.53320000  0.72520000  0.59870000  1.0 -0.2898658455
C  C1044  1  0.47010000  0.73410000  0.51931000  1.0 -0.0691873532
C  C1045  1  0.52980000  0.70220000  0.51926000  1.0 -0.0869820199
C  C1046  1  0.66850000  0.77040000  0.72250000  1.0 0.1166755872
C  C1047  1  0.63430000  0.77690000  0.69970000  1.0 0.0215463623
C  C1048  1  0.63350000  0.79610000  0.66610000  1.0 -0.1334184262
C  C1049  1  0.60080000  0.79760000  0.64530000  1.0 -0.0691873532
C  C1050  1  0.56890000  0.77980000  0.65820000  1.0 0.0215463623
C  C1051  1  0.56960000  0.76060000  0.69190000  1.0 -0.0507515037
C  C1052  1  0.60230000  0.75910000  0.71260000  1.0 -0.0507515037
C  C1053  1  0.53350000  0.78690000  0.63690000  1.0 0.0721148933
C  C1054  1  0.53310000  0.79100000  0.59830000  1.0 -0.2898658455
C  C1055  1  0.46950000  0.80590000  0.51922000  1.0 -0.0869820199
C  C1056  1  0.53040000  0.77630000  0.51925000  1.0 -0.0573978526
C  C1057  1  0.15610000  0.23250000  0.00000000  1.0 -0.1504645822
C  C1058  1  0.07890000  0.22270000  0.00000000  1.0 0.0567829769
C  C1059  1  0.03641000  0.21810000  0.00000000  1.0 -0.0034335067
C  C1060  1  0.15620000  0.28490000  0.00000000  1.0 -0.1398180564
C  C1061  1  0.07870000  0.29310000  0.00000000  1.0 0.0420876014
C  C1062  1  0.03635000  0.29110000  0.00000000  1.0 -0.0103363011
C  C1063  1  0.84390000  0.76750000  0.00000000  1.0 -0.1504645822
C  C1064  1  0.92110000  0.77730000  0.00000000  1.0 0.0567829769
C  C1065  1  0.96359000  0.78190000  0.00000000  1.0 -0.0034335067
C  C1066  1  0.84380000  0.71510000  0.00000000  1.0 -0.1398180564
C  C1067  1  0.92130000  0.70690000  0.00000000  1.0 0.0420876014
C  C1068  1  0.96365000  0.70890000  0.00000000  1.0 -0.0103363011
C  C1069  1  0.84390000  0.23250000  0.00000000  1.0 -0.1504645822
C  C1070  1  0.92110000  0.22270000  0.00000000  1.0 0.0567829769
C  C1071  1  0.96359000  0.21810000  0.00000000  1.0 -0.0034335067
C  C1072  1  0.84380000  0.28490000  0.00000000  1.0 -0.1398180564
C  C1073  1  0.92130000  0.29310000  0.00000000  1.0 0.0420876014
C  C1074  1  0.96365000  0.29110000  0.00000000  1.0 -0.0103363011
C  C1075  1  0.15610000  0.76750000  0.00000000  1.0 -0.1504645822
C  C1076  1  0.07890000  0.77730000  0.00000000  1.0 0.0567829769
C  C1077  1  0.03641000  0.78190000  0.00000000  1.0 -0.0034335067
C  C1078  1  0.15620000  0.71510000  0.00000000  1.0 -0.1398180564
C  C1079  1  0.07870000  0.70690000  0.00000000  1.0 0.0420876014
C  C1080  1  0.03635000  0.70890000  0.00000000  1.0 -0.0103363011
C  C1081  1  0.00000000  0.15610000  0.23250000  1.0 -0.1504645822
C  C1082  1  0.00000000  0.07890000  0.22270000  1.0 0.0567829769
C  C1083  1  0.00000000  0.03641000  0.21810000  1.0 -0.0034335067
C  C1084  1  0.00000000  0.15620000  0.28490000  1.0 -0.1398180564
C  C1085  1  0.00000000  0.07870000  0.29310000  1.0 0.0420876014
C  C1086  1  0.00000000  0.03635000  0.29110000  1.0 -0.0103363011
C  C1087  1  0.00000000  0.84390000  0.76750000  1.0 -0.1504645822
C  C1088  1  0.00000000  0.92110000  0.77730000  1.0 0.0567829769
C  C1089  1  0.00000000  0.96359000  0.78190000  1.0 -0.0034335067
C  C1090  1  0.00000000  0.84380000  0.71510000  1.0 -0.1398180564
C  C1091  1  0.00000000  0.92130000  0.70690000  1.0 0.0420876014
C  C1092  1  0.00000000  0.96365000  0.70890000  1.0 -0.0103363011
C  C1093  1  0.00000000  0.84390000  0.23250000  1.0 -0.1504645822
C  C1094  1  0.00000000  0.92110000  0.22270000  1.0 0.0567829769
C  C1095  1  0.00000000  0.96359000  0.21810000  1.0 -0.0034335067
C  C1096  1  0.00000000  0.84380000  0.28490000  1.0 -0.1398180564
C  C1097  1  0.00000000  0.92130000  0.29310000  1.0 0.0420876014
C  C1098  1  0.00000000  0.96365000  0.29110000  1.0 -0.0103363011
C  C1099  1  0.00000000  0.15610000  0.76750000  1.0 -0.1504645822
C  C1100  1  0.00000000  0.07890000  0.77730000  1.0 0.0567829769
C  C1101  1  0.00000000  0.03641000  0.78190000  1.0 -0.0034335067
C  C1102  1  0.00000000  0.15620000  0.71510000  1.0 -0.1398180564
C  C1103  1  0.00000000  0.07870000  0.70690000  1.0 0.0420876014
C  C1104  1  0.00000000  0.03635000  0.70890000  1.0 -0.0103363011
C  C1105  1  0.23250000  0.00000000  0.15610000  1.0 -0.1504645822
C  C1106  1  0.22270000  0.00000000  0.07890000  1.0 0.0567829769
C  C1107  1  0.21810000  0.00000000  0.03641000  1.0 -0.0034335067
C  C1108  1  0.28490000  0.00000000  0.15620000  1.0 -0.1398180564
C  C1109  1  0.29310000  0.00000000  0.07870000  1.0 0.0420876014
C  C1110  1  0.29110000  0.00000000  0.03635000  1.0 -0.0103363011
C  C1111  1  0.76750000  0.00000000  0.84390000  1.0 -0.1504645822
C  C1112  1  0.77730000  0.00000000  0.92110000  1.0 0.0567829769
C  C1113  1  0.78190000  0.00000000  0.96359000  1.0 -0.0034335067
C  C1114  1  0.71510000  0.00000000  0.84380000  1.0 -0.1398180564
C  C1115  1  0.70690000  0.00000000  0.92130000  1.0 0.0420876014
C  C1116  1  0.70890000  0.00000000  0.96365000  1.0 -0.0103363011
C  C1117  1  0.23250000  0.00000000  0.84390000  1.0 -0.1504645822
C  C1118  1  0.22270000  0.00000000  0.92110000  1.0 0.0567829769
C  C1119  1  0.21810000  0.00000000  0.96359000  1.0 -0.0034335067
C  C1120  1  0.28490000  0.00000000  0.84380000  1.0 -0.1398180564
C  C1121  1  0.29310000  0.00000000  0.92130000  1.0 0.0420876014
C  C1122  1  0.29110000  0.00000000  0.96365000  1.0 -0.0103363011
C  C1123  1  0.76750000  0.00000000  0.15610000  1.0 -0.1504645822
C  C1124  1  0.77730000  0.00000000  0.07890000  1.0 0.0567829769
C  C1125  1  0.78190000  0.00000000  0.03641000  1.0 -0.0034335067
C  C1126  1  0.71510000  0.00000000  0.15620000  1.0 -0.1398180564
C  C1127  1  0.70690000  0.00000000  0.07870000  1.0 0.0420876014
C  C1128  1  0.70890000  0.00000000  0.03635000  1.0 -0.0103363011
C  C1129  1  0.73250000  0.65610000  0.50000000  1.0 -0.1504645822
C  C1130  1  0.72270000  0.57890000  0.50000000  1.0 0.0567829769
C  C1131  1  0.71810000  0.53641000  0.50000000  1.0 -0.0034335067
C  C1132  1  0.78490000  0.65620000  0.50000000  1.0 -0.1398180564
C  C1133  1  0.79310000  0.57870000  0.50000000  1.0 0.0420876014
C  C1134  1  0.79110000  0.53635000  0.50000000  1.0 -0.0103363011
C  C1135  1  0.26750000  0.34390000  0.50000000  1.0 -0.1504645822
C  C1136  1  0.27730000  0.42110000  0.50000000  1.0 0.0567829769
C  C1137  1  0.28190000  0.46359000  0.50000000  1.0 -0.0034335067
C  C1138  1  0.21510000  0.34380000  0.50000000  1.0 -0.1398180564
C  C1139  1  0.20690000  0.42130000  0.50000000  1.0 0.0420876014
C  C1140  1  0.20890000  0.46365000  0.50000000  1.0 -0.0103363011
C  C1141  1  0.73250000  0.34390000  0.50000000  1.0 -0.1504645822
C  C1142  1  0.72270000  0.42110000  0.50000000  1.0 0.0567829769
C  C1143  1  0.71810000  0.46359000  0.50000000  1.0 -0.0034335067
C  C1144  1  0.78490000  0.34380000  0.50000000  1.0 -0.1398180564
C  C1145  1  0.79310000  0.42130000  0.50000000  1.0 0.0420876014
C  C1146  1  0.79110000  0.46365000  0.50000000  1.0 -0.0103363011
C  C1147  1  0.26750000  0.65610000  0.50000000  1.0 -0.1504645822
C  C1148  1  0.27730000  0.57890000  0.50000000  1.0 0.0567829769
C  C1149  1  0.28190000  0.53641000  0.50000000  1.0 -0.0034335067
C  C1150  1  0.21510000  0.65620000  0.50000000  1.0 -0.1398180564
C  C1151  1  0.20690000  0.57870000  0.50000000  1.0 0.0420876014
C  C1152  1  0.20890000  0.53635000  0.50000000  1.0 -0.0103363011
C  C1153  1  0.65610000  0.50000000  0.26750000  1.0 -0.1504645822
C  C1154  1  0.57890000  0.50000000  0.27730000  1.0 0.0567829769
C  C1155  1  0.53641000  0.50000000  0.28190000  1.0 -0.0034335067
C  C1156  1  0.65620000  0.50000000  0.21510000  1.0 -0.1398180564
C  C1157  1  0.57870000  0.50000000  0.20690000  1.0 0.0420876014
C  C1158  1  0.53635000  0.50000000  0.20890000  1.0 -0.0103363011
C  C1159  1  0.34390000  0.50000000  0.73250000  1.0 -0.1504645822
C  C1160  1  0.42110000  0.50000000  0.72270000  1.0 0.0567829769
C  C1161  1  0.46359000  0.50000000  0.71810000  1.0 -0.0034335067
C  C1162  1  0.34380000  0.50000000  0.78490000  1.0 -0.1398180564
C  C1163  1  0.42130000  0.50000000  0.79310000  1.0 0.0420876014
C  C1164  1  0.46365000  0.50000000  0.79110000  1.0 -0.0103363011
C  C1165  1  0.34390000  0.50000000  0.26750000  1.0 -0.1504645822
C  C1166  1  0.42110000  0.50000000  0.27730000  1.0 0.0567829769
C  C1167  1  0.46359000  0.50000000  0.28190000  1.0 -0.0034335067
C  C1168  1  0.34380000  0.50000000  0.21510000  1.0 -0.1398180564
C  C1169  1  0.42130000  0.50000000  0.20690000  1.0 0.0420876014
C  C1170  1  0.46365000  0.50000000  0.20890000  1.0 -0.0103363011
C  C1171  1  0.65610000  0.50000000  0.73250000  1.0 -0.1504645822
C  C1172  1  0.57890000  0.50000000  0.72270000  1.0 0.0567829769
C  C1173  1  0.53641000  0.50000000  0.71810000  1.0 -0.0034335067
C  C1174  1  0.65620000  0.50000000  0.78490000  1.0 -0.1398180564
C  C1175  1  0.57870000  0.50000000  0.79310000  1.0 0.0420876014
C  C1176  1  0.53635000  0.50000000  0.79110000  1.0 -0.0103363011
C  C1177  1  0.50000000  0.73250000  0.34390000  1.0 -0.1504645822
C  C1178  1  0.50000000  0.72270000  0.42110000  1.0 0.0567829769
C  C1179  1  0.50000000  0.71810000  0.46359000  1.0 -0.0034335067
C  C1180  1  0.50000000  0.78490000  0.34380000  1.0 -0.1398180564
C  C1181  1  0.50000000  0.79310000  0.42130000  1.0 0.0420876014
C  C1182  1  0.50000000  0.79110000  0.46365000  1.0 -0.0103363011
C  C1183  1  0.50000000  0.26750000  0.65610000  1.0 -0.1504645822
C  C1184  1  0.50000000  0.27730000  0.57890000  1.0 0.0567829769
C  C1185  1  0.50000000  0.28190000  0.53641000  1.0 -0.0034335067
C  C1186  1  0.50000000  0.21510000  0.65620000  1.0 -0.1398180564
C  C1187  1  0.50000000  0.20690000  0.57870000  1.0 0.0420876014
C  C1188  1  0.50000000  0.20890000  0.53635000  1.0 -0.0103363011
C  C1189  1  0.50000000  0.73250000  0.65610000  1.0 -0.1504645822
C  C1190  1  0.50000000  0.72270000  0.57890000  1.0 0.0567829769
C  C1191  1  0.50000000  0.71810000  0.53641000  1.0 -0.0034335067
C  C1192  1  0.50000000  0.78490000  0.65620000  1.0 -0.1398180564
C  C1193  1  0.50000000  0.79310000  0.57870000  1.0 0.0420876014
C  C1194  1  0.50000000  0.79110000  0.53635000  1.0 -0.0103363011
C  C1195  1  0.50000000  0.26750000  0.34390000  1.0 -0.1504645822
C  C1196  1  0.50000000  0.27730000  0.42110000  1.0 0.0567829769
C  C1197  1  0.50000000  0.28190000  0.46359000  1.0 -0.0034335067
C  C1198  1  0.50000000  0.21510000  0.34380000  1.0 -0.1398180564
C  C1199  1  0.50000000  0.20690000  0.42130000  1.0 0.0420876014
C  C1200  1  0.50000000  0.20890000  0.46365000  1.0 -0.0103363011
O  O1  1  0.20753000  0.28853000  0.19283000  1.0 -0.3099345872
O  O2  1  0.24981000  0.25094000  0.17013000  1.0 -0.3099345872
O  O3  1  0.79247000  0.71147000  0.19283000  1.0 -0.3099345872
O  O4  1  0.75019000  0.74906000  0.17013000  1.0 -0.3099345872
O  O5  1  0.79247000  0.28853000  0.80717000  1.0 -0.3099345872
O  O6  1  0.75019000  0.25094000  0.82987000  1.0 -0.3099345872
O  O7  1  0.20753000  0.71147000  0.80717000  1.0 -0.3099345872
O  O8  1  0.24981000  0.74906000  0.82987000  1.0 -0.3099345872
O  O9  1  0.19283000  0.20753000  0.28853000  1.0 -0.3099345872
O  O10  1  0.17013000  0.24981000  0.25094000  1.0 -0.3099345872
O  O11  1  0.19283000  0.79247000  0.71147000  1.0 -0.3099345872
O  O12  1  0.17013000  0.75019000  0.74906000  1.0 -0.3099345872
O  O13  1  0.80717000  0.79247000  0.28853000  1.0 -0.3099345872
O  O14  1  0.82987000  0.75019000  0.25094000  1.0 -0.3099345872
O  O15  1  0.80717000  0.20753000  0.71147000  1.0 -0.3099345872
O  O16  1  0.82987000  0.24981000  0.74906000  1.0 -0.3099345872
O  O17  1  0.28853000  0.19283000  0.20753000  1.0 -0.3099345872
O  O18  1  0.25094000  0.17013000  0.24981000  1.0 -0.3099345872
O  O19  1  0.71147000  0.19283000  0.79247000  1.0 -0.3099345872
O  O20  1  0.74906000  0.17013000  0.75019000  1.0 -0.3099345872
O  O21  1  0.28853000  0.80717000  0.79247000  1.0 -0.3099345872
O  O22  1  0.25094000  0.82987000  0.75019000  1.0 -0.3099345872
O  O23  1  0.71147000  0.80717000  0.20753000  1.0 -0.3099345872
O  O24  1  0.74906000  0.82987000  0.24981000  1.0 -0.3099345872
O  O25  1  0.78853000  0.70753000  0.30717000  1.0 -0.3099345872
O  O26  1  0.75094000  0.74981000  0.32987000  1.0 -0.3099345872
O  O27  1  0.21147000  0.29247000  0.30717000  1.0 -0.3099345872
O  O28  1  0.24906000  0.25019000  0.32987000  1.0 -0.3099345872
O  O29  1  0.78853000  0.29247000  0.69283000  1.0 -0.3099345872
O  O30  1  0.75094000  0.25019000  0.67013000  1.0 -0.3099345872
O  O31  1  0.21147000  0.70753000  0.69283000  1.0 -0.3099345872
O  O32  1  0.24906000  0.74981000  0.67013000  1.0 -0.3099345872
O  O33  1  0.70753000  0.69283000  0.21147000  1.0 -0.3099345872
O  O34  1  0.74981000  0.67013000  0.24906000  1.0 -0.3099345872
O  O35  1  0.29247000  0.69283000  0.78853000  1.0 -0.3099345872
O  O36  1  0.25019000  0.67013000  0.75094000  1.0 -0.3099345872
O  O37  1  0.29247000  0.30717000  0.21147000  1.0 -0.3099345872
O  O38  1  0.25019000  0.32987000  0.24906000  1.0 -0.3099345872
O  O39  1  0.70753000  0.30717000  0.78853000  1.0 -0.3099345872
O  O40  1  0.74981000  0.32987000  0.75094000  1.0 -0.3099345872
O  O41  1  0.69283000  0.78853000  0.29247000  1.0 -0.3099345872
O  O42  1  0.67013000  0.75094000  0.25019000  1.0 -0.3099345872
O  O43  1  0.69283000  0.21147000  0.70753000  1.0 -0.3099345872
O  O44  1  0.67013000  0.24906000  0.74981000  1.0 -0.3099345872
O  O45  1  0.30717000  0.78853000  0.70753000  1.0 -0.3099345872
O  O46  1  0.32987000  0.75094000  0.74981000  1.0 -0.3099345872
O  O47  1  0.30717000  0.21147000  0.29247000  1.0 -0.3099345872
O  O48  1  0.32987000  0.24906000  0.25019000  1.0 -0.3099345872
O  O49  1  0.79247000  0.71147000  0.80717000  1.0 -0.3099345872
O  O50  1  0.75019000  0.74906000  0.82987000  1.0 -0.3099345872
O  O51  1  0.20753000  0.28853000  0.80717000  1.0 -0.3099345872
O  O52  1  0.24981000  0.25094000  0.82987000  1.0 -0.3099345872
O  O53  1  0.20753000  0.71147000  0.19283000  1.0 -0.3099345872
O  O54  1  0.24981000  0.74906000  0.17013000  1.0 -0.3099345872
O  O55  1  0.79247000  0.28853000  0.19283000  1.0 -0.3099345872
O  O56  1  0.75019000  0.25094000  0.17013000  1.0 -0.3099345872
O  O57  1  0.80717000  0.79247000  0.71147000  1.0 -0.3099345872
O  O58  1  0.82987000  0.75019000  0.74906000  1.0 -0.3099345872
O  O59  1  0.80717000  0.20753000  0.28853000  1.0 -0.3099345872
O  O60  1  0.82987000  0.24981000  0.25094000  1.0 -0.3099345872
O  O61  1  0.19283000  0.20753000  0.71147000  1.0 -0.3099345872
O  O62  1  0.17013000  0.24981000  0.74906000  1.0 -0.3099345872
O  O63  1  0.19283000  0.79247000  0.28853000  1.0 -0.3099345872
O  O64  1  0.17013000  0.75019000  0.25094000  1.0 -0.3099345872
O  O65  1  0.71147000  0.80717000  0.79247000  1.0 -0.3099345872
O  O66  1  0.74906000  0.82987000  0.75019000  1.0 -0.3099345872
O  O67  1  0.28853000  0.80717000  0.20753000  1.0 -0.3099345872
O  O68  1  0.25094000  0.82987000  0.24981000  1.0 -0.3099345872
O  O69  1  0.71147000  0.19283000  0.20753000  1.0 -0.3099345872
O  O70  1  0.74906000  0.17013000  0.24981000  1.0 -0.3099345872
O  O71  1  0.28853000  0.19283000  0.79247000  1.0 -0.3099345872
O  O72  1  0.25094000  0.17013000  0.75019000  1.0 -0.3099345872
O  O73  1  0.21147000  0.29247000  0.69283000  1.0 -0.3099345872
O  O74  1  0.24906000  0.25019000  0.67013000  1.0 -0.3099345872
O  O75  1  0.78853000  0.70753000  0.69283000  1.0 -0.3099345872
O  O76  1  0.75094000  0.74981000  0.67013000  1.0 -0.3099345872
O  O77  1  0.21147000  0.70753000  0.30717000  1.0 -0.3099345872
O  O78  1  0.24906000  0.74981000  0.32987000  1.0 -0.3099345872
O  O79  1  0.78853000  0.29247000  0.30717000  1.0 -0.3099345872
O  O80  1  0.75094000  0.25019000  0.32987000  1.0 -0.3099345872
O  O81  1  0.29247000  0.30717000  0.78853000  1.0 -0.3099345872
O  O82  1  0.25019000  0.32987000  0.75094000  1.0 -0.3099345872
O  O83  1  0.70753000  0.30717000  0.21147000  1.0 -0.3099345872
O  O84  1  0.74981000  0.32987000  0.24906000  1.0 -0.3099345872
O  O85  1  0.70753000  0.69283000  0.78853000  1.0 -0.3099345872
O  O86  1  0.74981000  0.67013000  0.75094000  1.0 -0.3099345872
O  O87  1  0.29247000  0.69283000  0.21147000  1.0 -0.3099345872
O  O88  1  0.25019000  0.67013000  0.24906000  1.0 -0.3099345872
O  O89  1  0.30717000  0.21147000  0.70753000  1.0 -0.3099345872
O  O90  1  0.32987000  0.24906000  0.74981000  1.0 -0.3099345872
O  O91  1  0.30717000  0.78853000  0.29247000  1.0 -0.3099345872
O  O92  1  0.32987000  0.75094000  0.25019000  1.0 -0.3099345872
O  O93  1  0.69283000  0.21147000  0.29247000  1.0 -0.3099345872
O  O94  1  0.67013000  0.24906000  0.25019000  1.0 -0.3099345872
O  O95  1  0.69283000  0.78853000  0.70753000  1.0 -0.3099345872
O  O96  1  0.67013000  0.75094000  0.74981000  1.0 -0.3099345872
O  O97  1  0.25000000  0.25000000  0.25000000  1.0 -0.7089770091
O  O98  1  0.75000000  0.75000000  0.25000000  1.0 -0.7089770091
O  O99  1  0.75000000  0.25000000  0.75000000  1.0 -0.7089770091
O  O100  1  0.25000000  0.75000000  0.75000000  1.0 -0.7089770091
O  O101  1  0.75000000  0.75000000  0.75000000  1.0 -0.7089770091
O  O102  1  0.25000000  0.25000000  0.75000000  1.0 -0.7089770091
O  O103  1  0.25000000  0.75000000  0.25000000  1.0 -0.7089770091
O  O104  1  0.75000000  0.25000000  0.25000000  1.0 -0.7089770091
