# DDEC6 charges by PACMAN v1.1 (https://github.com/mtap-research/PACMAN-charge/)
data_QEPRUB_FSR_pacman
_symmetry_space_group_name_H-M   'P 1'
_cell_length_a   35.81990000
_cell_length_b   35.81990000
_cell_length_c   35.81990000
_cell_angle_alpha   90.00000000
_cell_angle_beta   90.00000000
_cell_angle_gamma   90.00000000
_symmetry_Int_Tables_number   1
_chemical_formula_structural   Cr6H135C225O32
_chemical_formula_sum   'Cr24 H540 C900 O128'
_cell_volume   45959.26844735
_cell_formula_units_Z   4
loop_
 _symmetry_equiv_pos_site_id
 _symmetry_equiv_pos_as_xyz
  1  'x, y, z'
loop_
 _atom_site_type_symbol
 _atom_site_label
 _atom_site_symmetry_multiplicity
 _atom_site_fract_x
 _atom_site_fract_y
 _atom_site_fract_z
 _atom_site_occupancy
 _atom_site_charge
Cr  Cr1  1  0.21166000  0.25273000  0.28625000  1.0 1.406123639
Cr  Cr2  1  0.78834000  0.74727000  0.28625000  1.0 1.406123639
Cr  Cr3  1  0.78834000  0.25273000  0.71375000  1.0 1.406123639
Cr  Cr4  1  0.21166000  0.74727000  0.71375000  1.0 1.406123639
Cr  Cr5  1  0.28625000  0.21166000  0.25273000  1.0 1.406123639
Cr  Cr6  1  0.28625000  0.78834000  0.74727000  1.0 1.406123639
Cr  Cr7  1  0.71375000  0.78834000  0.25273000  1.0 1.406123639
Cr  Cr8  1  0.71375000  0.21166000  0.74727000  1.0 1.406123639
Cr  Cr9  1  0.25273000  0.28625000  0.21166000  1.0 1.406123639
Cr  Cr10  1  0.74727000  0.28625000  0.78834000  1.0 1.406123639
Cr  Cr11  1  0.25273000  0.71375000  0.78834000  1.0 1.406123639
Cr  Cr12  1  0.74727000  0.71375000  0.21166000  1.0 1.406123639
Cr  Cr13  1  0.78834000  0.74727000  0.71375000  1.0 1.406123639
Cr  Cr14  1  0.21166000  0.25273000  0.71375000  1.0 1.406123639
Cr  Cr15  1  0.21166000  0.74727000  0.28625000  1.0 1.406123639
Cr  Cr16  1  0.78834000  0.25273000  0.28625000  1.0 1.406123639
Cr  Cr17  1  0.71375000  0.78834000  0.74727000  1.0 1.406123639
Cr  Cr18  1  0.71375000  0.21166000  0.25273000  1.0 1.406123639
Cr  Cr19  1  0.28625000  0.21166000  0.74727000  1.0 1.406123639
Cr  Cr20  1  0.28625000  0.78834000  0.25273000  1.0 1.406123639
Cr  Cr21  1  0.74727000  0.71375000  0.78834000  1.0 1.406123639
Cr  Cr22  1  0.25273000  0.71375000  0.21166000  1.0 1.406123639
Cr  Cr23  1  0.74727000  0.28625000  0.21166000  1.0 1.406123639
Cr  Cr24  1  0.25273000  0.28625000  0.78834000  1.0 1.406123639
H  H1  1  0.20510000  0.35010000  0.34040000  1.0 0.1395431145
H  H2  1  0.21240000  0.40440000  0.37590000  1.0 0.1284883651
H  H3  1  0.28320000  0.44580000  0.29790000  1.0 0.1284883651
H  H4  1  0.27580000  0.39150000  0.26240000  1.0 0.1395431145
H  H5  1  0.15520000  0.15060000  0.29670000  1.0 0.0998308191
H  H6  1  0.12300000  0.09400000  0.29160000  1.0 0.0998308191
H  H7  1  0.20450000  0.05370000  0.22420000  1.0 0.090413109
H  H8  1  0.23670000  0.11030000  0.22940000  1.0 0.1101744757
H  H9  1  0.08650000  0.05590000  0.24840000  1.0 0.0998308191
H  H10  1  0.15520000  0.15810000  0.31430000  1.0 0.0998308191
H  H11  1  0.12350000  0.10160000  0.32250000  1.0 0.0998308191
H  H12  1  0.20150000  0.04880000  0.25980000  1.0 0.090413109
H  H13  1  0.23320000  0.10530000  0.25160000  1.0 0.1101744757
H  H14  1  0.08690000  0.05630000  0.29730000  1.0 0.090413109
H  H15  1  0.03260000  0.04630000  0.21190000  1.0 0.090413109
H  H16  1  0.03260000  0.95330000  0.27560000  1.0 0.1284883651
H  H17  1  0.03260000  0.04600000  0.26690000  1.0 0.1284883651
H  H18  1  0.03250000  0.95440000  0.33260000  1.0 0.0998308191
H  H19  1  0.25550000  0.44350000  0.41250000  1.0 0.1198777469
H  H20  1  0.22250000  0.45320000  0.46680000  1.0 0.0998308191
H  H21  1  0.28910000  0.54490000  0.46780000  1.0 0.0998308191
H  H22  1  0.79490000  0.64990000  0.34040000  1.0 0.1395431145
H  H23  1  0.78760000  0.59560000  0.37590000  1.0 0.1284883651
H  H24  1  0.71680000  0.55420000  0.29790000  1.0 0.1284883651
H  H25  1  0.72420000  0.60850000  0.26240000  1.0 0.1395431145
H  H26  1  0.84480000  0.84940000  0.29670000  1.0 0.0998308191
H  H27  1  0.87700000  0.90600000  0.29160000  1.0 0.0998308191
H  H28  1  0.79550000  0.94630000  0.22420000  1.0 0.090413109
H  H29  1  0.76330000  0.88970000  0.22940000  1.0 0.1101744757
H  H30  1  0.91350000  0.94410000  0.24840000  1.0 0.0998308191
H  H31  1  0.84480000  0.84190000  0.31430000  1.0 0.0998308191
H  H32  1  0.87650000  0.89840000  0.32250000  1.0 0.0998308191
H  H33  1  0.79850000  0.95120000  0.25980000  1.0 0.090413109
H  H34  1  0.76680000  0.89470000  0.25160000  1.0 0.1101744757
H  H35  1  0.91310000  0.94370000  0.29730000  1.0 0.0816944648
H  H36  1  0.96740000  0.95370000  0.21190000  1.0 0.090413109
H  H37  1  0.96740000  0.04670000  0.27560000  1.0 0.1284883651
H  H38  1  0.96740000  0.95400000  0.26690000  1.0 0.1284883651
H  H39  1  0.96750000  0.04560000  0.33260000  1.0 0.0998308191
H  H40  1  0.74450000  0.55650000  0.41250000  1.0 0.1198777469
H  H41  1  0.77750000  0.54680000  0.46680000  1.0 0.0998308191
H  H42  1  0.71090000  0.45510000  0.46780000  1.0 0.0998308191
H  H43  1  0.79490000  0.35010000  0.65960000  1.0 0.1395431145
H  H44  1  0.78760000  0.40440000  0.62410000  1.0 0.1284883651
H  H45  1  0.71680000  0.44580000  0.70210000  1.0 0.1284883651
H  H46  1  0.72420000  0.39150000  0.73760000  1.0 0.1395431145
H  H47  1  0.84480000  0.15060000  0.70330000  1.0 0.0998308191
H  H48  1  0.87700000  0.09400000  0.70840000  1.0 0.0998308191
H  H49  1  0.79550000  0.05370000  0.77580000  1.0 0.090413109
H  H50  1  0.76330000  0.11030000  0.77060000  1.0 0.1101744757
H  H51  1  0.91350000  0.05590000  0.75160000  1.0 0.0998308191
H  H52  1  0.84480000  0.15810000  0.68570000  1.0 0.0998308191
H  H53  1  0.87650000  0.10160000  0.67750000  1.0 0.0998308191
H  H54  1  0.79850000  0.04880000  0.74020000  1.0 0.090413109
H  H55  1  0.76680000  0.10530000  0.74840000  1.0 0.1101744757
H  H56  1  0.91310000  0.05630000  0.70270000  1.0 0.0816944648
H  H57  1  0.96740000  0.04630000  0.78810000  1.0 0.090413109
H  H58  1  0.96740000  0.95330000  0.72440000  1.0 0.1284883651
H  H59  1  0.96740000  0.04600000  0.73310000  1.0 0.1284883651
H  H60  1  0.96750000  0.95440000  0.66740000  1.0 0.0998308191
H  H61  1  0.74450000  0.44350000  0.58750000  1.0 0.1198777469
H  H62  1  0.77750000  0.45320000  0.53320000  1.0 0.0998308191
H  H63  1  0.71090000  0.54490000  0.53220000  1.0 0.0998308191
H  H64  1  0.20510000  0.64990000  0.65960000  1.0 0.1395431145
H  H65  1  0.21240000  0.59560000  0.62410000  1.0 0.1284883651
H  H66  1  0.28320000  0.55420000  0.70210000  1.0 0.1284883651
H  H67  1  0.27580000  0.60850000  0.73760000  1.0 0.1395431145
H  H68  1  0.15520000  0.84940000  0.70330000  1.0 0.0998308191
H  H69  1  0.12300000  0.90600000  0.70840000  1.0 0.0998308191
H  H70  1  0.20450000  0.94630000  0.77580000  1.0 0.090413109
H  H71  1  0.23670000  0.88970000  0.77060000  1.0 0.1101744757
H  H72  1  0.08650000  0.94410000  0.75160000  1.0 0.0998308191
H  H73  1  0.15520000  0.84190000  0.68570000  1.0 0.0998308191
H  H74  1  0.12350000  0.89840000  0.67750000  1.0 0.0998308191
H  H75  1  0.20150000  0.95120000  0.74020000  1.0 0.090413109
H  H76  1  0.23320000  0.89470000  0.74840000  1.0 0.1101744757
H  H77  1  0.08690000  0.94370000  0.70270000  1.0 0.0816944648
H  H78  1  0.03260000  0.95370000  0.78810000  1.0 0.090413109
H  H79  1  0.03260000  0.04670000  0.72440000  1.0 0.1284883651
H  H80  1  0.03260000  0.95400000  0.73310000  1.0 0.1284883651
H  H81  1  0.03250000  0.04560000  0.66740000  1.0 0.0998308191
H  H82  1  0.25550000  0.55650000  0.58750000  1.0 0.1198777469
H  H83  1  0.22250000  0.54680000  0.53320000  1.0 0.0998308191
H  H84  1  0.28910000  0.45510000  0.53220000  1.0 0.0998308191
H  H85  1  0.34040000  0.20510000  0.35010000  1.0 0.1395431145
H  H86  1  0.37590000  0.21240000  0.40440000  1.0 0.1284883651
H  H87  1  0.29790000  0.28320000  0.44580000  1.0 0.1284883651
H  H88  1  0.26240000  0.27580000  0.39150000  1.0 0.1395431145
H  H89  1  0.29670000  0.15520000  0.15060000  1.0 0.0998308191
H  H90  1  0.29160000  0.12300000  0.09400000  1.0 0.0998308191
H  H91  1  0.22420000  0.20450000  0.05370000  1.0 0.090413109
H  H92  1  0.22940000  0.23670000  0.11030000  1.0 0.1101744757
H  H93  1  0.24840000  0.08650000  0.05590000  1.0 0.0998308191
H  H94  1  0.31430000  0.15520000  0.15810000  1.0 0.0998308191
H  H95  1  0.32250000  0.12350000  0.10160000  1.0 0.0998308191
H  H96  1  0.25980000  0.20150000  0.04880000  1.0 0.090413109
H  H97  1  0.25160000  0.23320000  0.10530000  1.0 0.1101744757
H  H98  1  0.29730000  0.08690000  0.05630000  1.0 0.0816944648
H  H99  1  0.21190000  0.03260000  0.04630000  1.0 0.090413109
H  H100  1  0.27560000  0.03260000  0.95330000  1.0 0.1284883651
H  H101  1  0.26690000  0.03260000  0.04600000  1.0 0.1284883651
H  H102  1  0.33260000  0.03250000  0.95440000  1.0 0.0998308191
H  H103  1  0.41250000  0.25550000  0.44350000  1.0 0.1198777469
H  H104  1  0.46680000  0.22250000  0.45320000  1.0 0.0998308191
H  H105  1  0.46780000  0.28910000  0.54490000  1.0 0.0998308191
H  H106  1  0.34040000  0.79490000  0.64990000  1.0 0.1395431145
H  H107  1  0.37590000  0.78760000  0.59560000  1.0 0.1284883651
H  H108  1  0.29790000  0.71680000  0.55420000  1.0 0.1284883651
H  H109  1  0.26240000  0.72420000  0.60850000  1.0 0.1395431145
H  H110  1  0.29670000  0.84480000  0.84940000  1.0 0.0998308191
H  H111  1  0.29160000  0.87700000  0.90600000  1.0 0.0998308191
H  H112  1  0.22420000  0.79550000  0.94630000  1.0 0.090413109
H  H113  1  0.22940000  0.76330000  0.88970000  1.0 0.1101744757
H  H114  1  0.24840000  0.91350000  0.94410000  1.0 0.0998308191
H  H115  1  0.31430000  0.84480000  0.84190000  1.0 0.0998308191
H  H116  1  0.32250000  0.87650000  0.89840000  1.0 0.0998308191
H  H117  1  0.25980000  0.79850000  0.95120000  1.0 0.090413109
H  H118  1  0.25160000  0.76680000  0.89470000  1.0 0.1101744757
H  H119  1  0.29730000  0.91310000  0.94370000  1.0 0.0816944648
H  H120  1  0.21190000  0.96740000  0.95370000  1.0 0.090413109
H  H121  1  0.27560000  0.96740000  0.04670000  1.0 0.1284883651
H  H122  1  0.26690000  0.96740000  0.95400000  1.0 0.1284883651
H  H123  1  0.33260000  0.96750000  0.04560000  1.0 0.0998308191
H  H124  1  0.41250000  0.74450000  0.55650000  1.0 0.1198777469
H  H125  1  0.46680000  0.77750000  0.54680000  1.0 0.0998308191
H  H126  1  0.46780000  0.71090000  0.45510000  1.0 0.0998308191
H  H127  1  0.65960000  0.79490000  0.35010000  1.0 0.1395431145
H  H128  1  0.62410000  0.78760000  0.40440000  1.0 0.1284883651
H  H129  1  0.70210000  0.71680000  0.44580000  1.0 0.1284883651
H  H130  1  0.73760000  0.72420000  0.39150000  1.0 0.1395431145
H  H131  1  0.70330000  0.84480000  0.15060000  1.0 0.0998308191
H  H132  1  0.70840000  0.87700000  0.09400000  1.0 0.0998308191
H  H133  1  0.77580000  0.79550000  0.05370000  1.0 0.090413109
H  H134  1  0.77060000  0.76330000  0.11030000  1.0 0.1101744757
H  H135  1  0.75160000  0.91350000  0.05590000  1.0 0.0998308191
H  H136  1  0.68570000  0.84480000  0.15810000  1.0 0.0998308191
H  H137  1  0.67750000  0.87650000  0.10160000  1.0 0.0998308191
H  H138  1  0.74020000  0.79850000  0.04880000  1.0 0.090413109
H  H139  1  0.74840000  0.76680000  0.10530000  1.0 0.1101744757
H  H140  1  0.70270000  0.91310000  0.05630000  1.0 0.0816944648
H  H141  1  0.78810000  0.96740000  0.04630000  1.0 0.090413109
H  H142  1  0.72440000  0.96740000  0.95330000  1.0 0.1284883651
H  H143  1  0.73310000  0.96740000  0.04600000  1.0 0.1284883651
H  H144  1  0.66740000  0.96750000  0.95440000  1.0 0.0998308191
H  H145  1  0.58750000  0.74450000  0.44350000  1.0 0.1198777469
H  H146  1  0.53320000  0.77750000  0.45320000  1.0 0.0998308191
H  H147  1  0.53220000  0.71090000  0.54490000  1.0 0.0998308191
H  H148  1  0.65960000  0.20510000  0.64990000  1.0 0.1395431145
H  H149  1  0.62410000  0.21240000  0.59560000  1.0 0.1284883651
H  H150  1  0.70210000  0.28320000  0.55420000  1.0 0.1284883651
H  H151  1  0.73760000  0.27580000  0.60850000  1.0 0.1395431145
H  H152  1  0.70330000  0.15520000  0.84940000  1.0 0.0998308191
H  H153  1  0.70840000  0.12300000  0.90600000  1.0 0.0998308191
H  H154  1  0.77580000  0.20450000  0.94630000  1.0 0.090413109
H  H155  1  0.77060000  0.23670000  0.88970000  1.0 0.1101744757
H  H156  1  0.75160000  0.08650000  0.94410000  1.0 0.0998308191
H  H157  1  0.68570000  0.15520000  0.84190000  1.0 0.0998308191
H  H158  1  0.67750000  0.12350000  0.89840000  1.0 0.0998308191
H  H159  1  0.74020000  0.20150000  0.95120000  1.0 0.090413109
H  H160  1  0.74840000  0.23320000  0.89470000  1.0 0.1101744757
H  H161  1  0.70270000  0.08690000  0.94370000  1.0 0.0816944648
H  H162  1  0.78810000  0.03260000  0.95370000  1.0 0.090413109
H  H163  1  0.72440000  0.03260000  0.04670000  1.0 0.1284883651
H  H164  1  0.73310000  0.03260000  0.95400000  1.0 0.1284883651
H  H165  1  0.66740000  0.03250000  0.04560000  1.0 0.0998308191
H  H166  1  0.58750000  0.25550000  0.55650000  1.0 0.1198777469
H  H167  1  0.53320000  0.22250000  0.54680000  1.0 0.0998308191
H  H168  1  0.53220000  0.28910000  0.45510000  1.0 0.0998308191
H  H169  1  0.35010000  0.34040000  0.20510000  1.0 0.1395431145
H  H170  1  0.40440000  0.37590000  0.21240000  1.0 0.1284883651
H  H171  1  0.44580000  0.29790000  0.28320000  1.0 0.1284883651
H  H172  1  0.39150000  0.26240000  0.27580000  1.0 0.1395431145
H  H173  1  0.15060000  0.29670000  0.15520000  1.0 0.0998308191
H  H174  1  0.09400000  0.29160000  0.12300000  1.0 0.0998308191
H  H175  1  0.05370000  0.22420000  0.20450000  1.0 0.090413109
H  H176  1  0.11030000  0.22940000  0.23670000  1.0 0.1101744757
H  H177  1  0.05590000  0.24840000  0.08650000  1.0 0.0998308191
H  H178  1  0.15810000  0.31430000  0.15520000  1.0 0.0998308191
H  H179  1  0.10160000  0.32250000  0.12350000  1.0 0.0998308191
H  H180  1  0.04880000  0.25980000  0.20150000  1.0 0.090413109
H  H181  1  0.10530000  0.25160000  0.23320000  1.0 0.1101744757
H  H182  1  0.05630000  0.29730000  0.08690000  1.0 0.090413109
H  H183  1  0.04630000  0.21190000  0.03260000  1.0 0.090413109
H  H184  1  0.95330000  0.27560000  0.03260000  1.0 0.1284883651
H  H185  1  0.04600000  0.26690000  0.03260000  1.0 0.1284883651
H  H186  1  0.95440000  0.33260000  0.03250000  1.0 0.0998308191
H  H187  1  0.44350000  0.41250000  0.25550000  1.0 0.1198777469
H  H188  1  0.45320000  0.46680000  0.22250000  1.0 0.0998308191
H  H189  1  0.54490000  0.46780000  0.28910000  1.0 0.0998308191
H  H190  1  0.64990000  0.34040000  0.79490000  1.0 0.1395431145
H  H191  1  0.59560000  0.37590000  0.78760000  1.0 0.1284883651
H  H192  1  0.55420000  0.29790000  0.71680000  1.0 0.1284883651
H  H193  1  0.60850000  0.26240000  0.72420000  1.0 0.1395431145
H  H194  1  0.84940000  0.29670000  0.84480000  1.0 0.0998308191
H  H195  1  0.90600000  0.29160000  0.87700000  1.0 0.0998308191
H  H196  1  0.94630000  0.22420000  0.79550000  1.0 0.090413109
H  H197  1  0.88970000  0.22940000  0.76330000  1.0 0.1101744757
H  H198  1  0.94410000  0.24840000  0.91350000  1.0 0.0998308191
H  H199  1  0.84190000  0.31430000  0.84480000  1.0 0.0998308191
H  H200  1  0.89840000  0.32250000  0.87650000  1.0 0.0998308191
H  H201  1  0.95120000  0.25980000  0.79850000  1.0 0.090413109
H  H202  1  0.89470000  0.25160000  0.76680000  1.0 0.1101744757
H  H203  1  0.94370000  0.29730000  0.91310000  1.0 0.0816944648
H  H204  1  0.95370000  0.21190000  0.96740000  1.0 0.090413109
H  H205  1  0.04670000  0.27560000  0.96740000  1.0 0.1284883651
H  H206  1  0.95400000  0.26690000  0.96740000  1.0 0.1284883651
H  H207  1  0.04560000  0.33260000  0.96750000  1.0 0.0998308191
H  H208  1  0.55650000  0.41250000  0.74450000  1.0 0.1198777469
H  H209  1  0.54680000  0.46680000  0.77750000  1.0 0.0998308191
H  H210  1  0.45510000  0.46780000  0.71090000  1.0 0.0998308191
H  H211  1  0.35010000  0.65960000  0.79490000  1.0 0.1395431145
H  H212  1  0.40440000  0.62410000  0.78760000  1.0 0.1284883651
H  H213  1  0.44580000  0.70210000  0.71680000  1.0 0.1284883651
H  H214  1  0.39150000  0.73760000  0.72420000  1.0 0.1395431145
H  H215  1  0.15060000  0.70330000  0.84480000  1.0 0.0998308191
H  H216  1  0.09400000  0.70840000  0.87700000  1.0 0.0998308191
H  H217  1  0.05370000  0.77580000  0.79550000  1.0 0.090413109
H  H218  1  0.11030000  0.77060000  0.76330000  1.0 0.1101744757
H  H219  1  0.05590000  0.75160000  0.91350000  1.0 0.0998308191
H  H220  1  0.15810000  0.68570000  0.84480000  1.0 0.0998308191
H  H221  1  0.10160000  0.67750000  0.87650000  1.0 0.0998308191
H  H222  1  0.04880000  0.74020000  0.79850000  1.0 0.090413109
H  H223  1  0.10530000  0.74840000  0.76680000  1.0 0.1101744757
H  H224  1  0.05630000  0.70270000  0.91310000  1.0 0.0816944648
H  H225  1  0.04630000  0.78810000  0.96740000  1.0 0.090413109
H  H226  1  0.95330000  0.72440000  0.96740000  1.0 0.1284883651
H  H227  1  0.04600000  0.73310000  0.96740000  1.0 0.1284883651
H  H228  1  0.95440000  0.66740000  0.96750000  1.0 0.0998308191
H  H229  1  0.44350000  0.58750000  0.74450000  1.0 0.1198777469
H  H230  1  0.45320000  0.53320000  0.77750000  1.0 0.0998308191
H  H231  1  0.54490000  0.53220000  0.71090000  1.0 0.0998308191
H  H232  1  0.64990000  0.65960000  0.20510000  1.0 0.1395431145
H  H233  1  0.59560000  0.62410000  0.21240000  1.0 0.1284883651
H  H234  1  0.55420000  0.70210000  0.28320000  1.0 0.1284883651
H  H235  1  0.60850000  0.73760000  0.27580000  1.0 0.1395431145
H  H236  1  0.84940000  0.70330000  0.15520000  1.0 0.0998308191
H  H237  1  0.90600000  0.70840000  0.12300000  1.0 0.0998308191
H  H238  1  0.94630000  0.77580000  0.20450000  1.0 0.090413109
H  H239  1  0.88970000  0.77060000  0.23670000  1.0 0.1101744757
H  H240  1  0.94410000  0.75160000  0.08650000  1.0 0.0998308191
H  H241  1  0.84190000  0.68570000  0.15520000  1.0 0.0998308191
H  H242  1  0.89840000  0.67750000  0.12350000  1.0 0.0998308191
H  H243  1  0.95120000  0.74020000  0.20150000  1.0 0.090413109
H  H244  1  0.89470000  0.74840000  0.23320000  1.0 0.1101744757
H  H245  1  0.94370000  0.70270000  0.08690000  1.0 0.0816944648
H  H246  1  0.95370000  0.78810000  0.03260000  1.0 0.090413109
H  H247  1  0.04670000  0.72440000  0.03260000  1.0 0.1284883651
H  H248  1  0.95400000  0.73310000  0.03260000  1.0 0.1284883651
H  H249  1  0.04560000  0.66740000  0.03250000  1.0 0.0998308191
H  H250  1  0.55650000  0.58750000  0.25550000  1.0 0.1198777469
H  H251  1  0.54680000  0.53320000  0.22250000  1.0 0.0998308191
H  H252  1  0.45510000  0.53220000  0.28910000  1.0 0.0998308191
H  H253  1  0.79490000  0.64990000  0.65960000  1.0 0.1395431145
H  H254  1  0.78760000  0.59560000  0.62410000  1.0 0.1284883651
H  H255  1  0.71680000  0.55420000  0.70210000  1.0 0.1284883651
H  H256  1  0.72420000  0.60850000  0.73760000  1.0 0.1395431145
H  H257  1  0.84480000  0.84940000  0.70330000  1.0 0.0998308191
H  H258  1  0.87700000  0.90600000  0.70840000  1.0 0.0998308191
H  H259  1  0.79550000  0.94630000  0.77580000  1.0 0.090413109
H  H260  1  0.76330000  0.88970000  0.77060000  1.0 0.1101744757
H  H261  1  0.91350000  0.94410000  0.75160000  1.0 0.0998308191
H  H262  1  0.84480000  0.84190000  0.68570000  1.0 0.0998308191
H  H263  1  0.87650000  0.89840000  0.67750000  1.0 0.0998308191
H  H264  1  0.79850000  0.95120000  0.74020000  1.0 0.090413109
H  H265  1  0.76680000  0.89470000  0.74840000  1.0 0.1101744757
H  H266  1  0.91310000  0.94370000  0.70270000  1.0 0.0816944648
H  H267  1  0.96740000  0.95370000  0.78810000  1.0 0.090413109
H  H268  1  0.96740000  0.04670000  0.72440000  1.0 0.1284883651
H  H269  1  0.96740000  0.95400000  0.73310000  1.0 0.1284883651
H  H270  1  0.96750000  0.04560000  0.66740000  1.0 0.0998308191
H  H271  1  0.74450000  0.55650000  0.58750000  1.0 0.1198777469
H  H272  1  0.77750000  0.54680000  0.53320000  1.0 0.0998308191
H  H273  1  0.71090000  0.45510000  0.53220000  1.0 0.0998308191
H  H274  1  0.20510000  0.35010000  0.65960000  1.0 0.1395431145
H  H275  1  0.21240000  0.40440000  0.62410000  1.0 0.1284883651
H  H276  1  0.28320000  0.44580000  0.70210000  1.0 0.1284883651
H  H277  1  0.27580000  0.39150000  0.73760000  1.0 0.1395431145
H  H278  1  0.15520000  0.15060000  0.70330000  1.0 0.0998308191
H  H279  1  0.12300000  0.09400000  0.70840000  1.0 0.0998308191
H  H280  1  0.20450000  0.05370000  0.77580000  1.0 0.090413109
H  H281  1  0.23670000  0.11030000  0.77060000  1.0 0.1101744757
H  H282  1  0.08650000  0.05590000  0.75160000  1.0 0.0998308191
H  H283  1  0.15520000  0.15810000  0.68570000  1.0 0.0998308191
H  H284  1  0.12350000  0.10160000  0.67750000  1.0 0.0998308191
H  H285  1  0.20150000  0.04880000  0.74020000  1.0 0.090413109
H  H286  1  0.23320000  0.10530000  0.74840000  1.0 0.1101744757
H  H287  1  0.08690000  0.05630000  0.70270000  1.0 0.0816944648
H  H288  1  0.03260000  0.04630000  0.78810000  1.0 0.090413109
H  H289  1  0.03260000  0.95330000  0.72440000  1.0 0.1284883651
H  H290  1  0.03260000  0.04600000  0.73310000  1.0 0.1284883651
H  H291  1  0.03250000  0.95440000  0.66740000  1.0 0.0998308191
H  H292  1  0.25550000  0.44350000  0.58750000  1.0 0.1198777469
H  H293  1  0.22250000  0.45320000  0.53320000  1.0 0.0998308191
H  H294  1  0.28910000  0.54490000  0.53220000  1.0 0.0998308191
H  H295  1  0.20510000  0.64990000  0.34040000  1.0 0.1395431145
H  H296  1  0.21240000  0.59560000  0.37590000  1.0 0.1284883651
H  H297  1  0.28320000  0.55420000  0.29790000  1.0 0.1284883651
H  H298  1  0.27580000  0.60850000  0.26240000  1.0 0.1395431145
H  H299  1  0.15520000  0.84940000  0.29670000  1.0 0.0998308191
H  H300  1  0.12300000  0.90600000  0.29160000  1.0 0.0998308191
H  H301  1  0.20450000  0.94630000  0.22420000  1.0 0.090413109
H  H302  1  0.23670000  0.88970000  0.22940000  1.0 0.1101744757
H  H303  1  0.08650000  0.94410000  0.24840000  1.0 0.0998308191
H  H304  1  0.15520000  0.84190000  0.31430000  1.0 0.0998308191
H  H305  1  0.12350000  0.89840000  0.32250000  1.0 0.0998308191
H  H306  1  0.20150000  0.95120000  0.25980000  1.0 0.090413109
H  H307  1  0.23320000  0.89470000  0.25160000  1.0 0.1101744757
H  H308  1  0.08690000  0.94370000  0.29730000  1.0 0.0816944648
H  H309  1  0.03260000  0.95370000  0.21190000  1.0 0.090413109
H  H310  1  0.03260000  0.04670000  0.27560000  1.0 0.1284883651
H  H311  1  0.03260000  0.95400000  0.26690000  1.0 0.1284883651
H  H312  1  0.03250000  0.04560000  0.33260000  1.0 0.0998308191
H  H313  1  0.25550000  0.55650000  0.41250000  1.0 0.1198777469
H  H314  1  0.22250000  0.54680000  0.46680000  1.0 0.0998308191
H  H315  1  0.28910000  0.45510000  0.46780000  1.0 0.0998308191
H  H316  1  0.79490000  0.35010000  0.34040000  1.0 0.1395431145
H  H317  1  0.78760000  0.40440000  0.37590000  1.0 0.1284883651
H  H318  1  0.71680000  0.44580000  0.29790000  1.0 0.1284883651
H  H319  1  0.72420000  0.39150000  0.26240000  1.0 0.1395431145
H  H320  1  0.84480000  0.15060000  0.29670000  1.0 0.0998308191
H  H321  1  0.87700000  0.09400000  0.29160000  1.0 0.0998308191
H  H322  1  0.79550000  0.05370000  0.22420000  1.0 0.090413109
H  H323  1  0.76330000  0.11030000  0.22940000  1.0 0.1101744757
H  H324  1  0.91350000  0.05590000  0.24840000  1.0 0.0998308191
H  H325  1  0.84480000  0.15810000  0.31430000  1.0 0.0998308191
H  H326  1  0.87650000  0.10160000  0.32250000  1.0 0.0998308191
H  H327  1  0.79850000  0.04880000  0.25980000  1.0 0.090413109
H  H328  1  0.76680000  0.10530000  0.25160000  1.0 0.1101744757
H  H329  1  0.91310000  0.05630000  0.29730000  1.0 0.0816944648
H  H330  1  0.96740000  0.04630000  0.21190000  1.0 0.090413109
H  H331  1  0.96740000  0.95330000  0.27560000  1.0 0.1284883651
H  H332  1  0.96740000  0.04600000  0.26690000  1.0 0.1284883651
H  H333  1  0.96750000  0.95440000  0.33260000  1.0 0.0998308191
H  H334  1  0.74450000  0.44350000  0.41250000  1.0 0.1198777469
H  H335  1  0.77750000  0.45320000  0.46680000  1.0 0.0998308191
H  H336  1  0.71090000  0.54490000  0.46780000  1.0 0.0998308191
H  H337  1  0.65960000  0.79490000  0.64990000  1.0 0.1395431145
H  H338  1  0.62410000  0.78760000  0.59560000  1.0 0.1284883651
H  H339  1  0.70210000  0.71680000  0.55420000  1.0 0.1284883651
H  H340  1  0.73760000  0.72420000  0.60850000  1.0 0.1395431145
H  H341  1  0.70330000  0.84480000  0.84940000  1.0 0.0998308191
H  H342  1  0.70840000  0.87700000  0.90600000  1.0 0.0998308191
H  H343  1  0.77580000  0.79550000  0.94630000  1.0 0.090413109
H  H344  1  0.77060000  0.76330000  0.88970000  1.0 0.1101744757
H  H345  1  0.75160000  0.91350000  0.94410000  1.0 0.0998308191
H  H346  1  0.68570000  0.84480000  0.84190000  1.0 0.0998308191
H  H347  1  0.67750000  0.87650000  0.89840000  1.0 0.0998308191
H  H348  1  0.74020000  0.79850000  0.95120000  1.0 0.090413109
H  H349  1  0.74840000  0.76680000  0.89470000  1.0 0.1101744757
H  H350  1  0.70270000  0.91310000  0.94370000  1.0 0.0816944648
H  H351  1  0.78810000  0.96740000  0.95370000  1.0 0.090413109
H  H352  1  0.72440000  0.96740000  0.04670000  1.0 0.1284883651
H  H353  1  0.73310000  0.96740000  0.95400000  1.0 0.1284883651
H  H354  1  0.66740000  0.96750000  0.04560000  1.0 0.0998308191
H  H355  1  0.58750000  0.74450000  0.55650000  1.0 0.1198777469
H  H356  1  0.53320000  0.77750000  0.54680000  1.0 0.0998308191
H  H357  1  0.53220000  0.71090000  0.45510000  1.0 0.0998308191
H  H358  1  0.65960000  0.20510000  0.35010000  1.0 0.1395431145
H  H359  1  0.62410000  0.21240000  0.40440000  1.0 0.1284883651
H  H360  1  0.70210000  0.28320000  0.44580000  1.0 0.1284883651
H  H361  1  0.73760000  0.27580000  0.39150000  1.0 0.1395431145
H  H362  1  0.70330000  0.15520000  0.15060000  1.0 0.0998308191
H  H363  1  0.70840000  0.12300000  0.09400000  1.0 0.0998308191
H  H364  1  0.77580000  0.20450000  0.05370000  1.0 0.090413109
H  H365  1  0.77060000  0.23670000  0.11030000  1.0 0.1101744757
H  H366  1  0.75160000  0.08650000  0.05590000  1.0 0.0998308191
H  H367  1  0.68570000  0.15520000  0.15810000  1.0 0.0998308191
H  H368  1  0.67750000  0.12350000  0.10160000  1.0 0.0998308191
H  H369  1  0.74020000  0.20150000  0.04880000  1.0 0.090413109
H  H370  1  0.74840000  0.23320000  0.10530000  1.0 0.1101744757
H  H371  1  0.70270000  0.08690000  0.05630000  1.0 0.0816944648
H  H372  1  0.78810000  0.03260000  0.04630000  1.0 0.090413109
H  H373  1  0.72440000  0.03260000  0.95330000  1.0 0.1284883651
H  H374  1  0.73310000  0.03260000  0.04600000  1.0 0.1284883651
H  H375  1  0.66740000  0.03250000  0.95440000  1.0 0.0998308191
H  H376  1  0.58750000  0.25550000  0.44350000  1.0 0.1198777469
H  H377  1  0.53320000  0.22250000  0.45320000  1.0 0.0998308191
H  H378  1  0.53220000  0.28910000  0.54490000  1.0 0.0998308191
H  H379  1  0.34040000  0.20510000  0.64990000  1.0 0.1395431145
H  H380  1  0.37590000  0.21240000  0.59560000  1.0 0.1284883651
H  H381  1  0.29790000  0.28320000  0.55420000  1.0 0.1284883651
H  H382  1  0.26240000  0.27580000  0.60850000  1.0 0.1395431145
H  H383  1  0.29670000  0.15520000  0.84940000  1.0 0.0998308191
H  H384  1  0.29160000  0.12300000  0.90600000  1.0 0.0998308191
H  H385  1  0.22420000  0.20450000  0.94630000  1.0 0.090413109
H  H386  1  0.22940000  0.23670000  0.88970000  1.0 0.1101744757
H  H387  1  0.24840000  0.08650000  0.94410000  1.0 0.0998308191
H  H388  1  0.31430000  0.15520000  0.84190000  1.0 0.0998308191
H  H389  1  0.32250000  0.12350000  0.89840000  1.0 0.0998308191
H  H390  1  0.25980000  0.20150000  0.95120000  1.0 0.090413109
H  H391  1  0.25160000  0.23320000  0.89470000  1.0 0.1101744757
H  H392  1  0.29730000  0.08690000  0.94370000  1.0 0.0816944648
H  H393  1  0.21190000  0.03260000  0.95370000  1.0 0.090413109
H  H394  1  0.27560000  0.03260000  0.04670000  1.0 0.1284883651
H  H395  1  0.26690000  0.03260000  0.95400000  1.0 0.1284883651
H  H396  1  0.33260000  0.03250000  0.04560000  1.0 0.0998308191
H  H397  1  0.41250000  0.25550000  0.55650000  1.0 0.1198777469
H  H398  1  0.46680000  0.22250000  0.54680000  1.0 0.0998308191
H  H399  1  0.46780000  0.28910000  0.45510000  1.0 0.0998308191
H  H400  1  0.34040000  0.79490000  0.35010000  1.0 0.1395431145
H  H401  1  0.37590000  0.78760000  0.40440000  1.0 0.1284883651
H  H402  1  0.29790000  0.71680000  0.44580000  1.0 0.1284883651
H  H403  1  0.26240000  0.72420000  0.39150000  1.0 0.1395431145
H  H404  1  0.29670000  0.84480000  0.15060000  1.0 0.0998308191
H  H405  1  0.29160000  0.87700000  0.09400000  1.0 0.0998308191
H  H406  1  0.22420000  0.79550000  0.05370000  1.0 0.090413109
H  H407  1  0.22940000  0.76330000  0.11030000  1.0 0.1101744757
H  H408  1  0.24840000  0.91350000  0.05590000  1.0 0.0998308191
H  H409  1  0.31430000  0.84480000  0.15810000  1.0 0.0998308191
H  H410  1  0.32250000  0.87650000  0.10160000  1.0 0.0998308191
H  H411  1  0.25980000  0.79850000  0.04880000  1.0 0.090413109
H  H412  1  0.25160000  0.76680000  0.10530000  1.0 0.1101744757
H  H413  1  0.29730000  0.91310000  0.05630000  1.0 0.0816944648
H  H414  1  0.21190000  0.96740000  0.04630000  1.0 0.090413109
H  H415  1  0.27560000  0.96740000  0.95330000  1.0 0.1284883651
H  H416  1  0.26690000  0.96740000  0.04600000  1.0 0.1284883651
H  H417  1  0.33260000  0.96750000  0.95440000  1.0 0.0998308191
H  H418  1  0.41250000  0.74450000  0.44350000  1.0 0.1198777469
H  H419  1  0.46680000  0.77750000  0.45320000  1.0 0.0998308191
H  H420  1  0.46780000  0.71090000  0.54490000  1.0 0.0998308191
H  H421  1  0.64990000  0.65960000  0.79490000  1.0 0.1395431145
H  H422  1  0.59560000  0.62410000  0.78760000  1.0 0.1284883651
H  H423  1  0.55420000  0.70210000  0.71680000  1.0 0.1284883651
H  H424  1  0.60850000  0.73760000  0.72420000  1.0 0.1395431145
H  H425  1  0.84940000  0.70330000  0.84480000  1.0 0.0998308191
H  H426  1  0.90600000  0.70840000  0.87700000  1.0 0.0998308191
H  H427  1  0.94630000  0.77580000  0.79550000  1.0 0.090413109
H  H428  1  0.88970000  0.77060000  0.76330000  1.0 0.1101744757
H  H429  1  0.94410000  0.75160000  0.91350000  1.0 0.0998308191
H  H430  1  0.84190000  0.68570000  0.84480000  1.0 0.0998308191
H  H431  1  0.89840000  0.67750000  0.87650000  1.0 0.0998308191
H  H432  1  0.95120000  0.74020000  0.79850000  1.0 0.090413109
H  H433  1  0.89470000  0.74840000  0.76680000  1.0 0.1101744757
H  H434  1  0.94370000  0.70270000  0.91310000  1.0 0.0816944648
H  H435  1  0.95370000  0.78810000  0.96740000  1.0 0.090413109
H  H436  1  0.04670000  0.72440000  0.96740000  1.0 0.1284883651
H  H437  1  0.95400000  0.73310000  0.96740000  1.0 0.1284883651
H  H438  1  0.04560000  0.66740000  0.96750000  1.0 0.0998308191
H  H439  1  0.55650000  0.58750000  0.74450000  1.0 0.1198777469
H  H440  1  0.54680000  0.53320000  0.77750000  1.0 0.0998308191
H  H441  1  0.45510000  0.53220000  0.71090000  1.0 0.0998308191
H  H442  1  0.35010000  0.65960000  0.20510000  1.0 0.1395431145
H  H443  1  0.40440000  0.62410000  0.21240000  1.0 0.1284883651
H  H444  1  0.44580000  0.70210000  0.28320000  1.0 0.1284883651
H  H445  1  0.39150000  0.73760000  0.27580000  1.0 0.1395431145
H  H446  1  0.15060000  0.70330000  0.15520000  1.0 0.0998308191
H  H447  1  0.09400000  0.70840000  0.12300000  1.0 0.0998308191
H  H448  1  0.05370000  0.77580000  0.20450000  1.0 0.090413109
H  H449  1  0.11030000  0.77060000  0.23670000  1.0 0.1101744757
H  H450  1  0.05590000  0.75160000  0.08650000  1.0 0.0998308191
H  H451  1  0.15810000  0.68570000  0.15520000  1.0 0.0998308191
H  H452  1  0.10160000  0.67750000  0.12350000  1.0 0.0998308191
H  H453  1  0.04880000  0.74020000  0.20150000  1.0 0.090413109
H  H454  1  0.10530000  0.74840000  0.23320000  1.0 0.1101744757
H  H455  1  0.05630000  0.70270000  0.08690000  1.0 0.090413109
H  H456  1  0.04630000  0.78810000  0.03260000  1.0 0.090413109
H  H457  1  0.95330000  0.72440000  0.03260000  1.0 0.1284883651
H  H458  1  0.04600000  0.73310000  0.03260000  1.0 0.1284883651
H  H459  1  0.95440000  0.66740000  0.03250000  1.0 0.0998308191
H  H460  1  0.44350000  0.58750000  0.25550000  1.0 0.1198777469
H  H461  1  0.45320000  0.53320000  0.22250000  1.0 0.0998308191
H  H462  1  0.54490000  0.53220000  0.28910000  1.0 0.0998308191
H  H463  1  0.64990000  0.34040000  0.20510000  1.0 0.1395431145
H  H464  1  0.59560000  0.37590000  0.21240000  1.0 0.1284883651
H  H465  1  0.55420000  0.29790000  0.28320000  1.0 0.1284883651
H  H466  1  0.60850000  0.26240000  0.27580000  1.0 0.1395431145
H  H467  1  0.84940000  0.29670000  0.15520000  1.0 0.0998308191
H  H468  1  0.90600000  0.29160000  0.12300000  1.0 0.0998308191
H  H469  1  0.94630000  0.22420000  0.20450000  1.0 0.090413109
H  H470  1  0.88970000  0.22940000  0.23670000  1.0 0.1101744757
H  H471  1  0.94410000  0.24840000  0.08650000  1.0 0.0998308191
H  H472  1  0.84190000  0.31430000  0.15520000  1.0 0.0998308191
H  H473  1  0.89840000  0.32250000  0.12350000  1.0 0.0998308191
H  H474  1  0.95120000  0.25980000  0.20150000  1.0 0.090413109
H  H475  1  0.89470000  0.25160000  0.23320000  1.0 0.1101744757
H  H476  1  0.94370000  0.29730000  0.08690000  1.0 0.0816944648
H  H477  1  0.95370000  0.21190000  0.03260000  1.0 0.090413109
H  H478  1  0.04670000  0.27560000  0.03260000  1.0 0.1284883651
H  H479  1  0.95400000  0.26690000  0.03260000  1.0 0.1284883651
H  H480  1  0.04560000  0.33260000  0.03250000  1.0 0.0998308191
H  H481  1  0.55650000  0.41250000  0.25550000  1.0 0.1198777469
H  H482  1  0.54680000  0.46680000  0.22250000  1.0 0.0998308191
H  H483  1  0.45510000  0.46780000  0.28910000  1.0 0.0998308191
H  H484  1  0.35010000  0.34040000  0.79490000  1.0 0.1395431145
H  H485  1  0.40440000  0.37590000  0.78760000  1.0 0.1284883651
H  H486  1  0.44580000  0.29790000  0.71680000  1.0 0.1284883651
H  H487  1  0.39150000  0.26240000  0.72420000  1.0 0.1395431145
H  H488  1  0.15060000  0.29670000  0.84480000  1.0 0.0998308191
H  H489  1  0.09400000  0.29160000  0.87700000  1.0 0.0998308191
H  H490  1  0.05370000  0.22420000  0.79550000  1.0 0.090413109
H  H491  1  0.11030000  0.22940000  0.76330000  1.0 0.1101744757
H  H492  1  0.05590000  0.24840000  0.91350000  1.0 0.0998308191
H  H493  1  0.15810000  0.31430000  0.84480000  1.0 0.0998308191
H  H494  1  0.10160000  0.32250000  0.87650000  1.0 0.0998308191
H  H495  1  0.04880000  0.25980000  0.79850000  1.0 0.090413109
H  H496  1  0.10530000  0.25160000  0.76680000  1.0 0.1101744757
H  H497  1  0.05630000  0.29730000  0.91310000  1.0 0.0816944648
H  H498  1  0.04630000  0.21190000  0.96740000  1.0 0.090413109
H  H499  1  0.95330000  0.27560000  0.96740000  1.0 0.1284883651
H  H500  1  0.04600000  0.26690000  0.96740000  1.0 0.1284883651
H  H501  1  0.95440000  0.33260000  0.96750000  1.0 0.0998308191
H  H502  1  0.44350000  0.41250000  0.74450000  1.0 0.1198777469
H  H503  1  0.45320000  0.46680000  0.77750000  1.0 0.0998308191
H  H504  1  0.54490000  0.46780000  0.71090000  1.0 0.0998308191
H  H505  1  0.24820000  0.50000000  0.31520000  1.0 0.1284883651
H  H506  1  0.75180000  0.50000000  0.31520000  1.0 0.1284883651
H  H507  1  0.75180000  0.50000000  0.68480000  1.0 0.1284883651
H  H508  1  0.24820000  0.50000000  0.68480000  1.0 0.1284883651
H  H509  1  0.31520000  0.24820000  0.50000000  1.0 0.1284883651
H  H510  1  0.31520000  0.75180000  0.50000000  1.0 0.1284883651
H  H511  1  0.68480000  0.75180000  0.50000000  1.0 0.1284883651
H  H512  1  0.68480000  0.24820000  0.50000000  1.0 0.1284883651
H  H513  1  0.50000000  0.31520000  0.24820000  1.0 0.1284883651
H  H514  1  0.50000000  0.31520000  0.75180000  1.0 0.1284883651
H  H515  1  0.50000000  0.68480000  0.75180000  1.0 0.1284883651
H  H516  1  0.50000000  0.68480000  0.24820000  1.0 0.1284883651
H  H517  1  0.18370000  0.00000000  0.25820000  1.0 0.0816944648
H  H518  1  0.18480000  0.00000000  0.29410000  1.0 0.0998308191
H  H519  1  0.81630000  0.00000000  0.25820000  1.0 0.0816944648
H  H520  1  0.81520000  0.00000000  0.29410000  1.0 0.0998308191
H  H521  1  0.81630000  0.00000000  0.74180000  1.0 0.0816944648
H  H522  1  0.81520000  0.00000000  0.70590000  1.0 0.0998308191
H  H523  1  0.18370000  0.00000000  0.74180000  1.0 0.0816944648
H  H524  1  0.18480000  0.00000000  0.70590000  1.0 0.0998308191
H  H525  1  0.25820000  0.18370000  0.00000000  1.0 0.0816944648
H  H526  1  0.29410000  0.18480000  0.00000000  1.0 0.0998308191
H  H527  1  0.25820000  0.81630000  0.00000000  1.0 0.0816944648
H  H528  1  0.29410000  0.81520000  0.00000000  1.0 0.0998308191
H  H529  1  0.74180000  0.81630000  0.00000000  1.0 0.0816944648
H  H530  1  0.70590000  0.81520000  0.00000000  1.0 0.0998308191
H  H531  1  0.74180000  0.18370000  0.00000000  1.0 0.0816944648
H  H532  1  0.70590000  0.18480000  0.00000000  1.0 0.0998308191
H  H533  1  0.00000000  0.25820000  0.18370000  1.0 0.0816944648
H  H534  1  0.00000000  0.29410000  0.18480000  1.0 0.0998308191
H  H535  1  0.00000000  0.25820000  0.81630000  1.0 0.0816944648
H  H536  1  0.00000000  0.29410000  0.81520000  1.0 0.0998308191
H  H537  1  0.00000000  0.74180000  0.81630000  1.0 0.0816944648
H  H538  1  0.00000000  0.70590000  0.81520000  1.0 0.0998308191
H  H539  1  0.00000000  0.74180000  0.18370000  1.0 0.0816944648
H  H540  1  0.00000000  0.70590000  0.18480000  1.0 0.0998308191
C  C1  1  0.23500000  0.33122000  0.27620000  1.0 0.5981349408
C  C2  1  0.23978000  0.36566000  0.29807000  1.0 -0.0388511546
C  C3  1  0.22095000  0.36951000  0.33178000  1.0 -0.080711394
C  C4  1  0.22531000  0.40181000  0.35285000  1.0 -0.1576026709
C  C5  1  0.24849000  0.43024000  0.34021000  1.0 0.090413109
C  C6  1  0.26731000  0.42639000  0.30649000  1.0 -0.1576026709
C  C7  1  0.26296000  0.39409000  0.28542000  1.0 -0.080711394
C  C8  1  0.25126000  0.46635000  0.36099000  1.0 0.0816944648
C  C9  1  0.25410000  0.46660000  0.39945000  1.0 -0.2064146788
C  C10  1  0.23590000  0.47170000  0.48034000  1.0 -0.1016279922
C  C11  1  0.27550000  0.52620000  0.48083000  1.0 -0.080711394
C  C12  1  0.21760000  0.17280000  0.27068000  1.0 0.1101744757
C  C13  1  0.19900000  0.13574000  0.26350000  1.0 0.0288582928
C  C14  1  0.16520000  0.13090000  0.28200000  1.0 -0.0574022771
C  C15  1  0.14608000  0.09730000  0.27900000  1.0 -0.0388511546
C  C16  1  0.16070000  0.06850000  0.25740000  1.0 -0.0196542004
C  C17  1  0.19450000  0.07334000  0.23900000  1.0 -0.080711394
C  C18  1  0.21360000  0.10700000  0.24200000  1.0 -0.080711394
C  C19  1  0.13790000  0.03360000  0.25360000  1.0 0.0208822331
C  C20  1  0.09970000  0.03300000  0.24980000  1.0 -0.2033963927
C  C21  1  0.01934000  0.02740000  0.22490000  1.0 -0.140161975
C  C22  1  0.01934000  0.97220000  0.26260000  1.0 -0.0388511546
C  C23  1  0.21876000  0.17210000  0.27444000  1.0 0.1198777469
C  C24  1  0.19716000  0.13702000  0.28216000  1.0 0.0288582928
C  C25  1  0.16458000  0.13592000  0.30320000  1.0 -0.080711394
C  C26  1  0.14576000  0.10234000  0.30810000  1.0 -0.0886648686
C  C27  1  0.15952000  0.06986000  0.29190000  1.0 -0.0196542004
C  C28  1  0.19209000  0.07095000  0.27090000  1.0 -0.0388511546
C  C29  1  0.21092000  0.10453000  0.26600000  1.0 -0.0388511546
C  C30  1  0.13900000  0.03383000  0.29560000  1.0 0.0208822331
C  C31  1  0.10020000  0.03340000  0.29680000  1.0 -0.1909214688
C  C32  1  0.01940000  0.02730000  0.28030000  1.0 -0.0280438547
C  C33  1  0.01933000  0.97310000  0.31920000  1.0 -0.140161975
C  C34  1  0.76500000  0.66878000  0.27620000  1.0 0.5981349408
C  C35  1  0.76022000  0.63434000  0.29807000  1.0 -0.0388511546
C  C36  1  0.77905000  0.63049000  0.33178000  1.0 -0.080711394
C  C37  1  0.77469000  0.59819000  0.35285000  1.0 -0.1576026709
C  C38  1  0.75151000  0.56976000  0.34021000  1.0 0.090413109
C  C39  1  0.73269000  0.57361000  0.30649000  1.0 -0.1576026709
C  C40  1  0.73704000  0.60591000  0.28542000  1.0 -0.080711394
C  C41  1  0.74874000  0.53365000  0.36099000  1.0 0.0816944648
C  C42  1  0.74590000  0.53340000  0.39945000  1.0 -0.2064146788
C  C43  1  0.76410000  0.52830000  0.48034000  1.0 -0.1016279922
C  C44  1  0.72450000  0.47380000  0.48083000  1.0 -0.080711394
C  C45  1  0.78240000  0.82720000  0.27068000  1.0 0.1101744757
C  C46  1  0.80100000  0.86426000  0.26350000  1.0 0.0288582928
C  C47  1  0.83480000  0.86910000  0.28200000  1.0 -0.0574022771
C  C48  1  0.85392000  0.90270000  0.27900000  1.0 -0.0388511546
C  C49  1  0.83930000  0.93150000  0.25740000  1.0 -0.0196542004
C  C50  1  0.80550000  0.92666000  0.23900000  1.0 -0.080711394
C  C51  1  0.78640000  0.89300000  0.24200000  1.0 -0.080711394
C  C52  1  0.86210000  0.96640000  0.25360000  1.0 0.0208822331
C  C53  1  0.90030000  0.96700000  0.24980000  1.0 -0.2033963927
C  C54  1  0.98066000  0.97260000  0.22490000  1.0 -0.140161975
C  C55  1  0.98066000  0.02780000  0.26260000  1.0 -0.0388511546
C  C56  1  0.78124000  0.82790000  0.27444000  1.0 0.1198777469
C  C57  1  0.80284000  0.86298000  0.28216000  1.0 0.0288582928
C  C58  1  0.83542000  0.86408000  0.30320000  1.0 -0.080711394
C  C59  1  0.85424000  0.89766000  0.30810000  1.0 -0.0886648686
C  C60  1  0.84048000  0.93014000  0.29190000  1.0 -0.0146736593
C  C61  1  0.80791000  0.92905000  0.27090000  1.0 -0.0388511546
C  C62  1  0.78908000  0.89547000  0.26600000  1.0 -0.0388511546
C  C63  1  0.86100000  0.96617000  0.29560000  1.0 0.0208822331
C  C64  1  0.89980000  0.96660000  0.29680000  1.0 -0.1909214688
C  C65  1  0.98060000  0.97270000  0.28030000  1.0 -0.0280438547
C  C66  1  0.98067000  0.02690000  0.31920000  1.0 -0.140161975
C  C67  1  0.76500000  0.33122000  0.72380000  1.0 0.5981349408
C  C68  1  0.76022000  0.36566000  0.70193000  1.0 -0.0388511546
C  C69  1  0.77905000  0.36951000  0.66822000  1.0 -0.080711394
C  C70  1  0.77469000  0.40181000  0.64715000  1.0 -0.1576026709
C  C71  1  0.75151000  0.43024000  0.65979000  1.0 0.090413109
C  C72  1  0.73269000  0.42639000  0.69351000  1.0 -0.1576026709
C  C73  1  0.73704000  0.39409000  0.71458000  1.0 -0.080711394
C  C74  1  0.74874000  0.46635000  0.63901000  1.0 0.0816944648
C  C75  1  0.74590000  0.46660000  0.60055000  1.0 -0.2064146788
C  C76  1  0.76410000  0.47170000  0.51966000  1.0 -0.1016279922
C  C77  1  0.72450000  0.52620000  0.51917000  1.0 -0.080711394
C  C78  1  0.78240000  0.17280000  0.72932000  1.0 0.1101744757
C  C79  1  0.80100000  0.13574000  0.73650000  1.0 0.0288582928
C  C80  1  0.83480000  0.13090000  0.71800000  1.0 -0.0574022771
C  C81  1  0.85392000  0.09730000  0.72100000  1.0 -0.0388511546
C  C82  1  0.83930000  0.06850000  0.74260000  1.0 -0.0196542004
C  C83  1  0.80550000  0.07334000  0.76100000  1.0 -0.080711394
C  C84  1  0.78640000  0.10700000  0.75800000  1.0 -0.080711394
C  C85  1  0.86210000  0.03360000  0.74640000  1.0 0.0208822331
C  C86  1  0.90030000  0.03300000  0.75020000  1.0 -0.2033963927
C  C87  1  0.98066000  0.02740000  0.77510000  1.0 -0.140161975
C  C88  1  0.98066000  0.97220000  0.73740000  1.0 -0.0388511546
C  C89  1  0.78124000  0.17210000  0.72556000  1.0 0.1198777469
C  C90  1  0.80284000  0.13702000  0.71784000  1.0 0.0288582928
C  C91  1  0.83542000  0.13592000  0.69680000  1.0 -0.080711394
C  C92  1  0.85424000  0.10234000  0.69190000  1.0 -0.0886648686
C  C93  1  0.84048000  0.06986000  0.70810000  1.0 -0.0196542004
C  C94  1  0.80791000  0.07095000  0.72910000  1.0 -0.0388511546
C  C95  1  0.78908000  0.10453000  0.73400000  1.0 -0.0388511546
C  C96  1  0.86100000  0.03383000  0.70440000  1.0 0.0208822331
C  C97  1  0.89980000  0.03340000  0.70320000  1.0 -0.1909214688
C  C98  1  0.98060000  0.02730000  0.71970000  1.0 -0.0280438547
C  C99  1  0.98067000  0.97310000  0.68080000  1.0 -0.140161975
C  C100  1  0.23500000  0.66878000  0.72380000  1.0 0.5981349408
C  C101  1  0.23978000  0.63434000  0.70193000  1.0 -0.0388511546
C  C102  1  0.22095000  0.63049000  0.66822000  1.0 -0.080711394
C  C103  1  0.22531000  0.59819000  0.64715000  1.0 -0.1576026709
C  C104  1  0.24849000  0.56976000  0.65979000  1.0 0.090413109
C  C105  1  0.26731000  0.57361000  0.69351000  1.0 -0.1576026709
C  C106  1  0.26296000  0.60591000  0.71458000  1.0 -0.080711394
C  C107  1  0.25126000  0.53365000  0.63901000  1.0 0.0816944648
C  C108  1  0.25410000  0.53340000  0.60055000  1.0 -0.2064146788
C  C109  1  0.23590000  0.52830000  0.51966000  1.0 -0.1016279922
C  C110  1  0.27550000  0.47380000  0.51917000  1.0 -0.080711394
C  C111  1  0.21760000  0.82720000  0.72932000  1.0 0.1101744757
C  C112  1  0.19900000  0.86426000  0.73650000  1.0 0.0288582928
C  C113  1  0.16520000  0.86910000  0.71800000  1.0 -0.0574022771
C  C114  1  0.14608000  0.90270000  0.72100000  1.0 -0.0388511546
C  C115  1  0.16070000  0.93150000  0.74260000  1.0 -0.0196542004
C  C116  1  0.19450000  0.92666000  0.76100000  1.0 -0.080711394
C  C117  1  0.21360000  0.89300000  0.75800000  1.0 -0.080711394
C  C118  1  0.13790000  0.96640000  0.74640000  1.0 0.0208822331
C  C119  1  0.09970000  0.96700000  0.75020000  1.0 -0.2033963927
C  C120  1  0.01934000  0.97260000  0.77510000  1.0 -0.140161975
C  C121  1  0.01934000  0.02780000  0.73740000  1.0 -0.0388511546
C  C122  1  0.21876000  0.82790000  0.72556000  1.0 0.1198777469
C  C123  1  0.19716000  0.86298000  0.71784000  1.0 0.0288582928
C  C124  1  0.16458000  0.86408000  0.69680000  1.0 -0.080711394
C  C125  1  0.14576000  0.89766000  0.69190000  1.0 -0.0886648686
C  C126  1  0.15952000  0.93014000  0.70810000  1.0 -0.0196542004
C  C127  1  0.19209000  0.92905000  0.72910000  1.0 -0.0388511546
C  C128  1  0.21092000  0.89547000  0.73400000  1.0 -0.0388511546
C  C129  1  0.13900000  0.96617000  0.70440000  1.0 0.0208822331
C  C130  1  0.10020000  0.96660000  0.70320000  1.0 -0.1909214688
C  C131  1  0.01940000  0.97270000  0.71970000  1.0 -0.0280438547
C  C132  1  0.01933000  0.02690000  0.68080000  1.0 -0.140161975
C  C133  1  0.27620000  0.23500000  0.33122000  1.0 0.5981349408
C  C134  1  0.29807000  0.23978000  0.36566000  1.0 -0.0388511546
C  C135  1  0.33178000  0.22095000  0.36951000  1.0 -0.080711394
C  C136  1  0.35285000  0.22531000  0.40181000  1.0 -0.1576026709
C  C137  1  0.34021000  0.24849000  0.43024000  1.0 0.090413109
C  C138  1  0.30649000  0.26731000  0.42639000  1.0 -0.1576026709
C  C139  1  0.28542000  0.26296000  0.39409000  1.0 -0.080711394
C  C140  1  0.36099000  0.25126000  0.46635000  1.0 0.0816944648
C  C141  1  0.39945000  0.25410000  0.46660000  1.0 -0.2064146788
C  C142  1  0.48034000  0.23590000  0.47170000  1.0 -0.1016279922
C  C143  1  0.48083000  0.27550000  0.52620000  1.0 -0.080711394
C  C144  1  0.27068000  0.21760000  0.17280000  1.0 0.1101744757
C  C145  1  0.26350000  0.19900000  0.13574000  1.0 0.0288582928
C  C146  1  0.28200000  0.16520000  0.13090000  1.0 -0.0574022771
C  C147  1  0.27900000  0.14608000  0.09730000  1.0 -0.0388511546
C  C148  1  0.25740000  0.16070000  0.06850000  1.0 -0.0196542004
C  C149  1  0.23900000  0.19450000  0.07334000  1.0 -0.080711394
C  C150  1  0.24200000  0.21360000  0.10700000  1.0 -0.080711394
C  C151  1  0.25360000  0.13790000  0.03360000  1.0 0.0208822331
C  C152  1  0.24980000  0.09970000  0.03300000  1.0 -0.2033963927
C  C153  1  0.22490000  0.01934000  0.02740000  1.0 -0.140161975
C  C154  1  0.26260000  0.01934000  0.97220000  1.0 -0.0388511546
C  C155  1  0.27444000  0.21876000  0.17210000  1.0 0.1198777469
C  C156  1  0.28216000  0.19716000  0.13702000  1.0 0.0288582928
C  C157  1  0.30320000  0.16458000  0.13592000  1.0 -0.080711394
C  C158  1  0.30810000  0.14576000  0.10234000  1.0 -0.0886648686
C  C159  1  0.29190000  0.15952000  0.06986000  1.0 -0.0196542004
C  C160  1  0.27090000  0.19209000  0.07095000  1.0 -0.0388511546
C  C161  1  0.26600000  0.21092000  0.10453000  1.0 -0.0388511546
C  C162  1  0.29560000  0.13900000  0.03383000  1.0 0.0208822331
C  C163  1  0.29680000  0.10020000  0.03340000  1.0 -0.1909214688
C  C164  1  0.28030000  0.01940000  0.02730000  1.0 -0.0280438547
C  C165  1  0.31920000  0.01933000  0.97310000  1.0 -0.140161975
C  C166  1  0.27620000  0.76500000  0.66878000  1.0 0.5981349408
C  C167  1  0.29807000  0.76022000  0.63434000  1.0 -0.0388511546
C  C168  1  0.33178000  0.77905000  0.63049000  1.0 -0.080711394
C  C169  1  0.35285000  0.77469000  0.59819000  1.0 -0.1576026709
C  C170  1  0.34021000  0.75151000  0.56976000  1.0 0.090413109
C  C171  1  0.30649000  0.73269000  0.57361000  1.0 -0.1576026709
C  C172  1  0.28542000  0.73704000  0.60591000  1.0 -0.080711394
C  C173  1  0.36099000  0.74874000  0.53365000  1.0 0.0816944648
C  C174  1  0.39945000  0.74590000  0.53340000  1.0 -0.2064146788
C  C175  1  0.48034000  0.76410000  0.52830000  1.0 -0.1016279922
C  C176  1  0.48083000  0.72450000  0.47380000  1.0 -0.080711394
C  C177  1  0.27068000  0.78240000  0.82720000  1.0 0.1101744757
C  C178  1  0.26350000  0.80100000  0.86426000  1.0 0.0288582928
C  C179  1  0.28200000  0.83480000  0.86910000  1.0 -0.0574022771
C  C180  1  0.27900000  0.85392000  0.90270000  1.0 -0.0388511546
C  C181  1  0.25740000  0.83930000  0.93150000  1.0 -0.0196542004
C  C182  1  0.23900000  0.80550000  0.92666000  1.0 -0.080711394
C  C183  1  0.24200000  0.78640000  0.89300000  1.0 -0.080711394
C  C184  1  0.25360000  0.86210000  0.96640000  1.0 0.0208822331
C  C185  1  0.24980000  0.90030000  0.96700000  1.0 -0.2033963927
C  C186  1  0.22490000  0.98066000  0.97260000  1.0 -0.140161975
C  C187  1  0.26260000  0.98066000  0.02780000  1.0 -0.0388511546
C  C188  1  0.27444000  0.78124000  0.82790000  1.0 0.1198777469
C  C189  1  0.28216000  0.80284000  0.86298000  1.0 0.0288582928
C  C190  1  0.30320000  0.83542000  0.86408000  1.0 -0.080711394
C  C191  1  0.30810000  0.85424000  0.89766000  1.0 -0.0886648686
C  C192  1  0.29190000  0.84048000  0.93014000  1.0 -0.0146736593
C  C193  1  0.27090000  0.80791000  0.92905000  1.0 -0.0388511546
C  C194  1  0.26600000  0.78908000  0.89547000  1.0 -0.0388511546
C  C195  1  0.29560000  0.86100000  0.96617000  1.0 0.0208822331
C  C196  1  0.29680000  0.89980000  0.96660000  1.0 -0.1909214688
C  C197  1  0.28030000  0.98060000  0.97270000  1.0 -0.0280438547
C  C198  1  0.31920000  0.98067000  0.02690000  1.0 -0.140161975
C  C199  1  0.72380000  0.76500000  0.33122000  1.0 0.5981349408
C  C200  1  0.70193000  0.76022000  0.36566000  1.0 -0.0388511546
C  C201  1  0.66822000  0.77905000  0.36951000  1.0 -0.080711394
C  C202  1  0.64715000  0.77469000  0.40181000  1.0 -0.1576026709
C  C203  1  0.65979000  0.75151000  0.43024000  1.0 0.090413109
C  C204  1  0.69351000  0.73269000  0.42639000  1.0 -0.1576026709
C  C205  1  0.71458000  0.73704000  0.39409000  1.0 -0.080711394
C  C206  1  0.63901000  0.74874000  0.46635000  1.0 0.0816944648
C  C207  1  0.60055000  0.74590000  0.46660000  1.0 -0.2064146788
C  C208  1  0.51966000  0.76410000  0.47170000  1.0 -0.1016279922
C  C209  1  0.51917000  0.72450000  0.52620000  1.0 -0.080711394
C  C210  1  0.72932000  0.78240000  0.17280000  1.0 0.1101744757
C  C211  1  0.73650000  0.80100000  0.13574000  1.0 0.0288582928
C  C212  1  0.71800000  0.83480000  0.13090000  1.0 -0.0574022771
C  C213  1  0.72100000  0.85392000  0.09730000  1.0 -0.0388511546
C  C214  1  0.74260000  0.83930000  0.06850000  1.0 -0.0196542004
C  C215  1  0.76100000  0.80550000  0.07334000  1.0 -0.080711394
C  C216  1  0.75800000  0.78640000  0.10700000  1.0 -0.080711394
C  C217  1  0.74640000  0.86210000  0.03360000  1.0 0.0208822331
C  C218  1  0.75020000  0.90030000  0.03300000  1.0 -0.2033963927
C  C219  1  0.77510000  0.98066000  0.02740000  1.0 -0.140161975
C  C220  1  0.73740000  0.98066000  0.97220000  1.0 -0.0388511546
C  C221  1  0.72556000  0.78124000  0.17210000  1.0 0.1198777469
C  C222  1  0.71784000  0.80284000  0.13702000  1.0 0.0288582928
C  C223  1  0.69680000  0.83542000  0.13592000  1.0 -0.080711394
C  C224  1  0.69190000  0.85424000  0.10234000  1.0 -0.0886648686
C  C225  1  0.70810000  0.84048000  0.06986000  1.0 -0.0146736593
C  C226  1  0.72910000  0.80791000  0.07095000  1.0 -0.0388511546
C  C227  1  0.73400000  0.78908000  0.10453000  1.0 -0.0388511546
C  C228  1  0.70440000  0.86100000  0.03383000  1.0 0.0208822331
C  C229  1  0.70320000  0.89980000  0.03340000  1.0 -0.1909214688
C  C230  1  0.71970000  0.98060000  0.02730000  1.0 -0.0280438547
C  C231  1  0.68080000  0.98067000  0.97310000  1.0 -0.140161975
C  C232  1  0.72380000  0.23500000  0.66878000  1.0 0.5981349408
C  C233  1  0.70193000  0.23978000  0.63434000  1.0 -0.0388511546
C  C234  1  0.66822000  0.22095000  0.63049000  1.0 -0.080711394
C  C235  1  0.64715000  0.22531000  0.59819000  1.0 -0.1576026709
C  C236  1  0.65979000  0.24849000  0.56976000  1.0 0.090413109
C  C237  1  0.69351000  0.26731000  0.57361000  1.0 -0.1576026709
C  C238  1  0.71458000  0.26296000  0.60591000  1.0 -0.080711394
C  C239  1  0.63901000  0.25126000  0.53365000  1.0 0.0816944648
C  C240  1  0.60055000  0.25410000  0.53340000  1.0 -0.2064146788
C  C241  1  0.51966000  0.23590000  0.52830000  1.0 -0.1016279922
C  C242  1  0.51917000  0.27550000  0.47380000  1.0 -0.080711394
C  C243  1  0.72932000  0.21760000  0.82720000  1.0 0.1101744757
C  C244  1  0.73650000  0.19900000  0.86426000  1.0 0.0288582928
C  C245  1  0.71800000  0.16520000  0.86910000  1.0 -0.0574022771
C  C246  1  0.72100000  0.14608000  0.90270000  1.0 -0.0388511546
C  C247  1  0.74260000  0.16070000  0.93150000  1.0 -0.0196542004
C  C248  1  0.76100000  0.19450000  0.92666000  1.0 -0.080711394
C  C249  1  0.75800000  0.21360000  0.89300000  1.0 -0.080711394
C  C250  1  0.74640000  0.13790000  0.96640000  1.0 0.0208822331
C  C251  1  0.75020000  0.09970000  0.96700000  1.0 -0.2033963927
C  C252  1  0.77510000  0.01934000  0.97260000  1.0 -0.140161975
C  C253  1  0.73740000  0.01934000  0.02780000  1.0 -0.0388511546
C  C254  1  0.72556000  0.21876000  0.82790000  1.0 0.1198777469
C  C255  1  0.71784000  0.19716000  0.86298000  1.0 0.0288582928
C  C256  1  0.69680000  0.16458000  0.86408000  1.0 -0.080711394
C  C257  1  0.69190000  0.14576000  0.89766000  1.0 -0.0886648686
C  C258  1  0.70810000  0.15952000  0.93014000  1.0 -0.0146736593
C  C259  1  0.72910000  0.19209000  0.92905000  1.0 -0.0388511546
C  C260  1  0.73400000  0.21092000  0.89547000  1.0 -0.0388511546
C  C261  1  0.70440000  0.13900000  0.96617000  1.0 0.0208822331
C  C262  1  0.70320000  0.10020000  0.96660000  1.0 -0.1909214688
C  C263  1  0.71970000  0.01940000  0.97270000  1.0 -0.0280438547
C  C264  1  0.68080000  0.01933000  0.02690000  1.0 -0.140161975
C  C265  1  0.33122000  0.27620000  0.23500000  1.0 0.5981349408
C  C266  1  0.36566000  0.29807000  0.23978000  1.0 -0.0388511546
C  C267  1  0.36951000  0.33178000  0.22095000  1.0 -0.080711394
C  C268  1  0.40181000  0.35285000  0.22531000  1.0 -0.1576026709
C  C269  1  0.43024000  0.34021000  0.24849000  1.0 0.090413109
C  C270  1  0.42639000  0.30649000  0.26731000  1.0 -0.1576026709
C  C271  1  0.39409000  0.28542000  0.26296000  1.0 -0.080711394
C  C272  1  0.46635000  0.36099000  0.25126000  1.0 0.0816944648
C  C273  1  0.46660000  0.39945000  0.25410000  1.0 -0.2064146788
C  C274  1  0.47170000  0.48034000  0.23590000  1.0 -0.1016279922
C  C275  1  0.52620000  0.48083000  0.27550000  1.0 -0.080711394
C  C276  1  0.17280000  0.27068000  0.21760000  1.0 0.1101744757
C  C277  1  0.13574000  0.26350000  0.19900000  1.0 0.0288582928
C  C278  1  0.13090000  0.28200000  0.16520000  1.0 -0.0574022771
C  C279  1  0.09730000  0.27900000  0.14608000  1.0 -0.0388511546
C  C280  1  0.06850000  0.25740000  0.16070000  1.0 -0.0196542004
C  C281  1  0.07334000  0.23900000  0.19450000  1.0 -0.080711394
C  C282  1  0.10700000  0.24200000  0.21360000  1.0 -0.080711394
C  C283  1  0.03360000  0.25360000  0.13790000  1.0 0.0208822331
C  C284  1  0.03300000  0.24980000  0.09970000  1.0 -0.2033963927
C  C285  1  0.02740000  0.22490000  0.01934000  1.0 -0.140161975
C  C286  1  0.97220000  0.26260000  0.01934000  1.0 -0.0388511546
C  C287  1  0.17210000  0.27444000  0.21876000  1.0 0.1198777469
C  C288  1  0.13702000  0.28216000  0.19716000  1.0 0.0288582928
C  C289  1  0.13592000  0.30320000  0.16458000  1.0 -0.080711394
C  C290  1  0.10234000  0.30810000  0.14576000  1.0 -0.0886648686
C  C291  1  0.06986000  0.29190000  0.15952000  1.0 -0.0196542004
C  C292  1  0.07095000  0.27090000  0.19209000  1.0 -0.0388511546
C  C293  1  0.10453000  0.26600000  0.21092000  1.0 -0.0388511546
C  C294  1  0.03383000  0.29560000  0.13900000  1.0 0.0208822331
C  C295  1  0.03340000  0.29680000  0.10020000  1.0 -0.1909214688
C  C296  1  0.02730000  0.28030000  0.01940000  1.0 -0.0280438547
C  C297  1  0.97310000  0.31920000  0.01933000  1.0 -0.140161975
C  C298  1  0.66878000  0.27620000  0.76500000  1.0 0.5981349408
C  C299  1  0.63434000  0.29807000  0.76022000  1.0 -0.0388511546
C  C300  1  0.63049000  0.33178000  0.77905000  1.0 -0.080711394
C  C301  1  0.59819000  0.35285000  0.77469000  1.0 -0.1576026709
C  C302  1  0.56976000  0.34021000  0.75151000  1.0 0.090413109
C  C303  1  0.57361000  0.30649000  0.73269000  1.0 -0.1576026709
C  C304  1  0.60591000  0.28542000  0.73704000  1.0 -0.080711394
C  C305  1  0.53365000  0.36099000  0.74874000  1.0 0.0816944648
C  C306  1  0.53340000  0.39945000  0.74590000  1.0 -0.2064146788
C  C307  1  0.52830000  0.48034000  0.76410000  1.0 -0.1016279922
C  C308  1  0.47380000  0.48083000  0.72450000  1.0 -0.080711394
C  C309  1  0.82720000  0.27068000  0.78240000  1.0 0.1101744757
C  C310  1  0.86426000  0.26350000  0.80100000  1.0 0.0288582928
C  C311  1  0.86910000  0.28200000  0.83480000  1.0 -0.0574022771
C  C312  1  0.90270000  0.27900000  0.85392000  1.0 -0.0388511546
C  C313  1  0.93150000  0.25740000  0.83930000  1.0 -0.0196542004
C  C314  1  0.92666000  0.23900000  0.80550000  1.0 -0.080711394
C  C315  1  0.89300000  0.24200000  0.78640000  1.0 -0.080711394
C  C316  1  0.96640000  0.25360000  0.86210000  1.0 0.0208822331
C  C317  1  0.96700000  0.24980000  0.90030000  1.0 -0.2033963927
C  C318  1  0.97260000  0.22490000  0.98066000  1.0 -0.140161975
C  C319  1  0.02780000  0.26260000  0.98066000  1.0 -0.0388511546
C  C320  1  0.82790000  0.27444000  0.78124000  1.0 0.1198777469
C  C321  1  0.86298000  0.28216000  0.80284000  1.0 0.0288582928
C  C322  1  0.86408000  0.30320000  0.83542000  1.0 -0.080711394
C  C323  1  0.89766000  0.30810000  0.85424000  1.0 -0.0886648686
C  C324  1  0.93014000  0.29190000  0.84048000  1.0 -0.0146736593
C  C325  1  0.92905000  0.27090000  0.80791000  1.0 -0.0388511546
C  C326  1  0.89547000  0.26600000  0.78908000  1.0 -0.0388511546
C  C327  1  0.96617000  0.29560000  0.86100000  1.0 0.0208822331
C  C328  1  0.96660000  0.29680000  0.89980000  1.0 -0.1909214688
C  C329  1  0.97270000  0.28030000  0.98060000  1.0 -0.0280438547
C  C330  1  0.02690000  0.31920000  0.98067000  1.0 -0.140161975
C  C331  1  0.33122000  0.72380000  0.76500000  1.0 0.5981349408
C  C332  1  0.36566000  0.70193000  0.76022000  1.0 -0.0388511546
C  C333  1  0.36951000  0.66822000  0.77905000  1.0 -0.080711394
C  C334  1  0.40181000  0.64715000  0.77469000  1.0 -0.1576026709
C  C335  1  0.43024000  0.65979000  0.75151000  1.0 0.090413109
C  C336  1  0.42639000  0.69351000  0.73269000  1.0 -0.1576026709
C  C337  1  0.39409000  0.71458000  0.73704000  1.0 -0.080711394
C  C338  1  0.46635000  0.63901000  0.74874000  1.0 0.0816944648
C  C339  1  0.46660000  0.60055000  0.74590000  1.0 -0.2064146788
C  C340  1  0.47170000  0.51966000  0.76410000  1.0 -0.1016279922
C  C341  1  0.52620000  0.51917000  0.72450000  1.0 -0.080711394
C  C342  1  0.17280000  0.72932000  0.78240000  1.0 0.1101744757
C  C343  1  0.13574000  0.73650000  0.80100000  1.0 0.0288582928
C  C344  1  0.13090000  0.71800000  0.83480000  1.0 -0.0574022771
C  C345  1  0.09730000  0.72100000  0.85392000  1.0 -0.0388511546
C  C346  1  0.06850000  0.74260000  0.83930000  1.0 -0.0196542004
C  C347  1  0.07334000  0.76100000  0.80550000  1.0 -0.080711394
C  C348  1  0.10700000  0.75800000  0.78640000  1.0 -0.080711394
C  C349  1  0.03360000  0.74640000  0.86210000  1.0 0.0208822331
C  C350  1  0.03300000  0.75020000  0.90030000  1.0 -0.2033963927
C  C351  1  0.02740000  0.77510000  0.98066000  1.0 -0.140161975
C  C352  1  0.97220000  0.73740000  0.98066000  1.0 -0.0388511546
C  C353  1  0.17210000  0.72556000  0.78124000  1.0 0.1198777469
C  C354  1  0.13702000  0.71784000  0.80284000  1.0 0.0288582928
C  C355  1  0.13592000  0.69680000  0.83542000  1.0 -0.080711394
C  C356  1  0.10234000  0.69190000  0.85424000  1.0 -0.0886648686
C  C357  1  0.06986000  0.70810000  0.84048000  1.0 -0.0196542004
C  C358  1  0.07095000  0.72910000  0.80791000  1.0 -0.0388511546
C  C359  1  0.10453000  0.73400000  0.78908000  1.0 -0.0388511546
C  C360  1  0.03383000  0.70440000  0.86100000  1.0 0.0208822331
C  C361  1  0.03340000  0.70320000  0.89980000  1.0 -0.1909214688
C  C362  1  0.02730000  0.71970000  0.98060000  1.0 -0.0280438547
C  C363  1  0.97310000  0.68080000  0.98067000  1.0 -0.140161975
C  C364  1  0.66878000  0.72380000  0.23500000  1.0 0.5981349408
C  C365  1  0.63434000  0.70193000  0.23978000  1.0 -0.0388511546
C  C366  1  0.63049000  0.66822000  0.22095000  1.0 -0.080711394
C  C367  1  0.59819000  0.64715000  0.22531000  1.0 -0.1576026709
C  C368  1  0.56976000  0.65979000  0.24849000  1.0 0.090413109
C  C369  1  0.57361000  0.69351000  0.26731000  1.0 -0.1576026709
C  C370  1  0.60591000  0.71458000  0.26296000  1.0 -0.080711394
C  C371  1  0.53365000  0.63901000  0.25126000  1.0 0.0816944648
C  C372  1  0.53340000  0.60055000  0.25410000  1.0 -0.2064146788
C  C373  1  0.52830000  0.51966000  0.23590000  1.0 -0.1016279922
C  C374  1  0.47380000  0.51917000  0.27550000  1.0 -0.080711394
C  C375  1  0.82720000  0.72932000  0.21760000  1.0 0.1101744757
C  C376  1  0.86426000  0.73650000  0.19900000  1.0 0.0288582928
C  C377  1  0.86910000  0.71800000  0.16520000  1.0 -0.0574022771
C  C378  1  0.90270000  0.72100000  0.14608000  1.0 -0.0388511546
C  C379  1  0.93150000  0.74260000  0.16070000  1.0 -0.0196542004
C  C380  1  0.92666000  0.76100000  0.19450000  1.0 -0.080711394
C  C381  1  0.89300000  0.75800000  0.21360000  1.0 -0.080711394
C  C382  1  0.96640000  0.74640000  0.13790000  1.0 0.0208822331
C  C383  1  0.96700000  0.75020000  0.09970000  1.0 -0.2033963927
C  C384  1  0.97260000  0.77510000  0.01934000  1.0 -0.140161975
C  C385  1  0.02780000  0.73740000  0.01934000  1.0 -0.0388511546
C  C386  1  0.82790000  0.72556000  0.21876000  1.0 0.1198777469
C  C387  1  0.86298000  0.71784000  0.19716000  1.0 0.0288582928
C  C388  1  0.86408000  0.69680000  0.16458000  1.0 -0.080711394
C  C389  1  0.89766000  0.69190000  0.14576000  1.0 -0.0886648686
C  C390  1  0.93014000  0.70810000  0.15952000  1.0 -0.0146736593
C  C391  1  0.92905000  0.72910000  0.19209000  1.0 -0.0388511546
C  C392  1  0.89547000  0.73400000  0.21092000  1.0 -0.0388511546
C  C393  1  0.96617000  0.70440000  0.13900000  1.0 0.0208822331
C  C394  1  0.96660000  0.70320000  0.10020000  1.0 -0.1909214688
C  C395  1  0.97270000  0.71970000  0.01940000  1.0 -0.0280438547
C  C396  1  0.02690000  0.68080000  0.01933000  1.0 -0.140161975
C  C397  1  0.76500000  0.66878000  0.72380000  1.0 0.5981349408
C  C398  1  0.76022000  0.63434000  0.70193000  1.0 -0.0388511546
C  C399  1  0.77905000  0.63049000  0.66822000  1.0 -0.080711394
C  C400  1  0.77469000  0.59819000  0.64715000  1.0 -0.1576026709
C  C401  1  0.75151000  0.56976000  0.65979000  1.0 0.090413109
C  C402  1  0.73269000  0.57361000  0.69351000  1.0 -0.1576026709
C  C403  1  0.73704000  0.60591000  0.71458000  1.0 -0.080711394
C  C404  1  0.74874000  0.53365000  0.63901000  1.0 0.0816944648
C  C405  1  0.74590000  0.53340000  0.60055000  1.0 -0.2064146788
C  C406  1  0.76410000  0.52830000  0.51966000  1.0 -0.1016279922
C  C407  1  0.72450000  0.47380000  0.51917000  1.0 -0.080711394
C  C408  1  0.78240000  0.82720000  0.72932000  1.0 0.1101744757
C  C409  1  0.80100000  0.86426000  0.73650000  1.0 0.0288582928
C  C410  1  0.83480000  0.86910000  0.71800000  1.0 -0.0574022771
C  C411  1  0.85392000  0.90270000  0.72100000  1.0 -0.0388511546
C  C412  1  0.83930000  0.93150000  0.74260000  1.0 -0.0196542004
C  C413  1  0.80550000  0.92666000  0.76100000  1.0 -0.080711394
C  C414  1  0.78640000  0.89300000  0.75800000  1.0 -0.080711394
C  C415  1  0.86210000  0.96640000  0.74640000  1.0 0.0208822331
C  C416  1  0.90030000  0.96700000  0.75020000  1.0 -0.2033963927
C  C417  1  0.98066000  0.97260000  0.77510000  1.0 -0.140161975
C  C418  1  0.98066000  0.02780000  0.73740000  1.0 -0.0388511546
C  C419  1  0.78124000  0.82790000  0.72556000  1.0 0.1198777469
C  C420  1  0.80284000  0.86298000  0.71784000  1.0 0.0288582928
C  C421  1  0.83542000  0.86408000  0.69680000  1.0 -0.080711394
C  C422  1  0.85424000  0.89766000  0.69190000  1.0 -0.0886648686
C  C423  1  0.84048000  0.93014000  0.70810000  1.0 -0.0146736593
C  C424  1  0.80791000  0.92905000  0.72910000  1.0 -0.0388511546
C  C425  1  0.78908000  0.89547000  0.73400000  1.0 -0.0388511546
C  C426  1  0.86100000  0.96617000  0.70440000  1.0 0.0208822331
C  C427  1  0.89980000  0.96660000  0.70320000  1.0 -0.1909214688
C  C428  1  0.98060000  0.97270000  0.71970000  1.0 -0.0280438547
C  C429  1  0.98067000  0.02690000  0.68080000  1.0 -0.140161975
C  C430  1  0.23500000  0.33122000  0.72380000  1.0 0.5981349408
C  C431  1  0.23978000  0.36566000  0.70193000  1.0 -0.0388511546
C  C432  1  0.22095000  0.36951000  0.66822000  1.0 -0.080711394
C  C433  1  0.22531000  0.40181000  0.64715000  1.0 -0.1576026709
C  C434  1  0.24849000  0.43024000  0.65979000  1.0 0.090413109
C  C435  1  0.26731000  0.42639000  0.69351000  1.0 -0.1576026709
C  C436  1  0.26296000  0.39409000  0.71458000  1.0 -0.080711394
C  C437  1  0.25126000  0.46635000  0.63901000  1.0 0.0816944648
C  C438  1  0.25410000  0.46660000  0.60055000  1.0 -0.2064146788
C  C439  1  0.23590000  0.47170000  0.51966000  1.0 -0.1016279922
C  C440  1  0.27550000  0.52620000  0.51917000  1.0 -0.080711394
C  C441  1  0.21760000  0.17280000  0.72932000  1.0 0.1101744757
C  C442  1  0.19900000  0.13574000  0.73650000  1.0 0.0288582928
C  C443  1  0.16520000  0.13090000  0.71800000  1.0 -0.0574022771
C  C444  1  0.14608000  0.09730000  0.72100000  1.0 -0.0388511546
C  C445  1  0.16070000  0.06850000  0.74260000  1.0 -0.0196542004
C  C446  1  0.19450000  0.07334000  0.76100000  1.0 -0.080711394
C  C447  1  0.21360000  0.10700000  0.75800000  1.0 -0.080711394
C  C448  1  0.13790000  0.03360000  0.74640000  1.0 0.0208822331
C  C449  1  0.09970000  0.03300000  0.75020000  1.0 -0.2033963927
C  C450  1  0.01934000  0.02740000  0.77510000  1.0 -0.140161975
C  C451  1  0.01934000  0.97220000  0.73740000  1.0 -0.0388511546
C  C452  1  0.21876000  0.17210000  0.72556000  1.0 0.1198777469
C  C453  1  0.19716000  0.13702000  0.71784000  1.0 0.0288582928
C  C454  1  0.16458000  0.13592000  0.69680000  1.0 -0.080711394
C  C455  1  0.14576000  0.10234000  0.69190000  1.0 -0.0886648686
C  C456  1  0.15952000  0.06986000  0.70810000  1.0 -0.0196542004
C  C457  1  0.19209000  0.07095000  0.72910000  1.0 -0.0388511546
C  C458  1  0.21092000  0.10453000  0.73400000  1.0 -0.0388511546
C  C459  1  0.13900000  0.03383000  0.70440000  1.0 0.0208822331
C  C460  1  0.10020000  0.03340000  0.70320000  1.0 -0.1909214688
C  C461  1  0.01940000  0.02730000  0.71970000  1.0 -0.0280438547
C  C462  1  0.01933000  0.97310000  0.68080000  1.0 -0.140161975
C  C463  1  0.23500000  0.66878000  0.27620000  1.0 0.5981349408
C  C464  1  0.23978000  0.63434000  0.29807000  1.0 -0.0388511546
C  C465  1  0.22095000  0.63049000  0.33178000  1.0 -0.080711394
C  C466  1  0.22531000  0.59819000  0.35285000  1.0 -0.1576026709
C  C467  1  0.24849000  0.56976000  0.34021000  1.0 0.090413109
C  C468  1  0.26731000  0.57361000  0.30649000  1.0 -0.1576026709
C  C469  1  0.26296000  0.60591000  0.28542000  1.0 -0.080711394
C  C470  1  0.25126000  0.53365000  0.36099000  1.0 0.0816944648
C  C471  1  0.25410000  0.53340000  0.39945000  1.0 -0.2064146788
C  C472  1  0.23590000  0.52830000  0.48034000  1.0 -0.1016279922
C  C473  1  0.27550000  0.47380000  0.48083000  1.0 -0.080711394
C  C474  1  0.21760000  0.82720000  0.27068000  1.0 0.1101744757
C  C475  1  0.19900000  0.86426000  0.26350000  1.0 0.0288582928
C  C476  1  0.16520000  0.86910000  0.28200000  1.0 -0.0574022771
C  C477  1  0.14608000  0.90270000  0.27900000  1.0 -0.0388511546
C  C478  1  0.16070000  0.93150000  0.25740000  1.0 -0.0196542004
C  C479  1  0.19450000  0.92666000  0.23900000  1.0 -0.080711394
C  C480  1  0.21360000  0.89300000  0.24200000  1.0 -0.080711394
C  C481  1  0.13790000  0.96640000  0.25360000  1.0 0.0208822331
C  C482  1  0.09970000  0.96700000  0.24980000  1.0 -0.2033963927
C  C483  1  0.01934000  0.97260000  0.22490000  1.0 -0.140161975
C  C484  1  0.01934000  0.02780000  0.26260000  1.0 -0.0388511546
C  C485  1  0.21876000  0.82790000  0.27444000  1.0 0.1198777469
C  C486  1  0.19716000  0.86298000  0.28216000  1.0 0.0288582928
C  C487  1  0.16458000  0.86408000  0.30320000  1.0 -0.080711394
C  C488  1  0.14576000  0.89766000  0.30810000  1.0 -0.0886648686
C  C489  1  0.15952000  0.93014000  0.29190000  1.0 -0.0146736593
C  C490  1  0.19209000  0.92905000  0.27090000  1.0 -0.0388511546
C  C491  1  0.21092000  0.89547000  0.26600000  1.0 -0.0388511546
C  C492  1  0.13900000  0.96617000  0.29560000  1.0 0.0208822331
C  C493  1  0.10020000  0.96660000  0.29680000  1.0 -0.1909214688
C  C494  1  0.01940000  0.97270000  0.28030000  1.0 -0.0280438547
C  C495  1  0.01933000  0.02690000  0.31920000  1.0 -0.140161975
C  C496  1  0.76500000  0.33122000  0.27620000  1.0 0.5981349408
C  C497  1  0.76022000  0.36566000  0.29807000  1.0 -0.0388511546
C  C498  1  0.77905000  0.36951000  0.33178000  1.0 -0.080711394
C  C499  1  0.77469000  0.40181000  0.35285000  1.0 -0.1576026709
C  C500  1  0.75151000  0.43024000  0.34021000  1.0 0.090413109
C  C501  1  0.73269000  0.42639000  0.30649000  1.0 -0.1576026709
C  C502  1  0.73704000  0.39409000  0.28542000  1.0 -0.080711394
C  C503  1  0.74874000  0.46635000  0.36099000  1.0 0.0816944648
C  C504  1  0.74590000  0.46660000  0.39945000  1.0 -0.2064146788
C  C505  1  0.76410000  0.47170000  0.48034000  1.0 -0.1016279922
C  C506  1  0.72450000  0.52620000  0.48083000  1.0 -0.080711394
C  C507  1  0.78240000  0.17280000  0.27068000  1.0 0.1101744757
C  C508  1  0.80100000  0.13574000  0.26350000  1.0 0.0288582928
C  C509  1  0.83480000  0.13090000  0.28200000  1.0 -0.0574022771
C  C510  1  0.85392000  0.09730000  0.27900000  1.0 -0.0388511546
C  C511  1  0.83930000  0.06850000  0.25740000  1.0 -0.0196542004
C  C512  1  0.80550000  0.07334000  0.23900000  1.0 -0.080711394
C  C513  1  0.78640000  0.10700000  0.24200000  1.0 -0.080711394
C  C514  1  0.86210000  0.03360000  0.25360000  1.0 0.0208822331
C  C515  1  0.90030000  0.03300000  0.24980000  1.0 -0.2033963927
C  C516  1  0.98066000  0.02740000  0.22490000  1.0 -0.140161975
C  C517  1  0.98066000  0.97220000  0.26260000  1.0 -0.0388511546
C  C518  1  0.78124000  0.17210000  0.27444000  1.0 0.1198777469
C  C519  1  0.80284000  0.13702000  0.28216000  1.0 0.0288582928
C  C520  1  0.83542000  0.13592000  0.30320000  1.0 -0.080711394
C  C521  1  0.85424000  0.10234000  0.30810000  1.0 -0.0886648686
C  C522  1  0.84048000  0.06986000  0.29190000  1.0 -0.0146736593
C  C523  1  0.80791000  0.07095000  0.27090000  1.0 -0.0388511546
C  C524  1  0.78908000  0.10453000  0.26600000  1.0 -0.0388511546
C  C525  1  0.86100000  0.03383000  0.29560000  1.0 0.0208822331
C  C526  1  0.89980000  0.03340000  0.29680000  1.0 -0.1909214688
C  C527  1  0.98060000  0.02730000  0.28030000  1.0 -0.0280438547
C  C528  1  0.98067000  0.97310000  0.31920000  1.0 -0.140161975
C  C529  1  0.72380000  0.76500000  0.66878000  1.0 0.5981349408
C  C530  1  0.70193000  0.76022000  0.63434000  1.0 -0.0388511546
C  C531  1  0.66822000  0.77905000  0.63049000  1.0 -0.080711394
C  C532  1  0.64715000  0.77469000  0.59819000  1.0 -0.1576026709
C  C533  1  0.65979000  0.75151000  0.56976000  1.0 0.090413109
C  C534  1  0.69351000  0.73269000  0.57361000  1.0 -0.1576026709
C  C535  1  0.71458000  0.73704000  0.60591000  1.0 -0.080711394
C  C536  1  0.63901000  0.74874000  0.53365000  1.0 0.0816944648
C  C537  1  0.60055000  0.74590000  0.53340000  1.0 -0.2064146788
C  C538  1  0.51966000  0.76410000  0.52830000  1.0 -0.1016279922
C  C539  1  0.51917000  0.72450000  0.47380000  1.0 -0.080711394
C  C540  1  0.72932000  0.78240000  0.82720000  1.0 0.1101744757
C  C541  1  0.73650000  0.80100000  0.86426000  1.0 0.0288582928
C  C542  1  0.71800000  0.83480000  0.86910000  1.0 -0.0574022771
C  C543  1  0.72100000  0.85392000  0.90270000  1.0 -0.0388511546
C  C544  1  0.74260000  0.83930000  0.93150000  1.0 -0.0196542004
C  C545  1  0.76100000  0.80550000  0.92666000  1.0 -0.080711394
C  C546  1  0.75800000  0.78640000  0.89300000  1.0 -0.080711394
C  C547  1  0.74640000  0.86210000  0.96640000  1.0 0.0208822331
C  C548  1  0.75020000  0.90030000  0.96700000  1.0 -0.2033963927
C  C549  1  0.77510000  0.98066000  0.97260000  1.0 -0.140161975
C  C550  1  0.73740000  0.98066000  0.02780000  1.0 -0.0388511546
C  C551  1  0.72556000  0.78124000  0.82790000  1.0 0.1198777469
C  C552  1  0.71784000  0.80284000  0.86298000  1.0 0.0288582928
C  C553  1  0.69680000  0.83542000  0.86408000  1.0 -0.080711394
C  C554  1  0.69190000  0.85424000  0.89766000  1.0 -0.0886648686
C  C555  1  0.70810000  0.84048000  0.93014000  1.0 -0.0146736593
C  C556  1  0.72910000  0.80791000  0.92905000  1.0 -0.0388511546
C  C557  1  0.73400000  0.78908000  0.89547000  1.0 -0.0388511546
C  C558  1  0.70440000  0.86100000  0.96617000  1.0 0.0208822331
C  C559  1  0.70320000  0.89980000  0.96660000  1.0 -0.1909214688
C  C560  1  0.71970000  0.98060000  0.97270000  1.0 -0.0280438547
C  C561  1  0.68080000  0.98067000  0.02690000  1.0 -0.140161975
C  C562  1  0.72380000  0.23500000  0.33122000  1.0 0.5981349408
C  C563  1  0.70193000  0.23978000  0.36566000  1.0 -0.0388511546
C  C564  1  0.66822000  0.22095000  0.36951000  1.0 -0.080711394
C  C565  1  0.64715000  0.22531000  0.40181000  1.0 -0.1576026709
C  C566  1  0.65979000  0.24849000  0.43024000  1.0 0.090413109
C  C567  1  0.69351000  0.26731000  0.42639000  1.0 -0.1576026709
C  C568  1  0.71458000  0.26296000  0.39409000  1.0 -0.080711394
C  C569  1  0.63901000  0.25126000  0.46635000  1.0 0.0816944648
C  C570  1  0.60055000  0.25410000  0.46660000  1.0 -0.2064146788
C  C571  1  0.51966000  0.23590000  0.47170000  1.0 -0.1016279922
C  C572  1  0.51917000  0.27550000  0.52620000  1.0 -0.080711394
C  C573  1  0.72932000  0.21760000  0.17280000  1.0 0.1101744757
C  C574  1  0.73650000  0.19900000  0.13574000  1.0 0.0288582928
C  C575  1  0.71800000  0.16520000  0.13090000  1.0 -0.0574022771
C  C576  1  0.72100000  0.14608000  0.09730000  1.0 -0.0388511546
C  C577  1  0.74260000  0.16070000  0.06850000  1.0 -0.0196542004
C  C578  1  0.76100000  0.19450000  0.07334000  1.0 -0.080711394
C  C579  1  0.75800000  0.21360000  0.10700000  1.0 -0.080711394
C  C580  1  0.74640000  0.13790000  0.03360000  1.0 0.0208822331
C  C581  1  0.75020000  0.09970000  0.03300000  1.0 -0.2033963927
C  C582  1  0.77510000  0.01934000  0.02740000  1.0 -0.140161975
C  C583  1  0.73740000  0.01934000  0.97220000  1.0 -0.0388511546
C  C584  1  0.72556000  0.21876000  0.17210000  1.0 0.1198777469
C  C585  1  0.71784000  0.19716000  0.13702000  1.0 0.0288582928
C  C586  1  0.69680000  0.16458000  0.13592000  1.0 -0.080711394
C  C587  1  0.69190000  0.14576000  0.10234000  1.0 -0.0886648686
C  C588  1  0.70810000  0.15952000  0.06986000  1.0 -0.0146736593
C  C589  1  0.72910000  0.19209000  0.07095000  1.0 -0.0388511546
C  C590  1  0.73400000  0.21092000  0.10453000  1.0 -0.0388511546
C  C591  1  0.70440000  0.13900000  0.03383000  1.0 0.0208822331
C  C592  1  0.70320000  0.10020000  0.03340000  1.0 -0.1909214688
C  C593  1  0.71970000  0.01940000  0.02730000  1.0 -0.0280438547
C  C594  1  0.68080000  0.01933000  0.97310000  1.0 -0.140161975
C  C595  1  0.27620000  0.23500000  0.66878000  1.0 0.5981349408
C  C596  1  0.29807000  0.23978000  0.63434000  1.0 -0.0388511546
C  C597  1  0.33178000  0.22095000  0.63049000  1.0 -0.080711394
C  C598  1  0.35285000  0.22531000  0.59819000  1.0 -0.1576026709
C  C599  1  0.34021000  0.24849000  0.56976000  1.0 0.090413109
C  C600  1  0.30649000  0.26731000  0.57361000  1.0 -0.1576026709
C  C601  1  0.28542000  0.26296000  0.60591000  1.0 -0.080711394
C  C602  1  0.36099000  0.25126000  0.53365000  1.0 0.0816944648
C  C603  1  0.39945000  0.25410000  0.53340000  1.0 -0.2064146788
C  C604  1  0.48034000  0.23590000  0.52830000  1.0 -0.1016279922
C  C605  1  0.48083000  0.27550000  0.47380000  1.0 -0.080711394
C  C606  1  0.27068000  0.21760000  0.82720000  1.0 0.1101744757
C  C607  1  0.26350000  0.19900000  0.86426000  1.0 0.0288582928
C  C608  1  0.28200000  0.16520000  0.86910000  1.0 -0.0574022771
C  C609  1  0.27900000  0.14608000  0.90270000  1.0 -0.0388511546
C  C610  1  0.25740000  0.16070000  0.93150000  1.0 -0.0196542004
C  C611  1  0.23900000  0.19450000  0.92666000  1.0 -0.080711394
C  C612  1  0.24200000  0.21360000  0.89300000  1.0 -0.080711394
C  C613  1  0.25360000  0.13790000  0.96640000  1.0 0.0208822331
C  C614  1  0.24980000  0.09970000  0.96700000  1.0 -0.2033963927
C  C615  1  0.22490000  0.01934000  0.97260000  1.0 -0.140161975
C  C616  1  0.26260000  0.01934000  0.02780000  1.0 -0.0388511546
C  C617  1  0.27444000  0.21876000  0.82790000  1.0 0.1198777469
C  C618  1  0.28216000  0.19716000  0.86298000  1.0 0.0288582928
C  C619  1  0.30320000  0.16458000  0.86408000  1.0 -0.080711394
C  C620  1  0.30810000  0.14576000  0.89766000  1.0 -0.0886648686
C  C621  1  0.29190000  0.15952000  0.93014000  1.0 -0.0196542004
C  C622  1  0.27090000  0.19209000  0.92905000  1.0 -0.0388511546
C  C623  1  0.26600000  0.21092000  0.89547000  1.0 -0.0388511546
C  C624  1  0.29560000  0.13900000  0.96617000  1.0 0.0208822331
C  C625  1  0.29680000  0.10020000  0.96660000  1.0 -0.1909214688
C  C626  1  0.28030000  0.01940000  0.97270000  1.0 -0.0280438547
C  C627  1  0.31920000  0.01933000  0.02690000  1.0 -0.140161975
C  C628  1  0.27620000  0.76500000  0.33122000  1.0 0.5981349408
C  C629  1  0.29807000  0.76022000  0.36566000  1.0 -0.0388511546
C  C630  1  0.33178000  0.77905000  0.36951000  1.0 -0.080711394
C  C631  1  0.35285000  0.77469000  0.40181000  1.0 -0.1576026709
C  C632  1  0.34021000  0.75151000  0.43024000  1.0 0.090413109
C  C633  1  0.30649000  0.73269000  0.42639000  1.0 -0.1576026709
C  C634  1  0.28542000  0.73704000  0.39409000  1.0 -0.080711394
C  C635  1  0.36099000  0.74874000  0.46635000  1.0 0.0816944648
C  C636  1  0.39945000  0.74590000  0.46660000  1.0 -0.2064146788
C  C637  1  0.48034000  0.76410000  0.47170000  1.0 -0.1016279922
C  C638  1  0.48083000  0.72450000  0.52620000  1.0 -0.080711394
C  C639  1  0.27068000  0.78240000  0.17280000  1.0 0.1101744757
C  C640  1  0.26350000  0.80100000  0.13574000  1.0 0.0288582928
C  C641  1  0.28200000  0.83480000  0.13090000  1.0 -0.0574022771
C  C642  1  0.27900000  0.85392000  0.09730000  1.0 -0.0388511546
C  C643  1  0.25740000  0.83930000  0.06850000  1.0 -0.0196542004
C  C644  1  0.23900000  0.80550000  0.07334000  1.0 -0.080711394
C  C645  1  0.24200000  0.78640000  0.10700000  1.0 -0.080711394
C  C646  1  0.25360000  0.86210000  0.03360000  1.0 0.0208822331
C  C647  1  0.24980000  0.90030000  0.03300000  1.0 -0.2033963927
C  C648  1  0.22490000  0.98066000  0.02740000  1.0 -0.140161975
C  C649  1  0.26260000  0.98066000  0.97220000  1.0 -0.0388511546
C  C650  1  0.27444000  0.78124000  0.17210000  1.0 0.1198777469
C  C651  1  0.28216000  0.80284000  0.13702000  1.0 0.0288582928
C  C652  1  0.30320000  0.83542000  0.13592000  1.0 -0.080711394
C  C653  1  0.30810000  0.85424000  0.10234000  1.0 -0.0886648686
C  C654  1  0.29190000  0.84048000  0.06986000  1.0 -0.0146736593
C  C655  1  0.27090000  0.80791000  0.07095000  1.0 -0.0388511546
C  C656  1  0.26600000  0.78908000  0.10453000  1.0 -0.0388511546
C  C657  1  0.29560000  0.86100000  0.03383000  1.0 0.0208822331
C  C658  1  0.29680000  0.89980000  0.03340000  1.0 -0.1909214688
C  C659  1  0.28030000  0.98060000  0.02730000  1.0 -0.0280438547
C  C660  1  0.31920000  0.98067000  0.97310000  1.0 -0.140161975
C  C661  1  0.66878000  0.72380000  0.76500000  1.0 0.5981349408
C  C662  1  0.63434000  0.70193000  0.76022000  1.0 -0.0388511546
C  C663  1  0.63049000  0.66822000  0.77905000  1.0 -0.080711394
C  C664  1  0.59819000  0.64715000  0.77469000  1.0 -0.1576026709
C  C665  1  0.56976000  0.65979000  0.75151000  1.0 0.090413109
C  C666  1  0.57361000  0.69351000  0.73269000  1.0 -0.1576026709
C  C667  1  0.60591000  0.71458000  0.73704000  1.0 -0.080711394
C  C668  1  0.53365000  0.63901000  0.74874000  1.0 0.0816944648
C  C669  1  0.53340000  0.60055000  0.74590000  1.0 -0.2064146788
C  C670  1  0.52830000  0.51966000  0.76410000  1.0 -0.1016279922
C  C671  1  0.47380000  0.51917000  0.72450000  1.0 -0.080711394
C  C672  1  0.82720000  0.72932000  0.78240000  1.0 0.1101744757
C  C673  1  0.86426000  0.73650000  0.80100000  1.0 0.0288582928
C  C674  1  0.86910000  0.71800000  0.83480000  1.0 -0.0574022771
C  C675  1  0.90270000  0.72100000  0.85392000  1.0 -0.0388511546
C  C676  1  0.93150000  0.74260000  0.83930000  1.0 -0.0196542004
C  C677  1  0.92666000  0.76100000  0.80550000  1.0 -0.080711394
C  C678  1  0.89300000  0.75800000  0.78640000  1.0 -0.080711394
C  C679  1  0.96640000  0.74640000  0.86210000  1.0 0.0208822331
C  C680  1  0.96700000  0.75020000  0.90030000  1.0 -0.2033963927
C  C681  1  0.97260000  0.77510000  0.98066000  1.0 -0.140161975
C  C682  1  0.02780000  0.73740000  0.98066000  1.0 -0.0388511546
C  C683  1  0.82790000  0.72556000  0.78124000  1.0 0.1198777469
C  C684  1  0.86298000  0.71784000  0.80284000  1.0 0.0288582928
C  C685  1  0.86408000  0.69680000  0.83542000  1.0 -0.080711394
C  C686  1  0.89766000  0.69190000  0.85424000  1.0 -0.0886648686
C  C687  1  0.93014000  0.70810000  0.84048000  1.0 -0.0146736593
C  C688  1  0.92905000  0.72910000  0.80791000  1.0 -0.0388511546
C  C689  1  0.89547000  0.73400000  0.78908000  1.0 -0.0388511546
C  C690  1  0.96617000  0.70440000  0.86100000  1.0 0.0208822331
C  C691  1  0.96660000  0.70320000  0.89980000  1.0 -0.1909214688
C  C692  1  0.97270000  0.71970000  0.98060000  1.0 -0.0280438547
C  C693  1  0.02690000  0.68080000  0.98067000  1.0 -0.140161975
C  C694  1  0.33122000  0.72380000  0.23500000  1.0 0.5981349408
C  C695  1  0.36566000  0.70193000  0.23978000  1.0 -0.0388511546
C  C696  1  0.36951000  0.66822000  0.22095000  1.0 -0.080711394
C  C697  1  0.40181000  0.64715000  0.22531000  1.0 -0.1576026709
C  C698  1  0.43024000  0.65979000  0.24849000  1.0 0.090413109
C  C699  1  0.42639000  0.69351000  0.26731000  1.0 -0.1576026709
C  C700  1  0.39409000  0.71458000  0.26296000  1.0 -0.080711394
C  C701  1  0.46635000  0.63901000  0.25126000  1.0 0.0816944648
C  C702  1  0.46660000  0.60055000  0.25410000  1.0 -0.2064146788
C  C703  1  0.47170000  0.51966000  0.23590000  1.0 -0.1016279922
C  C704  1  0.52620000  0.51917000  0.27550000  1.0 -0.080711394
C  C705  1  0.17280000  0.72932000  0.21760000  1.0 0.1101744757
C  C706  1  0.13574000  0.73650000  0.19900000  1.0 0.0288582928
C  C707  1  0.13090000  0.71800000  0.16520000  1.0 -0.0574022771
C  C708  1  0.09730000  0.72100000  0.14608000  1.0 -0.0388511546
C  C709  1  0.06850000  0.74260000  0.16070000  1.0 -0.0196542004
C  C710  1  0.07334000  0.76100000  0.19450000  1.0 -0.080711394
C  C711  1  0.10700000  0.75800000  0.21360000  1.0 -0.080711394
C  C712  1  0.03360000  0.74640000  0.13790000  1.0 0.0208822331
C  C713  1  0.03300000  0.75020000  0.09970000  1.0 -0.2033963927
C  C714  1  0.02740000  0.77510000  0.01934000  1.0 -0.140161975
C  C715  1  0.97220000  0.73740000  0.01934000  1.0 -0.0388511546
C  C716  1  0.17210000  0.72556000  0.21876000  1.0 0.1198777469
C  C717  1  0.13702000  0.71784000  0.19716000  1.0 0.0288582928
C  C718  1  0.13592000  0.69680000  0.16458000  1.0 -0.080711394
C  C719  1  0.10234000  0.69190000  0.14576000  1.0 -0.0886648686
C  C720  1  0.06986000  0.70810000  0.15952000  1.0 -0.0196542004
C  C721  1  0.07095000  0.72910000  0.19209000  1.0 -0.0388511546
C  C722  1  0.10453000  0.73400000  0.21092000  1.0 -0.0388511546
C  C723  1  0.03383000  0.70440000  0.13900000  1.0 0.0208822331
C  C724  1  0.03340000  0.70320000  0.10020000  1.0 -0.1909214688
C  C725  1  0.02730000  0.71970000  0.01940000  1.0 -0.0280438547
C  C726  1  0.97310000  0.68080000  0.01933000  1.0 -0.140161975
C  C727  1  0.66878000  0.27620000  0.23500000  1.0 0.5981349408
C  C728  1  0.63434000  0.29807000  0.23978000  1.0 -0.0388511546
C  C729  1  0.63049000  0.33178000  0.22095000  1.0 -0.080711394
C  C730  1  0.59819000  0.35285000  0.22531000  1.0 -0.1576026709
C  C731  1  0.56976000  0.34021000  0.24849000  1.0 0.090413109
C  C732  1  0.57361000  0.30649000  0.26731000  1.0 -0.1576026709
C  C733  1  0.60591000  0.28542000  0.26296000  1.0 -0.080711394
C  C734  1  0.53365000  0.36099000  0.25126000  1.0 0.0816944648
C  C735  1  0.53340000  0.39945000  0.25410000  1.0 -0.2064146788
C  C736  1  0.52830000  0.48034000  0.23590000  1.0 -0.1016279922
C  C737  1  0.47380000  0.48083000  0.27550000  1.0 -0.080711394
C  C738  1  0.82720000  0.27068000  0.21760000  1.0 0.1101744757
C  C739  1  0.86426000  0.26350000  0.19900000  1.0 0.0288582928
C  C740  1  0.86910000  0.28200000  0.16520000  1.0 -0.0574022771
C  C741  1  0.90270000  0.27900000  0.14608000  1.0 -0.0388511546
C  C742  1  0.93150000  0.25740000  0.16070000  1.0 -0.0196542004
C  C743  1  0.92666000  0.23900000  0.19450000  1.0 -0.080711394
C  C744  1  0.89300000  0.24200000  0.21360000  1.0 -0.080711394
C  C745  1  0.96640000  0.25360000  0.13790000  1.0 0.0208822331
C  C746  1  0.96700000  0.24980000  0.09970000  1.0 -0.2033963927
C  C747  1  0.97260000  0.22490000  0.01934000  1.0 -0.140161975
C  C748  1  0.02780000  0.26260000  0.01934000  1.0 -0.0388511546
C  C749  1  0.82790000  0.27444000  0.21876000  1.0 0.1198777469
C  C750  1  0.86298000  0.28216000  0.19716000  1.0 0.0288582928
C  C751  1  0.86408000  0.30320000  0.16458000  1.0 -0.080711394
C  C752  1  0.89766000  0.30810000  0.14576000  1.0 -0.0886648686
C  C753  1  0.93014000  0.29190000  0.15952000  1.0 -0.0146736593
C  C754  1  0.92905000  0.27090000  0.19209000  1.0 -0.0388511546
C  C755  1  0.89547000  0.26600000  0.21092000  1.0 -0.0388511546
C  C756  1  0.96617000  0.29560000  0.13900000  1.0 0.0208822331
C  C757  1  0.96660000  0.29680000  0.10020000  1.0 -0.1909214688
C  C758  1  0.97270000  0.28030000  0.01940000  1.0 -0.0280438547
C  C759  1  0.02690000  0.31920000  0.01933000  1.0 -0.140161975
C  C760  1  0.33122000  0.27620000  0.76500000  1.0 0.5981349408
C  C761  1  0.36566000  0.29807000  0.76022000  1.0 -0.0388511546
C  C762  1  0.36951000  0.33178000  0.77905000  1.0 -0.080711394
C  C763  1  0.40181000  0.35285000  0.77469000  1.0 -0.1576026709
C  C764  1  0.43024000  0.34021000  0.75151000  1.0 0.090413109
C  C765  1  0.42639000  0.30649000  0.73269000  1.0 -0.1576026709
C  C766  1  0.39409000  0.28542000  0.73704000  1.0 -0.080711394
C  C767  1  0.46635000  0.36099000  0.74874000  1.0 0.0816944648
C  C768  1  0.46660000  0.39945000  0.74590000  1.0 -0.2064146788
C  C769  1  0.47170000  0.48034000  0.76410000  1.0 -0.1016279922
C  C770  1  0.52620000  0.48083000  0.72450000  1.0 -0.080711394
C  C771  1  0.17280000  0.27068000  0.78240000  1.0 0.1101744757
C  C772  1  0.13574000  0.26350000  0.80100000  1.0 0.0288582928
C  C773  1  0.13090000  0.28200000  0.83480000  1.0 -0.0574022771
C  C774  1  0.09730000  0.27900000  0.85392000  1.0 -0.0388511546
C  C775  1  0.06850000  0.25740000  0.83930000  1.0 -0.0196542004
C  C776  1  0.07334000  0.23900000  0.80550000  1.0 -0.080711394
C  C777  1  0.10700000  0.24200000  0.78640000  1.0 -0.080711394
C  C778  1  0.03360000  0.25360000  0.86210000  1.0 0.0208822331
C  C779  1  0.03300000  0.24980000  0.90030000  1.0 -0.2033963927
C  C780  1  0.02740000  0.22490000  0.98066000  1.0 -0.140161975
C  C781  1  0.97220000  0.26260000  0.98066000  1.0 -0.0388511546
C  C782  1  0.17210000  0.27444000  0.78124000  1.0 0.1198777469
C  C783  1  0.13702000  0.28216000  0.80284000  1.0 0.0288582928
C  C784  1  0.13592000  0.30320000  0.83542000  1.0 -0.080711394
C  C785  1  0.10234000  0.30810000  0.85424000  1.0 -0.0886648686
C  C786  1  0.06986000  0.29190000  0.84048000  1.0 -0.0196542004
C  C787  1  0.07095000  0.27090000  0.80791000  1.0 -0.0388511546
C  C788  1  0.10453000  0.26600000  0.78908000  1.0 -0.0388511546
C  C789  1  0.03383000  0.29560000  0.86100000  1.0 0.0208822331
C  C790  1  0.03340000  0.29680000  0.89980000  1.0 -0.1909214688
C  C791  1  0.02730000  0.28030000  0.98060000  1.0 -0.0280438547
C  C792  1  0.97310000  0.31920000  0.98067000  1.0 -0.140161975
C  C793  1  0.25000000  0.50000000  0.34170000  1.0 -0.1909214688
C  C794  1  0.25490000  0.50000000  0.41970000  1.0 0.072932808
C  C795  1  0.25640000  0.50000000  0.46120000  1.0 0.0575869328
C  C796  1  0.75000000  0.50000000  0.34170000  1.0 -0.1909214688
C  C797  1  0.74510000  0.50000000  0.41970000  1.0 0.072932808
C  C798  1  0.74360000  0.50000000  0.46120000  1.0 0.0575869328
C  C799  1  0.75000000  0.50000000  0.65830000  1.0 -0.1909214688
C  C800  1  0.74510000  0.50000000  0.58030000  1.0 0.072932808
C  C801  1  0.74360000  0.50000000  0.53880000  1.0 0.0575869328
C  C802  1  0.25000000  0.50000000  0.65830000  1.0 -0.1909214688
C  C803  1  0.25490000  0.50000000  0.58030000  1.0 0.072932808
C  C804  1  0.25640000  0.50000000  0.53880000  1.0 0.0575869328
C  C805  1  0.34170000  0.25000000  0.50000000  1.0 -0.1909214688
C  C806  1  0.41970000  0.25490000  0.50000000  1.0 0.072932808
C  C807  1  0.46120000  0.25640000  0.50000000  1.0 0.0575869328
C  C808  1  0.34170000  0.75000000  0.50000000  1.0 -0.1909214688
C  C809  1  0.41970000  0.74510000  0.50000000  1.0 0.072932808
C  C810  1  0.46120000  0.74360000  0.50000000  1.0 0.0575869328
C  C811  1  0.65830000  0.75000000  0.50000000  1.0 -0.1909214688
C  C812  1  0.58030000  0.74510000  0.50000000  1.0 0.072932808
C  C813  1  0.53880000  0.74360000  0.50000000  1.0 0.0575869328
C  C814  1  0.65830000  0.25000000  0.50000000  1.0 -0.1909214688
C  C815  1  0.58030000  0.25490000  0.50000000  1.0 0.072932808
C  C816  1  0.53880000  0.25640000  0.50000000  1.0 0.0575869328
C  C817  1  0.50000000  0.34170000  0.25000000  1.0 -0.1909214688
C  C818  1  0.50000000  0.41970000  0.25490000  1.0 0.072932808
C  C819  1  0.50000000  0.46120000  0.25640000  1.0 0.0575869328
C  C820  1  0.50000000  0.34170000  0.75000000  1.0 -0.1909214688
C  C821  1  0.50000000  0.41970000  0.74510000  1.0 0.072932808
C  C822  1  0.50000000  0.46120000  0.74360000  1.0 0.0575869328
C  C823  1  0.50000000  0.65830000  0.75000000  1.0 -0.1909214688
C  C824  1  0.50000000  0.58030000  0.74510000  1.0 0.072932808
C  C825  1  0.50000000  0.53880000  0.74360000  1.0 0.0575869328
C  C826  1  0.50000000  0.65830000  0.25000000  1.0 -0.1909214688
C  C827  1  0.50000000  0.58030000  0.25490000  1.0 0.072932808
C  C828  1  0.50000000  0.53880000  0.25640000  1.0 0.0575869328
C  C829  1  0.15730000  0.00000000  0.25550000  1.0 -0.1271844001
C  C830  1  0.08020000  0.00000000  0.24810000  1.0 -0.0388511546
C  C831  1  0.03870000  0.00000000  0.24370000  1.0 0.0288582928
C  C832  1  0.15830000  0.00000000  0.29500000  1.0 -0.1576026709
C  C833  1  0.08050000  0.00000000  0.29730000  1.0 -0.0388511546
C  C834  1  0.03890000  0.00000000  0.29990000  1.0 0.0208822331
C  C835  1  0.84270000  0.00000000  0.25550000  1.0 -0.1271844001
C  C836  1  0.91980000  0.00000000  0.24810000  1.0 -0.0388511546
C  C837  1  0.96130000  0.00000000  0.24370000  1.0 0.0288582928
C  C838  1  0.84170000  0.00000000  0.29500000  1.0 -0.1576026709
C  C839  1  0.91950000  0.00000000  0.29730000  1.0 -0.0388511546
C  C840  1  0.96110000  0.00000000  0.29990000  1.0 0.0208822331
C  C841  1  0.84270000  0.00000000  0.74450000  1.0 -0.1271844001
C  C842  1  0.91980000  0.00000000  0.75190000  1.0 -0.0388511546
C  C843  1  0.96130000  0.00000000  0.75630000  1.0 0.0288582928
C  C844  1  0.84170000  0.00000000  0.70500000  1.0 -0.1576026709
C  C845  1  0.91950000  0.00000000  0.70270000  1.0 -0.0388511546
C  C846  1  0.96110000  0.00000000  0.70010000  1.0 0.0288582928
C  C847  1  0.15730000  0.00000000  0.74450000  1.0 -0.1271844001
C  C848  1  0.08020000  0.00000000  0.75190000  1.0 -0.0388511546
C  C849  1  0.03870000  0.00000000  0.75630000  1.0 0.0288582928
C  C850  1  0.15830000  0.00000000  0.70500000  1.0 -0.1576026709
C  C851  1  0.08050000  0.00000000  0.70270000  1.0 -0.0388511546
C  C852  1  0.03890000  0.00000000  0.70010000  1.0 0.0208822331
C  C853  1  0.25550000  0.15730000  0.00000000  1.0 -0.1271844001
C  C854  1  0.24810000  0.08020000  0.00000000  1.0 -0.0388511546
C  C855  1  0.24370000  0.03870000  0.00000000  1.0 0.0288582928
C  C856  1  0.29500000  0.15830000  0.00000000  1.0 -0.1576026709
C  C857  1  0.29730000  0.08050000  0.00000000  1.0 -0.0388511546
C  C858  1  0.29990000  0.03890000  0.00000000  1.0 0.0208822331
C  C859  1  0.25550000  0.84270000  0.00000000  1.0 -0.1271844001
C  C860  1  0.24810000  0.91980000  0.00000000  1.0 -0.0388511546
C  C861  1  0.24370000  0.96130000  0.00000000  1.0 0.0288582928
C  C862  1  0.29500000  0.84170000  0.00000000  1.0 -0.1576026709
C  C863  1  0.29730000  0.91950000  0.00000000  1.0 -0.0388511546
C  C864  1  0.29990000  0.96110000  0.00000000  1.0 0.0208822331
C  C865  1  0.74450000  0.84270000  0.00000000  1.0 -0.1271844001
C  C866  1  0.75190000  0.91980000  0.00000000  1.0 -0.0388511546
C  C867  1  0.75630000  0.96130000  0.00000000  1.0 0.0288582928
C  C868  1  0.70500000  0.84170000  0.00000000  1.0 -0.1576026709
C  C869  1  0.70270000  0.91950000  0.00000000  1.0 -0.0388511546
C  C870  1  0.70010000  0.96110000  0.00000000  1.0 0.0208822331
C  C871  1  0.74450000  0.15730000  0.00000000  1.0 -0.1271844001
C  C872  1  0.75190000  0.08020000  0.00000000  1.0 -0.0388511546
C  C873  1  0.75630000  0.03870000  0.00000000  1.0 0.0288582928
C  C874  1  0.70500000  0.15830000  0.00000000  1.0 -0.1576026709
C  C875  1  0.70270000  0.08050000  0.00000000  1.0 -0.0388511546
C  C876  1  0.70010000  0.03890000  0.00000000  1.0 0.0208822331
C  C877  1  0.00000000  0.25550000  0.15730000  1.0 -0.1271844001
C  C878  1  0.00000000  0.24810000  0.08020000  1.0 -0.0388511546
C  C879  1  0.00000000  0.24370000  0.03870000  1.0 0.0288582928
C  C880  1  0.00000000  0.29500000  0.15830000  1.0 -0.1576026709
C  C881  1  0.00000000  0.29730000  0.08050000  1.0 -0.0388511546
C  C882  1  0.00000000  0.29990000  0.03890000  1.0 0.0208822331
C  C883  1  0.00000000  0.25550000  0.84270000  1.0 -0.1271844001
C  C884  1  0.00000000  0.24810000  0.91980000  1.0 -0.0388511546
C  C885  1  0.00000000  0.24370000  0.96130000  1.0 0.0288582928
C  C886  1  0.00000000  0.29500000  0.84170000  1.0 -0.1576026709
C  C887  1  0.00000000  0.29730000  0.91950000  1.0 -0.0388511546
C  C888  1  0.00000000  0.29990000  0.96110000  1.0 0.0208822331
C  C889  1  0.00000000  0.74450000  0.84270000  1.0 -0.1271844001
C  C890  1  0.00000000  0.75190000  0.91980000  1.0 -0.0388511546
C  C891  1  0.00000000  0.75630000  0.96130000  1.0 0.0288582928
C  C892  1  0.00000000  0.70500000  0.84170000  1.0 -0.1576026709
C  C893  1  0.00000000  0.70270000  0.91950000  1.0 -0.0388511546
C  C894  1  0.00000000  0.70010000  0.96110000  1.0 0.0208822331
C  C895  1  0.00000000  0.74450000  0.15730000  1.0 -0.1271844001
C  C896  1  0.00000000  0.75190000  0.08020000  1.0 -0.0388511546
C  C897  1  0.00000000  0.75630000  0.03870000  1.0 0.0288582928
C  C898  1  0.00000000  0.70500000  0.15830000  1.0 -0.1576026709
C  C899  1  0.00000000  0.70270000  0.08050000  1.0 -0.0388511546
C  C900  1  0.00000000  0.70010000  0.03890000  1.0 0.0208822331
O  O1  1  0.21136000  0.30789000  0.28785000  1.0 -0.4912684799
O  O2  1  0.25385000  0.32767000  0.24764000  1.0 -0.4738783318
O  O3  1  0.20521000  0.19886000  0.29039000  1.0 -0.3475446643
O  O4  1  0.24711000  0.17236000  0.25334000  1.0 -0.3720758524
O  O5  1  0.17081000  0.25571000  0.32421000  1.0 -0.5608348788
O  O6  1  0.78864000  0.69211000  0.28785000  1.0 -0.4912684799
O  O7  1  0.74615000  0.67233000  0.24764000  1.0 -0.4738783318
O  O8  1  0.79479000  0.80114000  0.29039000  1.0 -0.3475446643
O  O9  1  0.75289000  0.82764000  0.25334000  1.0 -0.3720758524
O  O10  1  0.82919000  0.74429000  0.32421000  1.0 -0.5608348788
O  O11  1  0.78864000  0.30789000  0.71215000  1.0 -0.4912684799
O  O12  1  0.74615000  0.32767000  0.75236000  1.0 -0.4738783318
O  O13  1  0.79479000  0.19886000  0.70961000  1.0 -0.3475446643
O  O14  1  0.75289000  0.17236000  0.74666000  1.0 -0.3720758524
O  O15  1  0.82919000  0.25571000  0.67579000  1.0 -0.5608348788
O  O16  1  0.21136000  0.69211000  0.71215000  1.0 -0.4912684799
O  O17  1  0.25385000  0.67233000  0.75236000  1.0 -0.4738783318
O  O18  1  0.20521000  0.80114000  0.70961000  1.0 -0.3475446643
O  O19  1  0.24711000  0.82764000  0.74666000  1.0 -0.3720758524
O  O20  1  0.17081000  0.74429000  0.67579000  1.0 -0.5608348788
O  O21  1  0.28785000  0.21136000  0.30789000  1.0 -0.4912684799
O  O22  1  0.24764000  0.25385000  0.32767000  1.0 -0.4738783318
O  O23  1  0.29039000  0.20521000  0.19886000  1.0 -0.3475446643
O  O24  1  0.25334000  0.24711000  0.17236000  1.0 -0.3720758524
O  O25  1  0.32421000  0.17081000  0.25571000  1.0 -0.5608348788
O  O26  1  0.28785000  0.78864000  0.69211000  1.0 -0.4912684799
O  O27  1  0.24764000  0.74615000  0.67233000  1.0 -0.4738783318
O  O28  1  0.29039000  0.79479000  0.80114000  1.0 -0.3475446643
O  O29  1  0.25334000  0.75289000  0.82764000  1.0 -0.3720758524
O  O30  1  0.32421000  0.82919000  0.74429000  1.0 -0.5608348788
O  O31  1  0.71215000  0.78864000  0.30789000  1.0 -0.4912684799
O  O32  1  0.75236000  0.74615000  0.32767000  1.0 -0.4738783318
O  O33  1  0.70961000  0.79479000  0.19886000  1.0 -0.3475446643
O  O34  1  0.74666000  0.75289000  0.17236000  1.0 -0.3720758524
O  O35  1  0.67579000  0.82919000  0.25571000  1.0 -0.5608348788
O  O36  1  0.71215000  0.21136000  0.69211000  1.0 -0.4912684799
O  O37  1  0.75236000  0.25385000  0.67233000  1.0 -0.4738783318
O  O38  1  0.70961000  0.20521000  0.80114000  1.0 -0.3475446643
O  O39  1  0.74666000  0.24711000  0.82764000  1.0 -0.3720758524
O  O40  1  0.67579000  0.17081000  0.74429000  1.0 -0.5608348788
O  O41  1  0.30789000  0.28785000  0.21136000  1.0 -0.4912684799
O  O42  1  0.32767000  0.24764000  0.25385000  1.0 -0.4738783318
O  O43  1  0.19886000  0.29039000  0.20521000  1.0 -0.3475446643
O  O44  1  0.17236000  0.25334000  0.24711000  1.0 -0.3720758524
O  O45  1  0.25571000  0.32421000  0.17081000  1.0 -0.5608348788
O  O46  1  0.69211000  0.28785000  0.78864000  1.0 -0.4912684799
O  O47  1  0.67233000  0.24764000  0.74615000  1.0 -0.4738783318
O  O48  1  0.80114000  0.29039000  0.79479000  1.0 -0.3475446643
O  O49  1  0.82764000  0.25334000  0.75289000  1.0 -0.3720758524
O  O50  1  0.74429000  0.32421000  0.82919000  1.0 -0.5608348788
O  O51  1  0.30789000  0.71215000  0.78864000  1.0 -0.4912684799
O  O52  1  0.32767000  0.75236000  0.74615000  1.0 -0.4738783318
O  O53  1  0.19886000  0.70961000  0.79479000  1.0 -0.3475446643
O  O54  1  0.17236000  0.74666000  0.75289000  1.0 -0.3720758524
O  O55  1  0.25571000  0.67579000  0.82919000  1.0 -0.5608348788
O  O56  1  0.69211000  0.71215000  0.21136000  1.0 -0.4912684799
O  O57  1  0.67233000  0.75236000  0.25385000  1.0 -0.4738783318
O  O58  1  0.80114000  0.70961000  0.20521000  1.0 -0.3475446643
O  O59  1  0.82764000  0.74666000  0.24711000  1.0 -0.3720758524
O  O60  1  0.74429000  0.67579000  0.17081000  1.0 -0.5608348788
O  O61  1  0.78864000  0.69211000  0.71215000  1.0 -0.4912684799
O  O62  1  0.74615000  0.67233000  0.75236000  1.0 -0.4738783318
O  O63  1  0.79479000  0.80114000  0.70961000  1.0 -0.3475446643
O  O64  1  0.75289000  0.82764000  0.74666000  1.0 -0.3720758524
O  O65  1  0.82919000  0.74429000  0.67579000  1.0 -0.5608348788
O  O66  1  0.21136000  0.30789000  0.71215000  1.0 -0.4912684799
O  O67  1  0.25385000  0.32767000  0.75236000  1.0 -0.4738783318
O  O68  1  0.20521000  0.19886000  0.70961000  1.0 -0.3475446643
O  O69  1  0.24711000  0.17236000  0.74666000  1.0 -0.3720758524
O  O70  1  0.17081000  0.25571000  0.67579000  1.0 -0.5608348788
O  O71  1  0.21136000  0.69211000  0.28785000  1.0 -0.4912684799
O  O72  1  0.25385000  0.67233000  0.24764000  1.0 -0.4738783318
O  O73  1  0.20521000  0.80114000  0.29039000  1.0 -0.3475446643
O  O74  1  0.24711000  0.82764000  0.25334000  1.0 -0.3720758524
O  O75  1  0.17081000  0.74429000  0.32421000  1.0 -0.5608348788
O  O76  1  0.78864000  0.30789000  0.28785000  1.0 -0.4912684799
O  O77  1  0.74615000  0.32767000  0.24764000  1.0 -0.4738783318
O  O78  1  0.79479000  0.19886000  0.29039000  1.0 -0.3475446643
O  O79  1  0.75289000  0.17236000  0.25334000  1.0 -0.3720758524
O  O80  1  0.82919000  0.25571000  0.32421000  1.0 -0.5608348788
O  O81  1  0.71215000  0.78864000  0.69211000  1.0 -0.4912684799
O  O82  1  0.75236000  0.74615000  0.67233000  1.0 -0.4738783318
O  O83  1  0.70961000  0.79479000  0.80114000  1.0 -0.3475446643
O  O84  1  0.74666000  0.75289000  0.82764000  1.0 -0.3720758524
O  O85  1  0.67579000  0.82919000  0.74429000  1.0 -0.5608348788
O  O86  1  0.71215000  0.21136000  0.30789000  1.0 -0.4912684799
O  O87  1  0.75236000  0.25385000  0.32767000  1.0 -0.4738783318
O  O88  1  0.70961000  0.20521000  0.19886000  1.0 -0.3475446643
O  O89  1  0.74666000  0.24711000  0.17236000  1.0 -0.3720758524
O  O90  1  0.67579000  0.17081000  0.25571000  1.0 -0.5608348788
O  O91  1  0.28785000  0.21136000  0.69211000  1.0 -0.4912684799
O  O92  1  0.24764000  0.25385000  0.67233000  1.0 -0.4738783318
O  O93  1  0.29039000  0.20521000  0.80114000  1.0 -0.3475446643
O  O94  1  0.25334000  0.24711000  0.82764000  1.0 -0.3720758524
O  O95  1  0.32421000  0.17081000  0.74429000  1.0 -0.5608348788
O  O96  1  0.28785000  0.78864000  0.30789000  1.0 -0.4912684799
O  O97  1  0.24764000  0.74615000  0.32767000  1.0 -0.4738783318
O  O98  1  0.29039000  0.79479000  0.19886000  1.0 -0.3475446643
O  O99  1  0.25334000  0.75289000  0.17236000  1.0 -0.3720758524
O  O100  1  0.32421000  0.82919000  0.25571000  1.0 -0.5608348788
O  O101  1  0.69211000  0.71215000  0.78864000  1.0 -0.4912684799
O  O102  1  0.67233000  0.75236000  0.74615000  1.0 -0.4738783318
O  O103  1  0.80114000  0.70961000  0.79479000  1.0 -0.3475446643
O  O104  1  0.82764000  0.74666000  0.75289000  1.0 -0.3720758524
O  O105  1  0.74429000  0.67579000  0.82919000  1.0 -0.5608348788
O  O106  1  0.30789000  0.71215000  0.21136000  1.0 -0.4912684799
O  O107  1  0.32767000  0.75236000  0.25385000  1.0 -0.4738783318
O  O108  1  0.19886000  0.70961000  0.20521000  1.0 -0.3475446643
O  O109  1  0.17236000  0.74666000  0.24711000  1.0 -0.3720758524
O  O110  1  0.25571000  0.67579000  0.17081000  1.0 -0.5608348788
O  O111  1  0.69211000  0.28785000  0.21136000  1.0 -0.4912684799
O  O112  1  0.67233000  0.24764000  0.25385000  1.0 -0.4738783318
O  O113  1  0.80114000  0.29039000  0.20521000  1.0 -0.3475446643
O  O114  1  0.82764000  0.25334000  0.24711000  1.0 -0.3720758524
O  O115  1  0.74429000  0.32421000  0.17081000  1.0 -0.5608348788
O  O116  1  0.30789000  0.28785000  0.78864000  1.0 -0.4912684799
O  O117  1  0.32767000  0.24764000  0.74615000  1.0 -0.4738783318
O  O118  1  0.19886000  0.29039000  0.79479000  1.0 -0.3475446643
O  O119  1  0.17236000  0.25334000  0.75289000  1.0 -0.3720758524
O  O120  1  0.25571000  0.32421000  0.82919000  1.0 -0.5608348788
O  O121  1  0.25014000  0.25014000  0.25014000  1.0 -0.9842088164
O  O122  1  0.74986000  0.74986000  0.25014000  1.0 -0.9842088164
O  O123  1  0.74986000  0.25014000  0.74986000  1.0 -0.9842088164
O  O124  1  0.25014000  0.74986000  0.74986000  1.0 -0.9842088164
O  O125  1  0.74986000  0.74986000  0.74986000  1.0 -0.9842088164
O  O126  1  0.25014000  0.25014000  0.74986000  1.0 -0.9842088164
O  O127  1  0.25014000  0.74986000  0.25014000  1.0 -0.9842088164
O  O128  1  0.74986000  0.25014000  0.25014000  1.0 -0.9842088164
