# DDEC6 charges by PACMAN v1.1 (https://github.com/mtap-research/PACMAN-charge/)
data_QEPZUH_ASR_pacman
_symmetry_space_group_name_H-M   'P 1'
_cell_length_a   23.87130000
_cell_length_b   23.87130000
_cell_length_c   32.56500000
_cell_angle_alpha   90.00000000
_cell_angle_beta   90.00000000
_cell_angle_gamma   120.00000000
_symmetry_Int_Tables_number   1
_chemical_formula_structural   CuH36(C19N2)2
_chemical_formula_sum   'Cu9 H324 C342 N36'
_cell_volume   16070.66528142
_cell_formula_units_Z   9
loop_
 _symmetry_equiv_pos_site_id
 _symmetry_equiv_pos_as_xyz
  1  'x, y, z'
loop_
 _atom_site_type_symbol
 _atom_site_label
 _atom_site_symmetry_multiplicity
 _atom_site_fract_x
 _atom_site_fract_y
 _atom_site_fract_z
 _atom_site_occupancy
 _atom_site_charge
Cu  Cu1  1  0.39998000  0.00000000  0.33333333  1.0 0.2892900768
Cu  Cu2  1  0.00000000  0.39998000  0.66666667  1.0 0.2892900768
Cu  Cu3  1  0.60002000  0.60002000  0.00000000  1.0 0.2841959758
Cu  Cu4  1  0.22111000  0.33949000  0.31719000  1.0 0.2892900768
Cu  Cu5  1  0.66051000  0.88162000  0.65052000  1.0 0.2968627277
Cu  Cu6  1  0.11838000  0.77889000  0.98386000  1.0 0.2968627277
Cu  Cu7  1  0.33949000  0.22111000  0.68281000  1.0 0.2841959758
Cu  Cu8  1  0.77889000  0.11838000  0.01614000  1.0 0.2841959758
Cu  Cu9  1  0.88162000  0.66051000  0.34948000  1.0 0.2968627277
H  H1  1  0.41170000  0.81490000  0.38870000  1.0 0.1301913441
H  H2  1  0.18510000  0.59680000  0.72203000  1.0 0.1301913441
H  H3  1  0.40320000  0.58830000  0.05537000  1.0 0.1301913441
H  H4  1  0.81490000  0.41170000  0.61130000  1.0 0.1301913441
H  H5  1  0.58830000  0.40320000  0.94463000  1.0 0.1301913441
H  H6  1  0.59680000  0.18510000  0.27797000  1.0 0.1301913441
H  H7  1  0.40890000  0.88200000  0.33660000  1.0 0.1030434646
H  H8  1  0.11800000  0.52690000  0.66993000  1.0 0.1030434646
H  H9  1  0.47310000  0.59110000  0.00327000  1.0 0.1030434646
H  H10  1  0.88200000  0.40890000  0.66340000  1.0 0.1030434646
H  H11  1  0.59110000  0.47310000  0.99673000  1.0 0.1030434646
H  H12  1  0.52690000  0.11800000  0.33007000  1.0 0.1030434646
H  H13  1  0.32750000  0.95230000  0.41680000  1.0 0.1030434646
H  H14  1  0.04770000  0.37520000  0.75013000  1.0 0.1030434646
H  H15  1  0.62480000  0.67250000  0.08347000  1.0 0.1030434646
H  H16  1  0.95230000  0.32750000  0.58320000  1.0 0.1030434646
H  H17  1  0.67250000  0.62480000  0.91653000  1.0 0.1030434646
H  H18  1  0.37520000  0.04770000  0.24987000  1.0 0.1030434646
H  H19  1  0.33030000  0.88520000  0.46890000  1.0 0.1301913441
H  H20  1  0.11480000  0.44510000  0.80223000  1.0 0.1301913441
H  H21  1  0.55490000  0.66970000  0.13557000  1.0 0.1301913441
H  H22  1  0.88520000  0.33030000  0.53110000  1.0 0.1301913441
H  H23  1  0.66970000  0.55490000  0.86443000  1.0 0.1301913441
H  H24  1  0.44510000  0.11480000  0.19777000  1.0 0.1301913441
H  H25  1  0.51610000  0.91360000  0.50630000  1.0 0.1301913441
H  H26  1  0.08640000  0.60250000  0.83963000  1.0 0.1301913441
H  H27  1  0.39750000  0.48390000  0.17297000  1.0 0.1301913441
H  H28  1  0.91360000  0.51610000  0.49370000  1.0 0.1301913441
H  H29  1  0.48390000  0.39750000  0.82703000  1.0 0.1301913441
H  H30  1  0.60250000  0.08640000  0.16037000  1.0 0.1301913441
H  H31  1  0.46210000  0.92840000  0.49200000  1.0 0.1301913441
H  H32  1  0.07160000  0.53370000  0.82533000  1.0 0.1301913441
H  H33  1  0.46630000  0.53790000  0.15867000  1.0 0.1301913441
H  H34  1  0.92840000  0.46210000  0.50800000  1.0 0.1301913441
H  H35  1  0.53790000  0.46630000  0.84133000  1.0 0.1301913441
H  H36  1  0.53370000  0.07160000  0.17467000  1.0 0.1301913441
H  H37  1  0.49770000  0.90850000  0.45970000  1.0 0.1301913441
H  H38  1  0.09150000  0.58920000  0.79303000  1.0 0.1301913441
H  H39  1  0.41080000  0.50230000  0.12637000  1.0 0.1301913441
H  H40  1  0.90850000  0.49770000  0.54030000  1.0 0.1301913441
H  H41  1  0.50230000  0.41080000  0.87363000  1.0 0.1301913441
H  H42  1  0.58920000  0.09150000  0.20697000  1.0 0.1301913441
H  H43  1  0.43820000  0.70260000  0.57040000  1.0 0.1207071727
H  H44  1  0.29740000  0.73560000  0.90373000  1.0 0.1207071727
H  H45  1  0.26440000  0.56180000  0.23707000  1.0 0.1207071727
H  H46  1  0.70260000  0.43820000  0.42960000  1.0 0.1207071727
H  H47  1  0.56180000  0.26440000  0.76293000  1.0 0.1207071727
H  H48  1  0.73560000  0.29740000  0.09627000  1.0 0.1207071727
H  H49  1  0.39890000  0.64200000  0.54220000  1.0 0.1301913441
H  H50  1  0.35800000  0.75690000  0.87553000  1.0 0.1301913441
H  H51  1  0.24310000  0.60110000  0.20887000  1.0 0.1301913441
H  H52  1  0.64200000  0.39890000  0.45780000  1.0 0.1301913441
H  H53  1  0.60110000  0.24310000  0.79113000  1.0 0.1301913441
H  H54  1  0.75690000  0.35800000  0.12447000  1.0 0.1301913441
H  H55  1  0.36280000  0.66160000  0.57440000  1.0 0.1301913441
H  H56  1  0.33840000  0.70120000  0.90773000  1.0 0.1301913441
H  H57  1  0.29880000  0.63720000  0.24107000  1.0 0.1301913441
H  H58  1  0.66160000  0.36280000  0.42560000  1.0 0.1301913441
H  H59  1  0.63720000  0.29880000  0.75893000  1.0 0.1301913441
H  H60  1  0.70120000  0.33840000  0.09227000  1.0 0.1301913441
H  H61  1  0.26850000  0.73630000  0.42590000  1.0 0.1207071727
H  H62  1  0.26370000  0.53220000  0.75923000  1.0 0.1207071727
H  H63  1  0.46780000  0.73150000  0.09257000  1.0 0.1207071727
H  H64  1  0.73630000  0.26850000  0.57410000  1.0 0.1207071727
H  H65  1  0.73150000  0.46780000  0.90743000  1.0 0.1207071727
H  H66  1  0.53220000  0.26370000  0.24077000  1.0 0.1207071727
H  H67  1  0.23180000  0.68410000  0.46000000  1.0 0.1301913441
H  H68  1  0.31590000  0.54770000  0.79333000  1.0 0.1301913441
H  H69  1  0.45230000  0.76820000  0.12667000  1.0 0.1301913441
H  H70  1  0.68410000  0.23180000  0.54000000  1.0 0.1301913441
H  H71  1  0.76820000  0.45230000  0.87333000  1.0 0.1301913441
H  H72  1  0.54770000  0.31590000  0.20667000  1.0 0.1301913441
H  H73  1  0.27180000  0.67230000  0.42640000  1.0 0.1207071727
H  H74  1  0.32770000  0.59950000  0.75973000  1.0 0.1207071727
H  H75  1  0.40050000  0.72820000  0.09307000  1.0 0.1207071727
H  H76  1  0.67230000  0.27180000  0.57360000  1.0 0.1207071727
H  H77  1  0.72820000  0.40050000  0.90693000  1.0 0.1207071727
H  H78  1  0.59950000  0.32770000  0.24027000  1.0 0.1207071727
H  H79  1  0.35210000  0.58500000  0.41500000  1.0 0.1207071727
H  H80  1  0.41500000  0.76710000  0.74833000  1.0 0.1207071727
H  H81  1  0.23290000  0.64790000  0.08167000  1.0 0.1207071727
H  H82  1  0.58500000  0.35210000  0.58500000  1.0 0.1207071727
H  H83  1  0.64790000  0.23290000  0.91833000  1.0 0.1207071727
H  H84  1  0.76710000  0.41500000  0.25167000  1.0 0.1207071727
H  H85  1  0.39630000  0.63130000  0.44980000  1.0 0.1301913441
H  H86  1  0.36870000  0.76500000  0.78313000  1.0 0.1301913441
H  H87  1  0.23500000  0.60370000  0.11647000  1.0 0.1301913441
H  H88  1  0.63130000  0.39630000  0.55020000  1.0 0.1301913441
H  H89  1  0.60370000  0.23500000  0.88353000  1.0 0.1301913441
H  H90  1  0.76500000  0.36870000  0.21687000  1.0 0.1301913441
H  H91  1  0.35920000  0.65350000  0.42030000  1.0 0.1207071727
H  H92  1  0.34650000  0.70570000  0.75363000  1.0 0.1207071727
H  H93  1  0.29430000  0.64080000  0.08697000  1.0 0.1207071727
H  H94  1  0.65350000  0.35920000  0.57970000  1.0 0.1207071727
H  H95  1  0.64080000  0.29430000  0.91303000  1.0 0.1207071727
H  H96  1  0.70570000  0.34650000  0.24637000  1.0 0.1207071727
H  H97  1  0.17120000  0.39580000  0.46960000  1.0 0.1301913441
H  H98  1  0.60420000  0.77540000  0.80293000  1.0 0.1301913441
H  H99  1  0.22460000  0.82880000  0.13627000  1.0 0.1301913441
H  H100  1  0.39580000  0.17120000  0.53040000  1.0 0.1301913441
H  H101  1  0.82880000  0.22460000  0.86373000  1.0 0.1301913441
H  H102  1  0.77540000  0.60420000  0.19707000  1.0 0.1301913441
H  H103  1  0.11830000  0.40710000  0.49030000  1.0 0.1301913441
H  H104  1  0.59290000  0.71120000  0.82363000  1.0 0.1301913441
H  H105  1  0.28880000  0.88170000  0.15697000  1.0 0.1301913441
H  H106  1  0.40710000  0.11830000  0.50970000  1.0 0.1301913441
H  H107  1  0.88170000  0.28880000  0.84303000  1.0 0.1301913441
H  H108  1  0.71120000  0.59290000  0.17637000  1.0 0.1301913441
H  H109  1  0.16560000  0.39540000  0.51760000  1.0 0.1301913441
H  H110  1  0.60460000  0.77020000  0.85093000  1.0 0.1301913441
H  H111  1  0.22980000  0.83440000  0.18427000  1.0 0.1301913441
H  H112  1  0.39540000  0.16560000  0.48240000  1.0 0.1301913441
H  H113  1  0.83440000  0.22980000  0.81573000  1.0 0.1301913441
H  H114  1  0.77020000  0.60460000  0.14907000  1.0 0.1301913441
H  H115  1  0.27040000  0.67770000  0.55570000  1.0 0.1301913441
H  H116  1  0.32230000  0.59270000  0.88903000  1.0 0.1301913441
H  H117  1  0.40730000  0.72960000  0.22237000  1.0 0.1301913441
H  H118  1  0.67770000  0.27040000  0.44430000  1.0 0.1301913441
H  H119  1  0.72960000  0.40730000  0.77763000  1.0 0.1301913441
H  H120  1  0.59270000  0.32230000  0.11097000  1.0 0.1301913441
H  H121  1  0.24330000  0.61900000  0.58610000  1.0 0.1207071727
H  H122  1  0.38100000  0.62430000  0.91943000  1.0 0.1207071727
H  H123  1  0.37570000  0.75670000  0.25277000  1.0 0.1207071727
H  H124  1  0.61900000  0.24330000  0.41390000  1.0 0.1207071727
H  H125  1  0.75670000  0.37570000  0.74723000  1.0 0.1207071727
H  H126  1  0.62430000  0.38100000  0.08057000  1.0 0.1207071727
H  H127  1  0.19590000  0.62840000  0.55740000  1.0 0.1207071727
H  H128  1  0.37160000  0.56750000  0.89073000  1.0 0.1207071727
H  H129  1  0.43250000  0.80410000  0.22407000  1.0 0.1207071727
H  H130  1  0.62840000  0.19590000  0.44260000  1.0 0.1207071727
H  H131  1  0.80410000  0.43250000  0.77593000  1.0 0.1207071727
H  H132  1  0.56750000  0.37160000  0.10927000  1.0 0.1207071727
H  H133  1  0.30150000  0.43620000  0.45400000  1.0 0.1589197675
H  H134  1  0.56380000  0.86530000  0.78733000  1.0 0.1589197675
H  H135  1  0.13470000  0.69850000  0.12067000  1.0 0.1589197675
H  H136  1  0.43620000  0.30150000  0.54600000  1.0 0.1589197675
H  H137  1  0.69850000  0.13470000  0.87933000  1.0 0.1589197675
H  H138  1  0.86530000  0.56380000  0.21267000  1.0 0.1589197675
H  H139  1  0.29200000  0.37330000  0.39760000  1.0 0.1207071727
H  H140  1  0.62670000  0.91870000  0.73093000  1.0 0.1207071727
H  H141  1  0.08130000  0.70800000  0.06427000  1.0 0.1207071727
H  H142  1  0.37330000  0.29200000  0.60240000  1.0 0.1207071727
H  H143  1  0.70800000  0.08130000  0.93573000  1.0 0.1207071727
H  H144  1  0.91870000  0.62670000  0.26907000  1.0 0.1207071727
H  H145  1  0.21640000  0.46190000  0.33270000  1.0 0.1085961279
H  H146  1  0.53810000  0.75450000  0.66603000  1.0 0.1085961279
H  H147  1  0.24550000  0.78360000  0.99937000  1.0 0.1085961279
H  H148  1  0.46190000  0.21640000  0.66730000  1.0 0.1085961279
H  H149  1  0.78360000  0.24550000  0.00063000  1.0 0.1085961279
H  H150  1  0.75450000  0.53810000  0.33397000  1.0 0.1085961279
H  H151  1  0.22600000  0.52490000  0.38910000  1.0 0.1301913441
H  H152  1  0.47510000  0.70110000  0.72243000  1.0 0.1301913441
H  H153  1  0.29890000  0.77400000  0.05577000  1.0 0.1301913441
H  H154  1  0.52490000  0.22600000  0.61090000  1.0 0.1301913441
H  H155  1  0.77400000  0.29890000  0.94423000  1.0 0.1301913441
H  H156  1  0.70110000  0.47510000  0.27757000  1.0 0.1301913441
H  H157  1  0.19260000  0.44300000  0.57880000  1.0 0.1301913441
H  H158  1  0.55700000  0.74960000  0.91213000  1.0 0.1301913441
H  H159  1  0.25040000  0.80740000  0.24547000  1.0 0.1301913441
H  H160  1  0.44300000  0.19260000  0.42120000  1.0 0.1301913441
H  H161  1  0.80740000  0.25040000  0.75453000  1.0 0.1301913441
H  H162  1  0.74960000  0.55700000  0.08787000  1.0 0.1301913441
H  H163  1  0.12000000  0.39770000  0.63220000  1.0 0.1085961279
H  H164  1  0.60230000  0.72230000  0.96553000  1.0 0.1030434646
H  H165  1  0.27770000  0.88000000  0.29887000  1.0 0.1030434646
H  H166  1  0.39770000  0.12000000  0.36780000  1.0 0.1085961279
H  H167  1  0.88000000  0.27770000  0.70113000  1.0 0.1030434646
H  H168  1  0.72230000  0.60230000  0.03447000  1.0 0.1030434646
H  H169  1  0.02780000  0.48930000  0.59420000  1.0 0.1085961279
H  H170  1  0.51070000  0.53850000  0.92753000  1.0 0.1085961279
H  H171  1  0.46150000  0.97220000  0.26087000  1.0 0.1085961279
H  H172  1  0.48930000  0.02780000  0.40580000  1.0 0.1085961279
H  H173  1  0.97220000  0.46150000  0.73913000  1.0 0.1085961279
H  H174  1  0.53850000  0.51070000  0.07247000  1.0 0.1085961279
H  H175  1  0.10050000  0.53470000  0.54080000  1.0 0.1301913441
H  H176  1  0.46530000  0.56580000  0.87413000  1.0 0.1301913441
H  H177  1  0.43420000  0.89950000  0.20747000  1.0 0.1301913441
H  H178  1  0.53470000  0.10050000  0.45920000  1.0 0.1301913441
H  H179  1  0.89950000  0.43420000  0.79253000  1.0 0.1301913441
H  H180  1  0.56580000  0.46530000  0.12587000  1.0 0.1301913441
H  H181  1  0.55310000  0.90490000  0.62840000  1.0 0.1085961279
H  H182  1  0.09510000  0.64820000  0.96173000  1.0 0.1085961279
H  H183  1  0.35180000  0.44690000  0.29507000  1.0 0.1085961279
H  H184  1  0.90490000  0.55310000  0.37160000  1.0 0.1085961279
H  H185  1  0.44690000  0.35180000  0.70493000  1.0 0.1085961279
H  H186  1  0.64820000  0.09510000  0.03827000  1.0 0.1085961279
H  H187  1  0.62000000  0.80510000  0.56900000  1.0 0.1207071727
H  H188  1  0.19490000  0.81490000  0.90233000  1.0 0.1207071727
H  H189  1  0.18510000  0.38000000  0.23567000  1.0 0.1207071727
H  H190  1  0.80510000  0.62000000  0.43100000  1.0 0.1207071727
H  H191  1  0.38000000  0.18510000  0.76433000  1.0 0.1207071727
H  H192  1  0.81490000  0.19490000  0.09767000  1.0 0.1207071727
H  H193  1  0.53450000  0.76730000  0.52430000  1.0 0.1410657196
H  H194  1  0.23270000  0.76720000  0.85763000  1.0 0.1410657196
H  H195  1  0.23280000  0.46550000  0.19097000  1.0 0.1410657196
H  H196  1  0.76730000  0.53450000  0.47570000  1.0 0.1410657196
H  H197  1  0.46550000  0.23280000  0.80903000  1.0 0.1410657196
H  H198  1  0.76720000  0.23270000  0.14237000  1.0 0.1410657196
H  H199  1  0.46770000  0.86710000  0.58370000  1.0 0.1410657196
H  H200  1  0.13290000  0.60060000  0.91703000  1.0 0.1410657196
H  H201  1  0.39940000  0.53230000  0.25037000  1.0 0.1410657196
H  H202  1  0.86710000  0.46770000  0.41630000  1.0 0.1410657196
H  H203  1  0.53230000  0.39940000  0.74963000  1.0 0.1410657196
H  H204  1  0.60060000  0.13290000  0.08297000  1.0 0.1410657196
H  H205  1  0.23610000  0.28930000  0.23500000  1.0 0.1030434646
H  H206  1  0.71070000  0.94680000  0.56833000  1.0 0.1030434646
H  H207  1  0.05320000  0.76390000  0.90167000  1.0 0.1030434646
H  H208  1  0.28930000  0.23610000  0.76500000  1.0 0.1030434646
H  H209  1  0.76390000  0.05320000  0.09833000  1.0 0.1030434646
H  H210  1  0.94680000  0.71070000  0.43167000  1.0 0.1030434646
H  H211  1  0.17330000  0.20810000  0.19050000  1.0 0.154779176
H  H212  1  0.79190000  0.96520000  0.52383000  1.0 0.154779176
H  H213  1  0.03480000  0.82670000  0.85717000  1.0 0.1589197675
H  H214  1  0.20810000  0.17330000  0.80950000  1.0 0.1589197675
H  H215  1  0.82670000  0.03480000  0.14283000  1.0 0.154779176
H  H216  1  0.96520000  0.79190000  0.47617000  1.0 0.154779176
H  H217  1  0.02140000  0.15770000  0.26150000  1.0 0.1589197675
H  H218  1  0.84230000  0.86370000  0.59483000  1.0 0.1589197675
H  H219  1  0.13630000  0.97860000  0.92817000  1.0 0.1589197675
H  H220  1  0.15770000  0.02140000  0.73850000  1.0 0.1589197675
H  H221  1  0.97860000  0.13630000  0.07183000  1.0 0.1589197675
H  H222  1  0.86370000  0.84230000  0.40517000  1.0 0.1589197675
H  H223  1  0.08410000  0.23900000  0.30600000  1.0 0.1085961279
H  H224  1  0.76100000  0.84510000  0.63933000  1.0 0.1085961279
H  H225  1  0.15490000  0.91590000  0.97267000  1.0 0.1085961279
H  H226  1  0.23900000  0.08410000  0.69400000  1.0 0.1085961279
H  H227  1  0.91590000  0.15490000  0.02733000  1.0 0.1085961279
H  H228  1  0.84510000  0.76100000  0.36067000  1.0 0.1085961279
H  H229  1  0.18290000  0.86390000  0.06030000  1.0 0.1030434646
H  H230  1  0.13610000  0.31900000  0.39363000  1.0 0.1030434646
H  H231  1  0.68100000  0.81710000  0.72697000  1.0 0.1030434646
H  H232  1  0.86390000  0.18290000  0.93970000  1.0 0.1030434646
H  H233  1  0.81710000  0.68100000  0.27303000  1.0 0.1030434646
H  H234  1  0.31900000  0.13610000  0.60637000  1.0 0.1030434646
H  H235  1  0.14830000  0.89990000  0.11710000  1.0 0.1410657196
H  H236  1  0.10010000  0.24840000  0.45043000  1.0 0.1410657196
H  H237  1  0.75160000  0.85170000  0.78377000  1.0 0.1410657196
H  H238  1  0.89990000  0.14830000  0.88290000  1.0 0.1410657196
H  H239  1  0.85170000  0.75160000  0.21623000  1.0 0.1410657196
H  H240  1  0.24840000  0.10010000  0.54957000  1.0 0.1410657196
H  H241  1  0.96700000  0.81760000  0.06830000  1.0 0.1410657196
H  H242  1  0.18240000  0.14940000  0.40163000  1.0 0.1410657196
H  H243  1  0.85060000  0.03300000  0.73497000  1.0 0.1410657196
H  H244  1  0.81760000  0.96700000  0.93170000  1.0 0.1410657196
H  H245  1  0.03300000  0.85060000  0.26503000  1.0 0.1410657196
H  H246  1  0.14940000  0.18240000  0.59837000  1.0 0.1410657196
H  H247  1  0.00150000  0.78160000  0.01150000  1.0 0.1085961279
H  H248  1  0.21840000  0.21990000  0.34483000  1.0 0.1085961279
H  H249  1  0.78010000  0.99850000  0.67817000  1.0 0.1085961279
H  H250  1  0.78160000  0.00150000  0.98850000  1.0 0.1085961279
H  H251  1  0.99850000  0.78010000  0.32183000  1.0 0.1085961279
H  H252  1  0.21990000  0.21840000  0.65517000  1.0 0.1085961279
H  H253  1  0.97640000  0.74210000  0.19010000  1.0 0.0201060964
H  H254  1  0.25790000  0.23430000  0.52343000  1.0 0.0201060964
H  H255  1  0.76570000  0.02360000  0.85677000  1.0 0.0201060964
H  H256  1  0.74210000  0.97640000  0.80990000  1.0 0.0201060964
H  H257  1  0.02360000  0.76570000  0.14323000  1.0 0.0201060964
H  H258  1  0.23430000  0.25790000  0.47657000  1.0 0.0120178707
H  H259  1  0.05610000  0.01940000  0.10560000  1.0 0.1301913441
H  H260  1  0.98060000  0.03670000  0.43893000  1.0 0.1301913441
H  H261  1  0.96330000  0.94390000  0.77227000  1.0 0.1301913441
H  H262  1  0.01940000  0.05610000  0.89440000  1.0 0.1301913441
H  H263  1  0.94390000  0.96330000  0.22773000  1.0 0.1301913441
H  H264  1  0.03670000  0.98060000  0.56107000  1.0 0.1301913441
H  H265  1  0.03810000  0.96210000  0.07510000  1.0 0.1301913441
H  H266  1  0.03790000  0.07600000  0.40843000  1.0 0.1301913441
H  H267  1  0.92400000  0.96190000  0.74177000  1.0 0.1301913441
H  H268  1  0.96210000  0.03810000  0.92490000  1.0 0.1301913441
H  H269  1  0.96190000  0.92400000  0.25823000  1.0 0.1301913441
H  H270  1  0.07600000  0.03790000  0.59157000  1.0 0.1301913441
H  H271  1  0.10540000  0.99550000  0.09720000  1.0 0.1301913441
H  H272  1  0.00450000  0.10990000  0.43053000  1.0 0.1301913441
H  H273  1  0.89010000  0.89460000  0.76387000  1.0 0.1301913441
H  H274  1  0.99550000  0.10540000  0.90280000  1.0 0.1301913441
H  H275  1  0.89460000  0.89010000  0.23613000  1.0 0.1301913441
H  H276  1  0.10990000  0.00450000  0.56947000  1.0 0.1301913441
H  H277  1  0.95790000  0.18440000  0.17420000  1.0 0.0201060964
H  H278  1  0.81560000  0.77350000  0.50753000  1.0 0.0201060964
H  H279  1  0.22650000  0.04210000  0.84087000  1.0 0.0201060964
H  H280  1  0.18440000  0.95790000  0.82580000  1.0 0.0201060964
H  H281  1  0.04210000  0.22650000  0.15913000  1.0 0.0201060964
H  H282  1  0.77350000  0.81560000  0.49247000  1.0 0.0201060964
H  H283  1  0.12200000  0.09970000  0.23220000  1.0 0.1207071727
H  H284  1  0.90030000  0.02230000  0.56553000  1.0 0.1207071727
H  H285  1  0.97770000  0.87800000  0.89887000  1.0 0.1207071727
H  H286  1  0.09970000  0.12200000  0.76780000  1.0 0.1207071727
H  H287  1  0.87800000  0.97770000  0.10113000  1.0 0.1207071727
H  H288  1  0.02230000  0.90030000  0.43447000  1.0 0.1207071727
H  H289  1  0.12090000  0.04650000  0.20340000  1.0 0.1301913441
H  H290  1  0.95350000  0.07440000  0.53673000  1.0 0.1301913441
H  H291  1  0.92560000  0.87910000  0.87007000  1.0 0.1301913441
H  H292  1  0.04650000  0.12090000  0.79660000  1.0 0.1301913441
H  H293  1  0.87910000  0.92560000  0.12993000  1.0 0.1301913441
H  H294  1  0.07440000  0.95350000  0.46327000  1.0 0.1301913441
H  H295  1  0.07140000  0.02660000  0.23970000  1.0 0.1207071727
H  H296  1  0.97340000  0.04480000  0.57303000  1.0 0.1207071727
H  H297  1  0.95520000  0.92860000  0.90637000  1.0 0.1207071727
H  H298  1  0.02660000  0.07140000  0.76030000  1.0 0.1207071727
H  H299  1  0.92860000  0.95520000  0.09363000  1.0 0.1207071727
H  H300  1  0.04480000  0.97340000  0.42697000  1.0 0.1207071727
H  H301  1  0.22420000  0.26800000  0.50130000  1.0 0.0288762763
H  H302  1  0.73200000  0.95620000  0.83463000  1.0 0.0288762763
H  H303  1  0.04380000  0.77580000  0.16797000  1.0 0.0288762763
H  H304  1  0.26800000  0.22420000  0.49870000  1.0 0.0288762763
H  H305  1  0.77580000  0.04380000  0.83203000  1.0 0.0288762763
H  H306  1  0.95620000  0.73200000  0.16537000  1.0 0.0288762763
H  H307  1  0.25620000  0.23600000  0.47530000  1.0 0.0288762763
H  H308  1  0.76400000  0.02020000  0.80863000  1.0 0.0288762763
H  H309  1  0.97980000  0.74380000  0.14197000  1.0 0.0288762763
H  H310  1  0.23600000  0.25620000  0.52470000  1.0 0.0288762763
H  H311  1  0.74380000  0.97980000  0.85803000  1.0 0.0288762763
H  H312  1  0.02020000  0.76400000  0.19137000  1.0 0.0288762763
H  H313  1  0.03140000  0.22110000  0.18600000  1.0 0.0201060964
H  H314  1  0.77890000  0.81030000  0.51933000  1.0 0.0201060964
H  H315  1  0.18970000  0.96860000  0.85267000  1.0 0.0120178707
H  H316  1  0.22110000  0.03140000  0.81400000  1.0 0.0120178707
H  H317  1  0.96860000  0.18970000  0.14733000  1.0 0.0120178707
H  H318  1  0.81030000  0.77890000  0.48067000  1.0 0.0201060964
H  H319  1  0.01070000  0.21080000  0.13970000  1.0 0.0120178707
H  H320  1  0.78920000  0.79990000  0.47303000  1.0 0.0120178707
H  H321  1  0.20010000  0.98930000  0.80637000  1.0 0.0120178707
H  H322  1  0.21080000  0.01070000  0.86030000  1.0 0.0120178707
H  H323  1  0.98930000  0.20010000  0.19363000  1.0 0.0120178707
H  H324  1  0.79990000  0.78920000  0.52697000  1.0 0.0120178707
C  C1  1  0.39510000  0.84200000  0.39430000  1.0 -0.2219009858
C  C2  1  0.15800000  0.55310000  0.72763000  1.0 -0.2219009858
C  C3  1  0.44690000  0.60490000  0.06097000  1.0 -0.2219009858
C  C4  1  0.84200000  0.39510000  0.60570000  1.0 -0.2219009858
C  C5  1  0.60490000  0.44690000  0.93903000  1.0 -0.2219009858
C  C6  1  0.55310000  0.15800000  0.27237000  1.0 -0.2219009858
C  C7  1  0.39340000  0.88270000  0.36276000  1.0 0.0201060964
C  C8  1  0.11730000  0.51070000  0.69609000  1.0 0.0201060964
C  C9  1  0.48930000  0.60660000  0.02943000  1.0 0.0201060964
C  C10  1  0.88270000  0.39340000  0.63724000  1.0 0.0288762763
C  C11  1  0.60660000  0.48930000  0.97057000  1.0 0.0201060964
C  C12  1  0.51070000  0.11730000  0.30391000  1.0 0.0201060964
C  C13  1  0.34410000  0.92520000  0.41131000  1.0 0.0288762763
C  C14  1  0.07480000  0.41890000  0.74464000  1.0 0.0288762763
C  C15  1  0.58110000  0.65590000  0.07798000  1.0 0.0288762763
C  C16  1  0.92520000  0.34410000  0.58869000  1.0 0.0288762763
C  C17  1  0.65590000  0.58110000  0.92202000  1.0 0.0288762763
C  C18  1  0.41890000  0.07480000  0.25536000  1.0 0.0288762763
C  C19  1  0.34580000  0.88460000  0.44285000  1.0 -0.2298358752
C  C20  1  0.11540000  0.46120000  0.77618000  1.0 -0.2298358752
C  C21  1  0.53880000  0.65420000  0.10952000  1.0 -0.2298358752
C  C22  1  0.88460000  0.34580000  0.55715000  1.0 -0.2298358752
C  C23  1  0.65420000  0.53880000  0.89048000  1.0 -0.2298358752
C  C24  1  0.46120000  0.11540000  0.22382000  1.0 -0.2298358752
C  C25  1  0.37130000  0.84300000  0.43435000  1.0 0.1410657196
C  C26  1  0.15700000  0.52830000  0.76768000  1.0 0.1410657196
C  C27  1  0.47170000  0.62870000  0.10102000  1.0 0.1410657196
C  C28  1  0.84300000  0.37130000  0.56565000  1.0 0.1410657196
C  C29  1  0.62870000  0.47170000  0.89898000  1.0 0.1410657196
C  C30  1  0.52830000  0.15700000  0.23232000  1.0 0.1410657196
C  C31  1  0.37400000  0.80130000  0.46871000  1.0 -0.0880765976
C  C32  1  0.19870000  0.57270000  0.80204000  1.0 -0.0880765976
C  C33  1  0.42730000  0.62600000  0.13538000  1.0 -0.0880765976
C  C34  1  0.80130000  0.37400000  0.53129000  1.0 -0.0880765976
C  C35  1  0.62600000  0.42730000  0.86462000  1.0 -0.0880765976
C  C36  1  0.57270000  0.19870000  0.19796000  1.0 -0.0880765976
C  C37  1  0.42730000  0.82650000  0.49362000  1.0 0.0603697912
C  C38  1  0.17350000  0.60080000  0.82695000  1.0 0.0603697912
C  C39  1  0.39920000  0.57270000  0.16029000  1.0 0.0603697912
C  C40  1  0.82650000  0.42730000  0.50638000  1.0 0.0603697912
C  C41  1  0.57270000  0.39920000  0.83971000  1.0 0.0603697912
C  C42  1  0.60080000  0.17350000  0.17305000  1.0 0.0603697912
C  C43  1  0.43590000  0.78700000  0.52020000  1.0 -0.0880765976
C  C44  1  0.21300000  0.64890000  0.85353000  1.0 -0.0880765976
C  C45  1  0.35110000  0.56410000  0.18687000  1.0 -0.0880765976
C  C46  1  0.78700000  0.43590000  0.47980000  1.0 -0.0880765976
C  C47  1  0.56410000  0.35110000  0.81313000  1.0 -0.0880765976
C  C48  1  0.64890000  0.21300000  0.14647000  1.0 -0.0880765976
C  C49  1  0.39130000  0.72250000  0.52191000  1.0 0.0603697912
C  C50  1  0.27750000  0.66880000  0.85524000  1.0 0.0603697912
C  C51  1  0.33120000  0.60870000  0.18858000  1.0 0.0603697912
C  C52  1  0.72250000  0.39130000  0.47809000  1.0 0.0467507844
C  C53  1  0.60870000  0.33120000  0.81142000  1.0 0.0603697912
C  C54  1  0.66880000  0.27750000  0.14476000  1.0 0.0603697912
C  C55  1  0.33800000  0.69730000  0.49700000  1.0 -0.0415583178
C  C56  1  0.30270000  0.64070000  0.83033000  1.0 -0.0415583178
C  C57  1  0.35930000  0.66200000  0.16367000  1.0 -0.0415583178
C  C58  1  0.69730000  0.33800000  0.50300000  1.0 -0.0415583178
C  C59  1  0.66200000  0.35930000  0.83633000  1.0 -0.0415583178
C  C60  1  0.64070000  0.30270000  0.16967000  1.0 -0.0415583178
C  C61  1  0.32940000  0.73680000  0.47039000  1.0 0.0603697912
C  C62  1  0.26320000  0.59260000  0.80372000  1.0 0.0603697912
C  C63  1  0.40740000  0.67060000  0.13706000  1.0 0.0603697912
C  C64  1  0.73680000  0.32940000  0.52961000  1.0 0.0603697912
C  C65  1  0.67060000  0.40740000  0.86294000  1.0 0.0603697912
C  C66  1  0.59260000  0.26320000  0.19628000  1.0 0.0603697912
C  C67  1  0.48130000  0.90190000  0.48720000  1.0 -0.4397582686
C  C68  1  0.09810000  0.57940000  0.82053000  1.0 -0.4397582686
C  C69  1  0.42060000  0.51870000  0.15387000  1.0 -0.4397582686
C  C70  1  0.90190000  0.48130000  0.51280000  1.0 -0.4397582686
C  C71  1  0.51870000  0.42060000  0.84613000  1.0 -0.4397582686
C  C72  1  0.57940000  0.09810000  0.17947000  1.0 -0.4397582686
C  C73  1  0.39850000  0.67760000  0.55560000  1.0 -0.4397582686
C  C74  1  0.32240000  0.72090000  0.88893000  1.0 -0.4397582686
C  C75  1  0.27910000  0.60150000  0.22227000  1.0 -0.4397582686
C  C76  1  0.67760000  0.39850000  0.44440000  1.0 -0.4397582686
C  C77  1  0.60150000  0.27910000  0.77773000  1.0 -0.4397582686
C  C78  1  0.72090000  0.32240000  0.11107000  1.0 -0.4397582686
C  C79  1  0.26990000  0.70440000  0.44320000  1.0 -0.4306428576
C  C80  1  0.29560000  0.56550000  0.77653000  1.0 -0.4306428576
C  C81  1  0.43450000  0.73010000  0.10987000  1.0 -0.4306428576
C  C82  1  0.70440000  0.26990000  0.55680000  1.0 -0.4306428576
C  C83  1  0.73010000  0.43450000  0.89013000  1.0 -0.4306428576
C  C84  1  0.56550000  0.29560000  0.22347000  1.0 -0.4306428576
C  C85  1  0.29320000  0.62510000  0.49650000  1.0 -0.0284030407
C  C86  1  0.37490000  0.66810000  0.82983000  1.0 -0.0284030407
C  C87  1  0.33190000  0.70680000  0.16317000  1.0 -0.0284030407
C  C88  1  0.62510000  0.29320000  0.50350000  1.0 -0.0284030407
C  C89  1  0.70680000  0.33190000  0.83683000  1.0 -0.0284030407
C  C90  1  0.66810000  0.37490000  0.17017000  1.0 -0.0284030407
C  C91  1  0.29910000  0.58860000  0.46420000  1.0 0.0677148042
C  C92  1  0.41140000  0.71050000  0.79753000  1.0 0.0677148042
C  C93  1  0.28950000  0.70090000  0.13087000  1.0 0.0677148042
C  C94  1  0.58860000  0.29910000  0.53580000  1.0 0.0677148042
C  C95  1  0.70090000  0.28950000  0.86913000  1.0 0.0677148042
C  C96  1  0.71050000  0.41140000  0.20247000  1.0 0.0677148042
C  C97  1  0.25760000  0.52060000  0.46270000  1.0 -0.0741306245
C  C98  1  0.47940000  0.73700000  0.79603000  1.0 -0.0741306245
C  C99  1  0.26300000  0.74240000  0.12937000  1.0 -0.0741306245
C  C100  1  0.52060000  0.25760000  0.53730000  1.0 -0.0741306245
C  C101  1  0.74240000  0.26300000  0.87063000  1.0 -0.0741306245
C  C102  1  0.73700000  0.47940000  0.20397000  1.0 -0.0741306245
C  C103  1  0.21010000  0.48900000  0.49360000  1.0 0.0769056846
C  C104  1  0.51100000  0.72110000  0.82693000  1.0 0.0769056846
C  C105  1  0.27890000  0.78990000  0.16027000  1.0 0.0769056846
C  C106  1  0.48900000  0.21010000  0.50640000  1.0 0.0769056846
C  C107  1  0.78990000  0.27890000  0.83973000  1.0 0.0769056846
C  C108  1  0.72110000  0.51100000  0.17307000  1.0 0.0769056846
C  C109  1  0.20410000  0.52540000  0.52600000  1.0 -0.0830176285
C  C110  1  0.47460000  0.67870000  0.85933000  1.0 -0.0830176285
C  C111  1  0.32130000  0.79590000  0.19267000  1.0 -0.0830176285
C  C112  1  0.52540000  0.20410000  0.47400000  1.0 -0.0830176285
C  C113  1  0.79590000  0.32130000  0.80733000  1.0 -0.0830176285
C  C114  1  0.67870000  0.47460000  0.14067000  1.0 -0.0830176285
C  C115  1  0.24570000  0.59340000  0.52750000  1.0 0.0677148042
C  C116  1  0.40660000  0.65230000  0.86083000  1.0 0.0677148042
C  C117  1  0.34770000  0.75430000  0.19417000  1.0 0.0677148042
C  C118  1  0.59340000  0.24570000  0.47250000  1.0 0.0677148042
C  C119  1  0.75430000  0.34770000  0.80583000  1.0 0.0677148042
C  C120  1  0.65230000  0.40660000  0.13917000  1.0 0.0677148042
C  C121  1  0.35710000  0.61730000  0.43450000  1.0 -0.4397582686
C  C122  1  0.38270000  0.73980000  0.76783000  1.0 -0.4397582686
C  C123  1  0.26020000  0.64290000  0.10117000  1.0 -0.4397582686
C  C124  1  0.61730000  0.35710000  0.56550000  1.0 -0.4397582686
C  C125  1  0.64290000  0.26020000  0.89883000  1.0 -0.4397582686
C  C126  1  0.73980000  0.38270000  0.23217000  1.0 -0.4397582686
C  C127  1  0.16160000  0.41470000  0.49270000  1.0 -0.4560920831
C  C128  1  0.58530000  0.74690000  0.82603000  1.0 -0.4560920831
C  C129  1  0.25310000  0.83840000  0.15937000  1.0 -0.4500540857
C  C130  1  0.41470000  0.16160000  0.50730000  1.0 -0.4560920831
C  C131  1  0.83840000  0.25310000  0.84063000  1.0 -0.4560920831
C  C132  1  0.74690000  0.58530000  0.17397000  1.0 -0.4560920831
C  C133  1  0.23820000  0.63310000  0.55950000  1.0 -0.4500540857
C  C134  1  0.36690000  0.60510000  0.89283000  1.0 -0.4500540857
C  C135  1  0.39490000  0.76180000  0.22617000  1.0 -0.4500540857
C  C136  1  0.63310000  0.23820000  0.44050000  1.0 -0.4500540857
C  C137  1  0.76180000  0.39490000  0.77383000  1.0 -0.4500540857
C  C138  1  0.60510000  0.36690000  0.10717000  1.0 -0.4500540857
C  C139  1  0.26460000  0.48664000  0.42706000  1.0 0.1207071727
C  C140  1  0.51336000  0.77796000  0.76039000  1.0 0.1207071727
C  C141  1  0.22204000  0.73540000  0.09373000  1.0 0.1207071727
C  C142  1  0.48664000  0.26460000  0.57294000  1.0 0.1207071727
C  C143  1  0.73540000  0.22204000  0.90627000  1.0 0.1207071727
C  C144  1  0.77796000  0.51336000  0.23961000  1.0 0.1207071727
C  C145  1  0.28440000  0.44137000  0.42959000  1.0 -0.1737060985
C  C146  1  0.55863000  0.84303000  0.76292000  1.0 -0.1737060985
C  C147  1  0.15697000  0.71560000  0.09626000  1.0 -0.1809573359
C  C148  1  0.44137000  0.28440000  0.57041000  1.0 -0.1737060985
C  C149  1  0.71560000  0.15697000  0.90374000  1.0 -0.1737060985
C  C150  1  0.84303000  0.55863000  0.23708000  1.0 -0.1737060985
C  C151  1  0.27870000  0.40380000  0.39590000  1.0 0.0467507844
C  C152  1  0.59620000  0.87490000  0.72923000  1.0 0.0467507844
C  C153  1  0.12510000  0.72130000  0.06257000  1.0 0.0467507844
C  C154  1  0.40380000  0.27870000  0.60410000  1.0 0.0467507844
C  C155  1  0.72130000  0.12510000  0.93743000  1.0 0.0467507844
C  C156  1  0.87490000  0.59620000  0.27077000  1.0 0.0467507844
C  C157  1  0.23360000  0.45680000  0.35715000  1.0 0.0288762763
C  C158  1  0.54320000  0.77680000  0.69048000  1.0 0.0288762763
C  C159  1  0.22320000  0.76640000  0.02382000  1.0 0.0288762763
C  C160  1  0.45680000  0.23360000  0.64285000  1.0 0.0288762763
C  C161  1  0.76640000  0.22320000  0.97618000  1.0 0.0288762763
C  C162  1  0.77680000  0.54320000  0.30952000  1.0 0.0288762763
C  C163  1  0.23920000  0.49430000  0.39084000  1.0 -0.1885398846
C  C164  1  0.50570000  0.74490000  0.72417000  1.0 -0.1885398846
C  C165  1  0.25510000  0.76080000  0.05751000  1.0 -0.1885398846
C  C166  1  0.49430000  0.23920000  0.60916000  1.0 -0.1885398846
C  C167  1  0.76080000  0.25510000  0.94249000  1.0 -0.1885398846
C  C168  1  0.74490000  0.50570000  0.27583000  1.0 -0.1885398846
C  C169  1  0.15360000  0.49318000  0.55467000  1.0 0.1085961279
C  C170  1  0.50682000  0.66042000  0.88800000  1.0 0.1085961279
C  C171  1  0.33958000  0.84640000  0.22134000  1.0 0.1085961279
C  C172  1  0.49318000  0.15360000  0.44533000  1.0 0.1085961279
C  C173  1  0.84640000  0.33958000  0.77866000  1.0 0.1085961279
C  C174  1  0.66042000  0.50682000  0.11200000  1.0 0.1085961279
C  C175  1  0.15940000  0.45231000  0.58195000  1.0 -0.1809573359
C  C176  1  0.54769000  0.70709000  0.91528000  1.0 -0.1809573359
C  C177  1  0.29291000  0.84060000  0.24862000  1.0 -0.1809573359
C  C178  1  0.45231000  0.15940000  0.41805000  1.0 -0.1809573359
C  C179  1  0.84060000  0.29291000  0.75138000  1.0 -0.1809573359
C  C180  1  0.70709000  0.54769000  0.08472000  1.0 -0.1809573359
C  C181  1  0.11600000  0.42520000  0.61381000  1.0 0.0424520635
C  C182  1  0.57480000  0.69080000  0.94714000  1.0 0.0424520635
C  C183  1  0.30920000  0.88400000  0.28048000  1.0 0.0424520635
C  C184  1  0.42520000  0.11600000  0.38619000  1.0 0.0424520635
C  C185  1  0.88400000  0.30920000  0.71952000  1.0 0.0424520635
C  C186  1  0.69080000  0.57480000  0.05286000  1.0 0.0424520635
C  C187  1  0.06100000  0.47990000  0.59112000  1.0 0.0288762763
C  C188  1  0.52010000  0.58110000  0.92445000  1.0 0.0288762763
C  C189  1  0.41890000  0.93900000  0.25779000  1.0 0.0288762763
C  C190  1  0.47990000  0.06100000  0.40888000  1.0 0.0288762763
C  C191  1  0.93900000  0.41890000  0.74221000  1.0 0.0288762763
C  C192  1  0.58110000  0.52010000  0.07555000  1.0 0.0288762763
C  C193  1  0.10440000  0.50699000  0.55925000  1.0 -0.1809573359
C  C194  1  0.49301000  0.59741000  0.89258000  1.0 -0.1809573359
C  C195  1  0.40259000  0.89560000  0.22592000  1.0 -0.1809573359
C  C196  1  0.50699000  0.10440000  0.44075000  1.0 -0.1809573359
C  C197  1  0.89560000  0.40259000  0.77408000  1.0 -0.1809573359
C  C198  1  0.59741000  0.49301000  0.10742000  1.0 -0.1809573359
C  C199  1  0.54934000  0.87697000  0.60732000  1.0 0.0288762763
C  C200  1  0.12303000  0.67237000  0.94065000  1.0 0.0288762763
C  C201  1  0.32763000  0.45066000  0.27399000  1.0 0.0288762763
C  C202  1  0.87697000  0.54934000  0.39268000  1.0 0.0288762763
C  C203  1  0.45066000  0.32763000  0.72601000  1.0 0.0288762763
C  C204  1  0.67237000  0.12303000  0.05935000  1.0 0.0288762763
C  C205  1  0.58908000  0.81764000  0.57202000  1.0 0.0288762763
C  C206  1  0.18236000  0.77144000  0.90535000  1.0 0.0288762763
C  C207  1  0.22856000  0.41092000  0.23869000  1.0 0.0288762763
C  C208  1  0.81764000  0.58908000  0.42798000  1.0 0.0288762763
C  C209  1  0.41092000  0.22856000  0.76131000  1.0 0.0288762763
C  C210  1  0.77144000  0.18236000  0.09465000  1.0 0.0288762763
C  C211  1  0.53829000  0.79518000  0.54543000  1.0 -0.1737060985
C  C212  1  0.20482000  0.74311000  0.87876000  1.0 -0.1737060985
C  C213  1  0.25689000  0.46171000  0.21210000  1.0 -0.1737060985
C  C214  1  0.79518000  0.53829000  0.45457000  1.0 -0.1737060985
C  C215  1  0.46171000  0.25689000  0.78790000  1.0 -0.1737060985
C  C216  1  0.74311000  0.20482000  0.12124000  1.0 -0.1737060985
C  C217  1  0.49302000  0.81360000  0.54979000  1.0 0.1301913441
C  C218  1  0.18640000  0.67942000  0.88312000  1.0 0.1301913441
C  C219  1  0.32058000  0.50698000  0.21646000  1.0 0.1301913441
C  C220  1  0.81360000  0.49302000  0.45021000  1.0 0.1301913441
C  C221  1  0.50698000  0.32058000  0.78354000  1.0 0.1301913441
C  C222  1  0.67942000  0.18640000  0.11688000  1.0 0.1301913441
C  C223  1  0.49855000  0.85451000  0.58074000  1.0 -0.1809573359
C  C224  1  0.14549000  0.64404000  0.91407000  1.0 -0.1809573359
C  C225  1  0.35596000  0.50145000  0.24741000  1.0 -0.1809573359
C  C226  1  0.85451000  0.49855000  0.41926000  1.0 -0.1809573359
C  C227  1  0.50145000  0.35596000  0.75259000  1.0 -0.1809573359
C  C228  1  0.64404000  0.14549000  0.08593000  1.0 -0.1809573359
C  C229  1  0.19230000  0.26245000  0.24040000  1.0 0.0120178707
C  C230  1  0.73755000  0.92985000  0.57373000  1.0 0.0120178707
C  C231  1  0.07015000  0.80770000  0.90707000  1.0 0.0120178707
C  C232  1  0.26245000  0.19230000  0.75960000  1.0 0.0120178707
C  C233  1  0.80770000  0.07015000  0.09293000  1.0 0.0120178707
C  C234  1  0.92985000  0.73755000  0.42627000  1.0 0.0120178707
C  C235  1  0.15510000  0.21437000  0.21408000  1.0 -0.1809573359
C  C236  1  0.78563000  0.94073000  0.54741000  1.0 -0.1809573359
C  C237  1  0.05927000  0.84490000  0.88075000  1.0 -0.1809573359
C  C238  1  0.21437000  0.15510000  0.78592000  1.0 -0.1809573359
C  C239  1  0.84490000  0.05927000  0.11925000  1.0 -0.1809573359
C  C240  1  0.94073000  0.78563000  0.45259000  1.0 -0.1885398846
C  C241  1  0.09160000  0.17543000  0.22193000  1.0 0.1085961279
C  C242  1  0.82457000  0.91617000  0.55526000  1.0 0.1085961279
C  C243  1  0.08383000  0.90840000  0.88860000  1.0 0.1085961279
C  C244  1  0.17543000  0.09160000  0.77807000  1.0 0.1085961279
C  C245  1  0.90840000  0.08383000  0.11140000  1.0 0.1085961279
C  C246  1  0.91617000  0.82457000  0.44474000  1.0 0.1085961279
C  C247  1  0.06520000  0.18457000  0.25608000  1.0 -0.1809573359
C  C248  1  0.81543000  0.88063000  0.58941000  1.0 -0.1809573359
C  C249  1  0.11937000  0.93480000  0.92275000  1.0 -0.1809573359
C  C250  1  0.18457000  0.06520000  0.74392000  1.0 -0.1809573359
C  C251  1  0.93480000  0.11937000  0.07725000  1.0 -0.1809573359
C  C252  1  0.88063000  0.81543000  0.41059000  1.0 -0.1809573359
C  C253  1  0.10230000  0.23265000  0.28240000  1.0 0.0288762763
C  C254  1  0.76735000  0.86965000  0.61573000  1.0 0.0288762763
C  C255  1  0.13035000  0.89770000  0.94907000  1.0 0.0288762763
C  C256  1  0.23265000  0.10230000  0.71760000  1.0 0.0201060964
C  C257  1  0.89770000  0.13035000  0.05093000  1.0 0.0201060964
C  C258  1  0.86965000  0.76735000  0.38427000  1.0 0.0288762763
C  C259  1  0.14030000  0.85480000  0.06188000  1.0 0.0201060964
C  C260  1  0.14520000  0.28550000  0.39521000  1.0 0.0201060964
C  C261  1  0.71450000  0.85970000  0.72855000  1.0 0.0201060964
C  C262  1  0.85480000  0.14030000  0.93812000  1.0 0.0201060964
C  C263  1  0.85970000  0.71450000  0.27145000  1.0 0.0201060964
C  C264  1  0.28550000  0.14520000  0.60479000  1.0 0.0201060964
C  C265  1  0.11930000  0.87650000  0.09619000  1.0 -0.2380994371
C  C266  1  0.12350000  0.24280000  0.42952000  1.0 -0.2380994371
C  C267  1  0.75720000  0.88070000  0.76286000  1.0 -0.2380994371
C  C268  1  0.87650000  0.11930000  0.90381000  1.0 -0.2380994371
C  C269  1  0.88070000  0.75720000  0.23714000  1.0 -0.2380994371
C  C270  1  0.24280000  0.12350000  0.57048000  1.0 -0.2380994371
C  C271  1  0.05400000  0.86250000  0.09858000  1.0 0.1301913441
C  C272  1  0.13750000  0.19150000  0.43191000  1.0 0.1301913441
C  C273  1  0.80850000  0.94600000  0.76525000  1.0 0.1301913441
C  C274  1  0.86250000  0.05400000  0.90142000  1.0 0.1301913441
C  C275  1  0.94600000  0.80850000  0.23475000  1.0 0.1301913441
C  C276  1  0.19150000  0.13750000  0.56809000  1.0 0.1301913441
C  C277  1  0.00960000  0.82670000  0.06666000  1.0 -0.2219009858
C  C278  1  0.17330000  0.18290000  0.39999000  1.0 -0.2219009858
C  C279  1  0.81710000  0.99040000  0.73333000  1.0 -0.2219009858
C  C280  1  0.82670000  0.00960000  0.93334000  1.0 -0.2219009858
C  C281  1  0.99040000  0.81710000  0.26667000  1.0 -0.2219009858
C  C282  1  0.18290000  0.17330000  0.60001000  1.0 -0.2219009858
C  C283  1  0.03060000  0.80500000  0.03236000  1.0 0.0201060964
C  C284  1  0.19500000  0.22560000  0.36569000  1.0 0.0201060964
C  C285  1  0.77440000  0.96940000  0.69903000  1.0 0.0201060964
C  C286  1  0.80500000  0.03060000  0.96764000  1.0 0.0201060964
C  C287  1  0.96940000  0.77440000  0.30097000  1.0 0.0201060964
C  C288  1  0.22560000  0.19500000  0.63431000  1.0 0.0201060964
C  C289  1  0.02870000  0.87840000  0.13670000  1.0 -0.1028925484
C  C290  1  0.12160000  0.15030000  0.47003000  1.0 -0.1028925484
C  C291  1  0.84970000  0.97130000  0.80337000  1.0 -0.1028925484
C  C292  1  0.87840000  0.02870000  0.86330000  1.0 -0.1028925484
C  C293  1  0.97130000  0.84970000  0.19663000  1.0 -0.1028925484
C  C294  1  0.15030000  0.12160000  0.52997000  1.0 -0.1028925484
C  C295  1  0.00000000  0.83300000  0.16667000  1.0 -0.0044908707
C  C296  1  0.16700000  0.16700000  0.50000000  1.0 -0.0044908707
C  C297  1  0.83300000  0.00000000  0.83333000  1.0 -0.0085046567
C  C298  1  0.00000000  0.76730000  0.16667000  1.0 -0.1885398846
C  C299  1  0.23270000  0.23270000  0.50000000  1.0 -0.1885398846
C  C300  1  0.76730000  0.00000000  0.83333000  1.0 -0.1885398846
C  C301  1  0.03160000  0.93470000  0.13520000  1.0 0.0603697912
C  C302  1  0.06530000  0.09690000  0.46853000  1.0 0.0603697912
C  C303  1  0.90310000  0.96840000  0.80187000  1.0 0.0603697912
C  C304  1  0.93470000  0.03160000  0.86480000  1.0 0.0603697912
C  C305  1  0.96840000  0.90310000  0.19813000  1.0 0.0603697912
C  C306  1  0.09690000  0.06530000  0.53147000  1.0 0.0603697912
C  C307  1  0.06050000  0.98230000  0.10010000  1.0 -0.4306428576
C  C308  1  0.01770000  0.07820000  0.43343000  1.0 -0.4306428576
C  C309  1  0.92180000  0.93950000  0.76677000  1.0 -0.4306428576
C  C310  1  0.98230000  0.06050000  0.89990000  1.0 -0.4306428576
C  C311  1  0.93950000  0.92180000  0.23323000  1.0 -0.4306428576
C  C312  1  0.07820000  0.01770000  0.56657000  1.0 -0.4306428576
C  C313  1  0.03760000  0.11910000  0.18960000  1.0 -0.1028925484
C  C314  1  0.88090000  0.91850000  0.52293000  1.0 -0.1028925484
C  C315  1  0.08150000  0.96240000  0.85627000  1.0 -0.1028925484
C  C316  1  0.11910000  0.03760000  0.81040000  1.0 -0.1028925484
C  C317  1  0.96240000  0.08150000  0.14373000  1.0 -0.1028925484
C  C318  1  0.91850000  0.88090000  0.47707000  1.0 -0.1028925484
C  C319  1  0.00000000  0.13030000  0.16667000  1.0 -0.0284030407
C  C320  1  0.86970000  0.86970000  0.50000000  1.0 -0.0232397013
C  C321  1  0.13030000  0.00000000  0.83333000  1.0 -0.0284030407
C  C322  1  0.00000000  0.19200000  0.16667000  1.0 -0.1520726916
C  C323  1  0.80800000  0.80800000  0.50000000  1.0 -0.1520726916
C  C324  1  0.19200000  0.00000000  0.83333000  1.0 -0.1520726916
C  C325  1  0.04520000  0.06480000  0.18980000  1.0 0.0769056846
C  C326  1  0.93520000  0.98040000  0.52313000  1.0 0.0769056846
C  C327  1  0.01960000  0.95480000  0.85647000  1.0 0.0769056846
C  C328  1  0.06480000  0.04520000  0.81020000  1.0 0.0769056846
C  C329  1  0.95480000  0.01960000  0.14353000  1.0 0.0769056846
C  C330  1  0.98040000  0.93520000  0.47687000  1.0 0.0769056846
C  C331  1  0.09480000  0.05880000  0.21920000  1.0 -0.4397582686
C  C332  1  0.94120000  0.03600000  0.55253000  1.0 -0.4397582686
C  C333  1  0.96400000  0.90520000  0.88587000  1.0 -0.4397582686
C  C334  1  0.05880000  0.09480000  0.78080000  1.0 -0.4397582686
C  C335  1  0.90520000  0.96400000  0.11413000  1.0 -0.4397582686
C  C336  1  0.03600000  0.94120000  0.44747000  1.0 -0.4306428576
C  C337  1  0.00000000  0.01150000  0.16667000  1.0 -0.0603403746
C  C338  1  0.98850000  0.98850000  0.50000000  1.0 -0.0603403746
C  C339  1  0.01150000  0.00000000  0.83333000  1.0 -0.0603403746
C  C340  1  0.00000000  0.95100000  0.16667000  1.0 -0.0085046567
C  C341  1  0.04900000  0.04900000  0.50000000  1.0 -0.0085046567
C  C342  1  0.95100000  0.00000000  0.83333000  1.0 -0.0085046567
N  N1  1  0.36790000  0.92420000  0.37126000  1.0 -0.2693828306
N  N2  1  0.07580000  0.44370000  0.70459000  1.0 -0.2693828306
N  N3  1  0.55630000  0.63210000  0.03793000  1.0 -0.2693828306
N  N4  1  0.92420000  0.36790000  0.62874000  1.0 -0.2693828306
N  N5  1  0.63210000  0.55630000  0.96207000  1.0 -0.2693828306
N  N6  1  0.44370000  0.07580000  0.29541000  1.0 -0.2693828306
N  N7  1  0.25330000  0.41150000  0.35968000  1.0 -0.2380994371
N  N8  1  0.58850000  0.84180000  0.69301000  1.0 -0.2380994371
N  N9  1  0.15820000  0.74670000  0.02635000  1.0 -0.2380994371
N  N10  1  0.41150000  0.25330000  0.64032000  1.0 -0.2380994371
N  N11  1  0.74670000  0.15820000  0.97365000  1.0 -0.2380994371
N  N12  1  0.84180000  0.58850000  0.30699000  1.0 -0.2380994371
N  N13  1  0.06690000  0.43910000  0.61840000  1.0 -0.2533987201
N  N14  1  0.56090000  0.62780000  0.95173000  1.0 -0.2533987201
N  N15  1  0.37220000  0.93310000  0.28507000  1.0 -0.2533987201
N  N16  1  0.43910000  0.06690000  0.38160000  1.0 -0.2533987201
N  N17  1  0.93310000  0.37220000  0.71493000  1.0 -0.2533987201
N  N18  1  0.62780000  0.56090000  0.04827000  1.0 -0.2533987201
N  N19  1  0.59461000  0.85854000  0.60296000  1.0 -0.2298358752
N  N20  1  0.14146000  0.73607000  0.93629000  1.0 -0.2298358752
N  N21  1  0.26393000  0.40539000  0.26963000  1.0 -0.2298358752
N  N22  1  0.85854000  0.59461000  0.39704000  1.0 -0.2298358752
N  N23  1  0.40539000  0.26393000  0.73037000  1.0 -0.2298358752
N  N24  1  0.73607000  0.14146000  0.06371000  1.0 -0.2298358752
N  N25  1  0.16590000  0.27159000  0.27456000  1.0 -0.2219009858
N  N26  1  0.72841000  0.89431000  0.60789000  1.0 -0.2219009858
N  N27  1  0.10569000  0.83410000  0.94123000  1.0 -0.2219009858
N  N28  1  0.27159000  0.16590000  0.72544000  1.0 -0.2219009858
N  N29  1  0.83410000  0.10569000  0.05877000  1.0 -0.2219009858
N  N30  1  0.89431000  0.72841000  0.39211000  1.0 -0.2219009858
N  N31  1  0.09590000  0.81900000  0.02997000  1.0 -0.2693828306
N  N32  1  0.18100000  0.27690000  0.36330000  1.0 -0.2693828306
N  N33  1  0.72310000  0.90410000  0.69664000  1.0 -0.2693828306
N  N34  1  0.81900000  0.09590000  0.97003000  1.0 -0.2693828306
N  N35  1  0.90410000  0.72310000  0.30336000  1.0 -0.2693828306
N  N36  1  0.27690000  0.18100000  0.63670000  1.0 -0.2693828306
