# DDEC6 charges by PACMAN v1.1 (https://github.com/mtap-research/PACMAN-charge/)
data_QEQSIS_FSR_pacman
_symmetry_space_group_name_H-M   'P 1'
_cell_length_a   18.52810000
_cell_length_b   18.52810000
_cell_length_c   19.22040000
_cell_angle_alpha   90.00000000
_cell_angle_beta   90.00000000
_cell_angle_gamma   90.00000000
_symmetry_Int_Tables_number   1
_chemical_formula_structural   CuH19C20N2O9
_chemical_formula_sum   'Cu16 H304 C320 N32 O144'
_cell_volume   6598.18052650
_cell_formula_units_Z   16
loop_
 _symmetry_equiv_pos_site_id
 _symmetry_equiv_pos_as_xyz
  1  'x, y, z'
loop_
 _atom_site_type_symbol
 _atom_site_label
 _atom_site_symmetry_multiplicity
 _atom_site_fract_x
 _atom_site_fract_y
 _atom_site_fract_z
 _atom_site_occupancy
 _atom_site_charge
Cu  Cu1  1  0.72744000  0.20244000  0.20094000  1.0 0.7209610943
Cu  Cu2  1  0.27256000  0.79756000  0.20094000  1.0 0.7209610943
Cu  Cu3  1  0.29756000  0.22744000  0.20094000  1.0 0.7209610943
Cu  Cu4  1  0.70244000  0.77256000  0.20094000  1.0 0.7209610943
Cu  Cu5  1  0.77256000  0.70244000  0.29906000  1.0 0.7209610943
Cu  Cu6  1  0.22744000  0.29756000  0.29906000  1.0 0.7209610943
Cu  Cu7  1  0.20244000  0.72744000  0.29906000  1.0 0.7209610943
Cu  Cu8  1  0.79756000  0.27256000  0.29906000  1.0 0.7209610943
Cu  Cu9  1  0.77256000  0.29756000  0.79906000  1.0 0.7209610943
Cu  Cu10  1  0.22744000  0.70244000  0.79906000  1.0 0.7209610943
Cu  Cu11  1  0.20244000  0.27256000  0.79906000  1.0 0.7209610943
Cu  Cu12  1  0.79756000  0.72744000  0.79906000  1.0 0.7209610943
Cu  Cu13  1  0.72744000  0.79756000  0.70094000  1.0 0.7209610943
Cu  Cu14  1  0.27256000  0.20244000  0.70094000  1.0 0.7209610943
Cu  Cu15  1  0.29756000  0.77256000  0.70094000  1.0 0.7209610943
Cu  Cu16  1  0.70244000  0.22744000  0.70094000  1.0 0.7209610943
H  H1  1  0.90870000  0.18210000  0.05380000  1.0 0.1384123847
H  H2  1  0.12690000  0.19630000  0.05730000  1.0 0.1384123847
H  H3  1  0.01100000  0.24750000  0.22920000  1.0 0.0985955385
H  H4  1  0.98060000  0.25660000  0.94650000  1.0 0.0985955385
H  H5  1  0.92550000  0.19390000  0.94070000  1.0 0.081387713
H  H6  1  0.95130000  0.19000000  0.83010000  1.0 0.081387713
H  H7  1  0.02550000  0.15790000  0.85130000  1.0 0.0919619785
H  H8  1  0.02900000  0.27600000  0.78480000  1.0 0.1891138548
H  H9  1  0.93100000  0.32700000  0.91600000  1.0 0.0720290052
H  H10  1  0.96800000  0.39400000  0.88300000  1.0 0.1220771423
H  H11  1  0.90500000  0.47100000  0.06600000  1.0 0.1142881227
H  H12  1  0.91620000  0.18380000  0.97430000  1.0 0.0919619785
H  H13  1  0.94290000  0.14560000  0.90730000  1.0 0.0985955385
H  H14  1  0.95200000  0.29240000  0.93700000  1.0 0.0720290052
H  H15  1  0.93000000  0.25810000  0.86700000  1.0 0.1142881227
H  H16  1  0.05300000  0.24000000  0.84100000  1.0 0.1384123847
H  H17  1  0.16900000  0.38000000  0.98500000  1.0 0.0985955385
H  H18  1  0.16700000  0.31500000  0.03500000  1.0 0.1384123847
H  H19  1  0.09600000  0.47300000  0.15700000  1.0 0.1479229791
H  H20  1  0.09130000  0.81790000  0.05380000  1.0 0.1384123847
H  H21  1  0.87310000  0.80370000  0.05730000  1.0 0.1384123847
H  H22  1  0.98900000  0.75250000  0.22920000  1.0 0.0985955385
H  H23  1  0.01940000  0.74340000  0.94650000  1.0 0.0985955385
H  H24  1  0.07450000  0.80610000  0.94070000  1.0 0.081387713
H  H25  1  0.04870000  0.81000000  0.83010000  1.0 0.081387713
H  H26  1  0.97450000  0.84210000  0.85130000  1.0 0.0919619785
H  H27  1  0.97100000  0.72400000  0.78480000  1.0 0.1891138548
H  H28  1  0.06900000  0.67300000  0.91600000  1.0 0.0720290052
H  H29  1  0.03200000  0.60600000  0.88300000  1.0 0.1220771423
H  H30  1  0.09500000  0.52900000  0.06600000  1.0 0.1142881227
H  H31  1  0.08380000  0.81620000  0.97430000  1.0 0.0919619785
H  H32  1  0.05710000  0.85440000  0.90730000  1.0 0.0985955385
H  H33  1  0.04800000  0.70760000  0.93700000  1.0 0.0720290052
H  H34  1  0.07000000  0.74190000  0.86700000  1.0 0.1142881227
H  H35  1  0.94700000  0.76000000  0.84100000  1.0 0.1384123847
H  H36  1  0.83100000  0.62000000  0.98500000  1.0 0.0985955385
H  H37  1  0.83300000  0.68500000  0.03500000  1.0 0.1384123847
H  H38  1  0.90400000  0.52700000  0.15700000  1.0 0.1479229791
H  H39  1  0.31790000  0.40870000  0.05380000  1.0 0.1384123847
H  H40  1  0.30370000  0.62690000  0.05730000  1.0 0.1384123847
H  H41  1  0.25250000  0.51100000  0.22920000  1.0 0.0985955385
H  H42  1  0.24340000  0.48060000  0.94650000  1.0 0.0985955385
H  H43  1  0.30610000  0.42550000  0.94070000  1.0 0.081387713
H  H44  1  0.31000000  0.45130000  0.83010000  1.0 0.081387713
H  H45  1  0.34210000  0.52550000  0.85130000  1.0 0.0919619785
H  H46  1  0.22400000  0.52900000  0.78480000  1.0 0.1891138548
H  H47  1  0.17300000  0.43100000  0.91600000  1.0 0.0720290052
H  H48  1  0.10600000  0.46800000  0.88300000  1.0 0.1220771423
H  H49  1  0.02900000  0.40500000  0.06600000  1.0 0.1142881227
H  H50  1  0.31620000  0.41620000  0.97430000  1.0 0.0919619785
H  H51  1  0.35440000  0.44290000  0.90730000  1.0 0.0985955385
H  H52  1  0.20760000  0.45200000  0.93700000  1.0 0.0720290052
H  H53  1  0.24190000  0.43000000  0.86700000  1.0 0.1142881227
H  H54  1  0.26000000  0.55300000  0.84100000  1.0 0.1384123847
H  H55  1  0.12000000  0.66900000  0.98500000  1.0 0.0985955385
H  H56  1  0.18500000  0.66700000  0.03500000  1.0 0.1384123847
H  H57  1  0.02700000  0.59600000  0.15700000  1.0 0.1479229791
H  H58  1  0.68210000  0.59130000  0.05380000  1.0 0.1384123847
H  H59  1  0.69630000  0.37310000  0.05730000  1.0 0.1384123847
H  H60  1  0.74750000  0.48900000  0.22920000  1.0 0.0985955385
H  H61  1  0.75660000  0.51940000  0.94650000  1.0 0.0985955385
H  H62  1  0.69390000  0.57450000  0.94070000  1.0 0.081387713
H  H63  1  0.69000000  0.54870000  0.83010000  1.0 0.081387713
H  H64  1  0.65790000  0.47450000  0.85130000  1.0 0.0919619785
H  H65  1  0.77600000  0.47100000  0.78480000  1.0 0.1891138548
H  H66  1  0.82700000  0.56900000  0.91600000  1.0 0.0720290052
H  H67  1  0.89400000  0.53200000  0.88300000  1.0 0.1220771423
H  H68  1  0.97100000  0.59500000  0.06600000  1.0 0.1142881227
H  H69  1  0.68380000  0.58380000  0.97430000  1.0 0.0919619785
H  H70  1  0.64560000  0.55710000  0.90730000  1.0 0.0985955385
H  H71  1  0.79240000  0.54800000  0.93700000  1.0 0.0720290052
H  H72  1  0.75810000  0.57000000  0.86700000  1.0 0.1142881227
H  H73  1  0.74000000  0.44700000  0.84100000  1.0 0.1384123847
H  H74  1  0.88000000  0.33100000  0.98500000  1.0 0.0985955385
H  H75  1  0.81500000  0.33300000  0.03500000  1.0 0.1384123847
H  H76  1  0.97300000  0.40400000  0.15700000  1.0 0.1479229791
H  H77  1  0.59130000  0.68210000  0.44620000  1.0 0.1384123847
H  H78  1  0.37310000  0.69630000  0.44270000  1.0 0.1384123847
H  H79  1  0.48900000  0.74750000  0.27080000  1.0 0.0985955385
H  H80  1  0.51940000  0.75660000  0.55350000  1.0 0.0985955385
H  H81  1  0.57450000  0.69390000  0.55930000  1.0 0.081387713
H  H82  1  0.54870000  0.69000000  0.66990000  1.0 0.081387713
H  H83  1  0.47450000  0.65790000  0.64870000  1.0 0.0919619785
H  H84  1  0.47100000  0.77600000  0.71520000  1.0 0.1891138548
H  H85  1  0.56900000  0.82700000  0.58400000  1.0 0.0720290052
H  H86  1  0.53200000  0.89400000  0.61700000  1.0 0.1220771423
H  H87  1  0.59500000  0.97100000  0.43400000  1.0 0.1142881227
H  H88  1  0.58380000  0.68380000  0.52570000  1.0 0.0919619785
H  H89  1  0.55710000  0.64560000  0.59270000  1.0 0.0985955385
H  H90  1  0.54800000  0.79240000  0.56300000  1.0 0.0720290052
H  H91  1  0.57000000  0.75810000  0.63300000  1.0 0.1142881227
H  H92  1  0.44700000  0.74000000  0.65900000  1.0 0.1384123847
H  H93  1  0.33100000  0.88000000  0.51500000  1.0 0.0985955385
H  H94  1  0.33300000  0.81500000  0.46500000  1.0 0.1384123847
H  H95  1  0.40400000  0.97300000  0.34300000  1.0 0.1479229791
H  H96  1  0.40870000  0.31790000  0.44620000  1.0 0.1384123847
H  H97  1  0.62690000  0.30370000  0.44270000  1.0 0.1384123847
H  H98  1  0.51100000  0.25250000  0.27080000  1.0 0.0985955385
H  H99  1  0.48060000  0.24340000  0.55350000  1.0 0.0985955385
H  H100  1  0.42550000  0.30610000  0.55930000  1.0 0.081387713
H  H101  1  0.45130000  0.31000000  0.66990000  1.0 0.081387713
H  H102  1  0.52550000  0.34210000  0.64870000  1.0 0.0919619785
H  H103  1  0.52900000  0.22400000  0.71520000  1.0 0.1891138548
H  H104  1  0.43100000  0.17300000  0.58400000  1.0 0.0720290052
H  H105  1  0.46800000  0.10600000  0.61700000  1.0 0.1220771423
H  H106  1  0.40500000  0.02900000  0.43400000  1.0 0.1142881227
H  H107  1  0.41620000  0.31620000  0.52570000  1.0 0.0919619785
H  H108  1  0.44290000  0.35440000  0.59270000  1.0 0.0985955385
H  H109  1  0.45200000  0.20760000  0.56300000  1.0 0.0720290052
H  H110  1  0.43000000  0.24190000  0.63300000  1.0 0.1142881227
H  H111  1  0.55300000  0.26000000  0.65900000  1.0 0.1384123847
H  H112  1  0.66900000  0.12000000  0.51500000  1.0 0.0985955385
H  H113  1  0.66700000  0.18500000  0.46500000  1.0 0.1384123847
H  H114  1  0.59600000  0.02700000  0.34300000  1.0 0.1479229791
H  H115  1  0.18210000  0.90870000  0.44620000  1.0 0.1384123847
H  H116  1  0.19630000  0.12690000  0.44270000  1.0 0.1384123847
H  H117  1  0.24750000  0.01100000  0.27080000  1.0 0.0985955385
H  H118  1  0.25660000  0.98060000  0.55350000  1.0 0.0985955385
H  H119  1  0.19390000  0.92550000  0.55930000  1.0 0.081387713
H  H120  1  0.19000000  0.95130000  0.66990000  1.0 0.081387713
H  H121  1  0.15790000  0.02550000  0.64870000  1.0 0.0919619785
H  H122  1  0.27600000  0.02900000  0.71520000  1.0 0.1891138548
H  H123  1  0.32700000  0.93100000  0.58400000  1.0 0.0720290052
H  H124  1  0.39400000  0.96800000  0.61700000  1.0 0.1220771423
H  H125  1  0.47100000  0.90500000  0.43400000  1.0 0.1142881227
H  H126  1  0.18380000  0.91620000  0.52570000  1.0 0.0919619785
H  H127  1  0.14560000  0.94290000  0.59270000  1.0 0.0985955385
H  H128  1  0.29240000  0.95200000  0.56300000  1.0 0.0720290052
H  H129  1  0.25810000  0.93000000  0.63300000  1.0 0.1142881227
H  H130  1  0.24000000  0.05300000  0.65900000  1.0 0.1384123847
H  H131  1  0.38000000  0.16900000  0.51500000  1.0 0.0985955385
H  H132  1  0.31500000  0.16700000  0.46500000  1.0 0.1384123847
H  H133  1  0.47300000  0.09600000  0.34300000  1.0 0.1479229791
H  H134  1  0.81790000  0.09130000  0.44620000  1.0 0.1384123847
H  H135  1  0.80370000  0.87310000  0.44270000  1.0 0.1384123847
H  H136  1  0.75250000  0.98900000  0.27080000  1.0 0.0985955385
H  H137  1  0.74340000  0.01940000  0.55350000  1.0 0.0985955385
H  H138  1  0.80610000  0.07450000  0.55930000  1.0 0.081387713
H  H139  1  0.81000000  0.04870000  0.66990000  1.0 0.081387713
H  H140  1  0.84210000  0.97450000  0.64870000  1.0 0.0919619785
H  H141  1  0.72400000  0.97100000  0.71520000  1.0 0.1891138548
H  H142  1  0.67300000  0.06900000  0.58400000  1.0 0.0720290052
H  H143  1  0.60600000  0.03200000  0.61700000  1.0 0.1220771423
H  H144  1  0.52900000  0.09500000  0.43400000  1.0 0.1142881227
H  H145  1  0.81620000  0.08380000  0.52570000  1.0 0.0919619785
H  H146  1  0.85440000  0.05710000  0.59270000  1.0 0.0985955385
H  H147  1  0.70760000  0.04800000  0.56300000  1.0 0.0720290052
H  H148  1  0.74190000  0.07000000  0.63300000  1.0 0.1142881227
H  H149  1  0.76000000  0.94700000  0.65900000  1.0 0.1384123847
H  H150  1  0.62000000  0.83100000  0.51500000  1.0 0.0985955385
H  H151  1  0.68500000  0.83300000  0.46500000  1.0 0.1384123847
H  H152  1  0.52700000  0.90400000  0.34300000  1.0 0.1479229791
H  H153  1  0.59130000  0.31790000  0.94620000  1.0 0.1384123847
H  H154  1  0.37310000  0.30370000  0.94270000  1.0 0.1384123847
H  H155  1  0.48900000  0.25250000  0.77080000  1.0 0.0985955385
H  H156  1  0.51940000  0.24340000  0.05350000  1.0 0.0985955385
H  H157  1  0.57450000  0.30610000  0.05930000  1.0 0.081387713
H  H158  1  0.54870000  0.31000000  0.16990000  1.0 0.081387713
H  H159  1  0.47450000  0.34210000  0.14870000  1.0 0.0919619785
H  H160  1  0.47100000  0.22400000  0.21520000  1.0 0.1891138548
H  H161  1  0.56900000  0.17300000  0.08400000  1.0 0.0720290052
H  H162  1  0.53200000  0.10600000  0.11700000  1.0 0.1220771423
H  H163  1  0.59500000  0.02900000  0.93400000  1.0 0.1142881227
H  H164  1  0.58380000  0.31620000  0.02570000  1.0 0.0919619785
H  H165  1  0.55710000  0.35440000  0.09270000  1.0 0.0985955385
H  H166  1  0.54800000  0.20760000  0.06300000  1.0 0.0720290052
H  H167  1  0.57000000  0.24190000  0.13300000  1.0 0.1142881227
H  H168  1  0.44700000  0.26000000  0.15900000  1.0 0.1384123847
H  H169  1  0.33100000  0.12000000  0.01500000  1.0 0.0985955385
H  H170  1  0.33300000  0.18500000  0.96500000  1.0 0.1384123847
H  H171  1  0.40400000  0.02700000  0.84300000  1.0 0.1479229791
H  H172  1  0.40870000  0.68210000  0.94620000  1.0 0.1384123847
H  H173  1  0.62690000  0.69630000  0.94270000  1.0 0.1384123847
H  H174  1  0.51100000  0.74750000  0.77080000  1.0 0.0985955385
H  H175  1  0.48060000  0.75660000  0.05350000  1.0 0.0985955385
H  H176  1  0.42550000  0.69390000  0.05930000  1.0 0.081387713
H  H177  1  0.45130000  0.69000000  0.16990000  1.0 0.081387713
H  H178  1  0.52550000  0.65790000  0.14870000  1.0 0.0919619785
H  H179  1  0.52900000  0.77600000  0.21520000  1.0 0.1891138548
H  H180  1  0.43100000  0.82700000  0.08400000  1.0 0.0720290052
H  H181  1  0.46800000  0.89400000  0.11700000  1.0 0.1220771423
H  H182  1  0.40500000  0.97100000  0.93400000  1.0 0.1142881227
H  H183  1  0.41620000  0.68380000  0.02570000  1.0 0.0919619785
H  H184  1  0.44290000  0.64560000  0.09270000  1.0 0.0985955385
H  H185  1  0.45200000  0.79240000  0.06300000  1.0 0.0720290052
H  H186  1  0.43000000  0.75810000  0.13300000  1.0 0.1142881227
H  H187  1  0.55300000  0.74000000  0.15900000  1.0 0.1384123847
H  H188  1  0.66900000  0.88000000  0.01500000  1.0 0.0985955385
H  H189  1  0.66700000  0.81500000  0.96500000  1.0 0.1384123847
H  H190  1  0.59600000  0.97300000  0.84300000  1.0 0.1479229791
H  H191  1  0.18210000  0.09130000  0.94620000  1.0 0.1384123847
H  H192  1  0.19630000  0.87310000  0.94270000  1.0 0.1384123847
H  H193  1  0.24750000  0.98900000  0.77080000  1.0 0.0985955385
H  H194  1  0.25660000  0.01940000  0.05350000  1.0 0.0985955385
H  H195  1  0.19390000  0.07450000  0.05930000  1.0 0.081387713
H  H196  1  0.19000000  0.04870000  0.16990000  1.0 0.081387713
H  H197  1  0.15790000  0.97450000  0.14870000  1.0 0.0919619785
H  H198  1  0.27600000  0.97100000  0.21520000  1.0 0.1891138548
H  H199  1  0.32700000  0.06900000  0.08400000  1.0 0.0720290052
H  H200  1  0.39400000  0.03200000  0.11700000  1.0 0.1220771423
H  H201  1  0.47100000  0.09500000  0.93400000  1.0 0.1142881227
H  H202  1  0.18380000  0.08380000  0.02570000  1.0 0.0919619785
H  H203  1  0.14560000  0.05710000  0.09270000  1.0 0.0985955385
H  H204  1  0.29240000  0.04800000  0.06300000  1.0 0.0720290052
H  H205  1  0.25810000  0.07000000  0.13300000  1.0 0.1142881227
H  H206  1  0.24000000  0.94700000  0.15900000  1.0 0.1384123847
H  H207  1  0.38000000  0.83100000  0.01500000  1.0 0.0985955385
H  H208  1  0.31500000  0.83300000  0.96500000  1.0 0.1384123847
H  H209  1  0.47300000  0.90400000  0.84300000  1.0 0.1479229791
H  H210  1  0.81790000  0.90870000  0.94620000  1.0 0.1384123847
H  H211  1  0.80370000  0.12690000  0.94270000  1.0 0.1384123847
H  H212  1  0.75250000  0.01100000  0.77080000  1.0 0.0985955385
H  H213  1  0.74340000  0.98060000  0.05350000  1.0 0.0985955385
H  H214  1  0.80610000  0.92550000  0.05930000  1.0 0.081387713
H  H215  1  0.81000000  0.95130000  0.16990000  1.0 0.081387713
H  H216  1  0.84210000  0.02550000  0.14870000  1.0 0.0919619785
H  H217  1  0.72400000  0.02900000  0.21520000  1.0 0.1891138548
H  H218  1  0.67300000  0.93100000  0.08400000  1.0 0.0720290052
H  H219  1  0.60600000  0.96800000  0.11700000  1.0 0.1220771423
H  H220  1  0.52900000  0.90500000  0.93400000  1.0 0.1142881227
H  H221  1  0.81620000  0.91620000  0.02570000  1.0 0.0919619785
H  H222  1  0.85440000  0.94290000  0.09270000  1.0 0.0985955385
H  H223  1  0.70760000  0.95200000  0.06300000  1.0 0.0720290052
H  H224  1  0.74190000  0.93000000  0.13300000  1.0 0.1142881227
H  H225  1  0.76000000  0.05300000  0.15900000  1.0 0.1384123847
H  H226  1  0.62000000  0.16900000  0.01500000  1.0 0.0985955385
H  H227  1  0.68500000  0.16700000  0.96500000  1.0 0.1384123847
H  H228  1  0.52700000  0.09600000  0.84300000  1.0 0.1479229791
H  H229  1  0.90870000  0.81790000  0.55380000  1.0 0.1384123847
H  H230  1  0.12690000  0.80370000  0.55730000  1.0 0.1384123847
H  H231  1  0.01100000  0.75250000  0.72920000  1.0 0.0985955385
H  H232  1  0.98060000  0.74340000  0.44650000  1.0 0.0985955385
H  H233  1  0.92550000  0.80610000  0.44070000  1.0 0.081387713
H  H234  1  0.95130000  0.81000000  0.33010000  1.0 0.081387713
H  H235  1  0.02550000  0.84210000  0.35130000  1.0 0.0919619785
H  H236  1  0.02900000  0.72400000  0.28480000  1.0 0.1891138548
H  H237  1  0.93100000  0.67300000  0.41600000  1.0 0.0720290052
H  H238  1  0.96800000  0.60600000  0.38300000  1.0 0.1220771423
H  H239  1  0.90500000  0.52900000  0.56600000  1.0 0.1142881227
H  H240  1  0.91620000  0.81620000  0.47430000  1.0 0.0919619785
H  H241  1  0.94290000  0.85440000  0.40730000  1.0 0.0985955385
H  H242  1  0.95200000  0.70760000  0.43700000  1.0 0.0720290052
H  H243  1  0.93000000  0.74190000  0.36700000  1.0 0.1142881227
H  H244  1  0.05300000  0.76000000  0.34100000  1.0 0.1384123847
H  H245  1  0.16900000  0.62000000  0.48500000  1.0 0.0985955385
H  H246  1  0.16700000  0.68500000  0.53500000  1.0 0.1384123847
H  H247  1  0.09600000  0.52700000  0.65700000  1.0 0.1479229791
H  H248  1  0.09130000  0.18210000  0.55380000  1.0 0.1384123847
H  H249  1  0.87310000  0.19630000  0.55730000  1.0 0.1384123847
H  H250  1  0.98900000  0.24750000  0.72920000  1.0 0.0985955385
H  H251  1  0.01940000  0.25660000  0.44650000  1.0 0.0985955385
H  H252  1  0.07450000  0.19390000  0.44070000  1.0 0.081387713
H  H253  1  0.04870000  0.19000000  0.33010000  1.0 0.081387713
H  H254  1  0.97450000  0.15790000  0.35130000  1.0 0.0919619785
H  H255  1  0.97100000  0.27600000  0.28480000  1.0 0.1891138548
H  H256  1  0.06900000  0.32700000  0.41600000  1.0 0.0720290052
H  H257  1  0.03200000  0.39400000  0.38300000  1.0 0.1220771423
H  H258  1  0.09500000  0.47100000  0.56600000  1.0 0.1142881227
H  H259  1  0.08380000  0.18380000  0.47430000  1.0 0.0919619785
H  H260  1  0.05710000  0.14560000  0.40730000  1.0 0.0985955385
H  H261  1  0.04800000  0.29240000  0.43700000  1.0 0.0720290052
H  H262  1  0.07000000  0.25810000  0.36700000  1.0 0.1142881227
H  H263  1  0.94700000  0.24000000  0.34100000  1.0 0.1384123847
H  H264  1  0.83100000  0.38000000  0.48500000  1.0 0.0985955385
H  H265  1  0.83300000  0.31500000  0.53500000  1.0 0.1384123847
H  H266  1  0.90400000  0.47300000  0.65700000  1.0 0.1479229791
H  H267  1  0.31790000  0.59130000  0.55380000  1.0 0.1384123847
H  H268  1  0.30370000  0.37310000  0.55730000  1.0 0.1384123847
H  H269  1  0.25250000  0.48900000  0.72920000  1.0 0.0985955385
H  H270  1  0.24340000  0.51940000  0.44650000  1.0 0.0985955385
H  H271  1  0.30610000  0.57450000  0.44070000  1.0 0.081387713
H  H272  1  0.31000000  0.54870000  0.33010000  1.0 0.081387713
H  H273  1  0.34210000  0.47450000  0.35130000  1.0 0.0919619785
H  H274  1  0.22400000  0.47100000  0.28480000  1.0 0.1891138548
H  H275  1  0.17300000  0.56900000  0.41600000  1.0 0.0720290052
H  H276  1  0.10600000  0.53200000  0.38300000  1.0 0.1220771423
H  H277  1  0.02900000  0.59500000  0.56600000  1.0 0.1142881227
H  H278  1  0.31620000  0.58380000  0.47430000  1.0 0.0919619785
H  H279  1  0.35440000  0.55710000  0.40730000  1.0 0.0985955385
H  H280  1  0.20760000  0.54800000  0.43700000  1.0 0.0720290052
H  H281  1  0.24190000  0.57000000  0.36700000  1.0 0.1142881227
H  H282  1  0.26000000  0.44700000  0.34100000  1.0 0.1384123847
H  H283  1  0.12000000  0.33100000  0.48500000  1.0 0.0985955385
H  H284  1  0.18500000  0.33300000  0.53500000  1.0 0.1384123847
H  H285  1  0.02700000  0.40400000  0.65700000  1.0 0.1479229791
H  H286  1  0.68210000  0.40870000  0.55380000  1.0 0.1384123847
H  H287  1  0.69630000  0.62690000  0.55730000  1.0 0.1384123847
H  H288  1  0.74750000  0.51100000  0.72920000  1.0 0.0985955385
H  H289  1  0.75660000  0.48060000  0.44650000  1.0 0.0985955385
H  H290  1  0.69390000  0.42550000  0.44070000  1.0 0.081387713
H  H291  1  0.69000000  0.45130000  0.33010000  1.0 0.081387713
H  H292  1  0.65790000  0.52550000  0.35130000  1.0 0.0919619785
H  H293  1  0.77600000  0.52900000  0.28480000  1.0 0.1891138548
H  H294  1  0.82700000  0.43100000  0.41600000  1.0 0.0720290052
H  H295  1  0.89400000  0.46800000  0.38300000  1.0 0.1220771423
H  H296  1  0.97100000  0.40500000  0.56600000  1.0 0.1142881227
H  H297  1  0.68380000  0.41620000  0.47430000  1.0 0.0919619785
H  H298  1  0.64560000  0.44290000  0.40730000  1.0 0.0985955385
H  H299  1  0.79240000  0.45200000  0.43700000  1.0 0.0720290052
H  H300  1  0.75810000  0.43000000  0.36700000  1.0 0.1142881227
H  H301  1  0.74000000  0.55300000  0.34100000  1.0 0.1384123847
H  H302  1  0.88000000  0.66900000  0.48500000  1.0 0.0985955385
H  H303  1  0.81500000  0.66700000  0.53500000  1.0 0.1384123847
H  H304  1  0.97300000  0.59600000  0.65700000  1.0 0.1479229791
C  C1  1  0.94940000  0.21600000  0.14680000  1.0 -0.026443977
C  C2  1  0.95210000  0.19290000  0.07800000  1.0 -0.2601105712
C  C3  1  0.01820000  0.18550000  0.04470000  1.0 0.0585670506
C  C4  1  0.08170000  0.20130000  0.08010000  1.0 -0.273859667
C  C5  1  0.07900000  0.22440000  0.14880000  1.0 -0.0419103299
C  C6  1  0.01290000  0.23170000  0.18220000  1.0 -0.0785465397
C  C7  1  0.88320000  0.22330000  0.18010000  1.0 0.5086083677
C  C8  1  0.14250000  0.24020000  0.18420000  1.0 0.4948364761
C  C9  1  0.97430000  0.20750000  0.93370000  1.0 -0.0198120427
C  C10  1  0.99400000  0.19800000  0.85630000  1.0 -0.026443977
C  C11  1  0.06800000  0.31200000  0.87860000  1.0 0.2992264279
C  C12  1  0.96500000  0.36400000  0.92400000  1.0 -0.2527848686
C  C13  1  0.94000000  0.40800000  0.98200000  1.0 -0.0995059538
C  C14  1  0.92000000  0.44400000  0.03000000  1.0 -0.0670731585
C  C15  1  0.95410000  0.18120000  0.94110000  1.0 -0.0198120427
C  C16  1  0.96250000  0.25500000  0.90520000  1.0 -0.0785465397
C  C17  1  0.08900000  0.30900000  0.91700000  1.0 0.3203012425
C  C18  1  0.14000000  0.35500000  0.01800000  1.0 -0.143994399
C  C19  1  0.12200000  0.40300000  0.07500000  1.0 0.0919619785
C  C20  1  0.10800000  0.44300000  0.12200000  1.0 -0.364259455
C  C21  1  0.05060000  0.78400000  0.14680000  1.0 -0.026443977
C  C22  1  0.04790000  0.80710000  0.07800000  1.0 -0.2601105712
C  C23  1  0.98180000  0.81450000  0.04470000  1.0 0.0585670506
C  C24  1  0.91830000  0.79870000  0.08010000  1.0 -0.273859667
C  C25  1  0.92100000  0.77560000  0.14880000  1.0 -0.0419103299
C  C26  1  0.98710000  0.76830000  0.18220000  1.0 -0.0785465397
C  C27  1  0.11680000  0.77670000  0.18010000  1.0 0.5086083677
C  C28  1  0.85750000  0.75980000  0.18420000  1.0 0.4948364761
C  C29  1  0.02570000  0.79250000  0.93370000  1.0 -0.0198120427
C  C30  1  0.00600000  0.80200000  0.85630000  1.0 -0.026443977
C  C31  1  0.93200000  0.68800000  0.87860000  1.0 0.2992264279
C  C32  1  0.03500000  0.63600000  0.92400000  1.0 -0.2527848686
C  C33  1  0.06000000  0.59200000  0.98200000  1.0 -0.0995059538
C  C34  1  0.08000000  0.55600000  0.03000000  1.0 -0.0670731585
C  C35  1  0.04590000  0.81880000  0.94110000  1.0 -0.0198120427
C  C36  1  0.03750000  0.74500000  0.90520000  1.0 -0.0785465397
C  C37  1  0.91100000  0.69100000  0.91700000  1.0 0.3203012425
C  C38  1  0.86000000  0.64500000  0.01800000  1.0 -0.143994399
C  C39  1  0.87800000  0.59700000  0.07500000  1.0 0.0919619785
C  C40  1  0.89200000  0.55700000  0.12200000  1.0 -0.364259455
C  C41  1  0.28400000  0.44940000  0.14680000  1.0 -0.026443977
C  C42  1  0.30710000  0.45210000  0.07800000  1.0 -0.2601105712
C  C43  1  0.31450000  0.51820000  0.04470000  1.0 0.0585670506
C  C44  1  0.29870000  0.58170000  0.08010000  1.0 -0.273859667
C  C45  1  0.27560000  0.57900000  0.14880000  1.0 -0.0419103299
C  C46  1  0.26830000  0.51290000  0.18220000  1.0 -0.0785465397
C  C47  1  0.27670000  0.38320000  0.18010000  1.0 0.5086083677
C  C48  1  0.25980000  0.64250000  0.18420000  1.0 0.4948364761
C  C49  1  0.29250000  0.47430000  0.93370000  1.0 -0.0198120427
C  C50  1  0.30200000  0.49400000  0.85630000  1.0 -0.026443977
C  C51  1  0.18800000  0.56800000  0.87860000  1.0 0.2992264279
C  C52  1  0.13600000  0.46500000  0.92400000  1.0 -0.2527848686
C  C53  1  0.09200000  0.44000000  0.98200000  1.0 -0.0995059538
C  C54  1  0.05600000  0.42000000  0.03000000  1.0 -0.0670731585
C  C55  1  0.31880000  0.45410000  0.94110000  1.0 -0.0198120427
C  C56  1  0.24500000  0.46250000  0.90520000  1.0 -0.0785465397
C  C57  1  0.19100000  0.58900000  0.91700000  1.0 0.3203012425
C  C58  1  0.14500000  0.64000000  0.01800000  1.0 -0.143994399
C  C59  1  0.09700000  0.62200000  0.07500000  1.0 0.0919619785
C  C60  1  0.05700000  0.60800000  0.12200000  1.0 -0.364259455
C  C61  1  0.71600000  0.55060000  0.14680000  1.0 -0.026443977
C  C62  1  0.69290000  0.54790000  0.07800000  1.0 -0.2601105712
C  C63  1  0.68550000  0.48180000  0.04470000  1.0 0.0585670506
C  C64  1  0.70130000  0.41830000  0.08010000  1.0 -0.273859667
C  C65  1  0.72440000  0.42100000  0.14880000  1.0 -0.0419103299
C  C66  1  0.73170000  0.48710000  0.18220000  1.0 -0.0785465397
C  C67  1  0.72330000  0.61680000  0.18010000  1.0 0.5086083677
C  C68  1  0.74020000  0.35750000  0.18420000  1.0 0.4948364761
C  C69  1  0.70750000  0.52570000  0.93370000  1.0 -0.0198120427
C  C70  1  0.69800000  0.50600000  0.85630000  1.0 -0.026443977
C  C71  1  0.81200000  0.43200000  0.87860000  1.0 0.2992264279
C  C72  1  0.86400000  0.53500000  0.92400000  1.0 -0.2527848686
C  C73  1  0.90800000  0.56000000  0.98200000  1.0 -0.0995059538
C  C74  1  0.94400000  0.58000000  0.03000000  1.0 -0.0670731585
C  C75  1  0.68120000  0.54590000  0.94110000  1.0 -0.0198120427
C  C76  1  0.75500000  0.53750000  0.90520000  1.0 -0.0785465397
C  C77  1  0.80900000  0.41100000  0.91700000  1.0 0.3203012425
C  C78  1  0.85500000  0.36000000  0.01800000  1.0 -0.143994399
C  C79  1  0.90300000  0.37800000  0.07500000  1.0 0.0919619785
C  C80  1  0.94300000  0.39200000  0.12200000  1.0 -0.364259455
C  C81  1  0.55060000  0.71600000  0.35320000  1.0 -0.026443977
C  C82  1  0.54790000  0.69290000  0.42200000  1.0 -0.2601105712
C  C83  1  0.48180000  0.68550000  0.45530000  1.0 0.0585670506
C  C84  1  0.41830000  0.70130000  0.41990000  1.0 -0.273859667
C  C85  1  0.42100000  0.72440000  0.35120000  1.0 -0.0419103299
C  C86  1  0.48710000  0.73170000  0.31780000  1.0 -0.0785465397
C  C87  1  0.61680000  0.72330000  0.31990000  1.0 0.5086083677
C  C88  1  0.35750000  0.74020000  0.31580000  1.0 0.4948364761
C  C89  1  0.52570000  0.70750000  0.56630000  1.0 -0.0198120427
C  C90  1  0.50600000  0.69800000  0.64370000  1.0 -0.026443977
C  C91  1  0.43200000  0.81200000  0.62140000  1.0 0.2992264279
C  C92  1  0.53500000  0.86400000  0.57600000  1.0 -0.2527848686
C  C93  1  0.56000000  0.90800000  0.51800000  1.0 -0.0995059538
C  C94  1  0.58000000  0.94400000  0.47000000  1.0 -0.0670731585
C  C95  1  0.54590000  0.68120000  0.55890000  1.0 -0.0198120427
C  C96  1  0.53750000  0.75500000  0.59480000  1.0 -0.0785465397
C  C97  1  0.41100000  0.80900000  0.58300000  1.0 0.3203012425
C  C98  1  0.36000000  0.85500000  0.48200000  1.0 -0.143994399
C  C99  1  0.37800000  0.90300000  0.42500000  1.0 0.0919619785
C  C100  1  0.39200000  0.94300000  0.37800000  1.0 -0.3667800112
C  C101  1  0.44940000  0.28400000  0.35320000  1.0 -0.026443977
C  C102  1  0.45210000  0.30710000  0.42200000  1.0 -0.2601105712
C  C103  1  0.51820000  0.31450000  0.45530000  1.0 0.0585670506
C  C104  1  0.58170000  0.29870000  0.41990000  1.0 -0.273859667
C  C105  1  0.57900000  0.27560000  0.35120000  1.0 -0.0419103299
C  C106  1  0.51290000  0.26830000  0.31780000  1.0 -0.0785465397
C  C107  1  0.38320000  0.27670000  0.31990000  1.0 0.5086083677
C  C108  1  0.64250000  0.25980000  0.31580000  1.0 0.4948364761
C  C109  1  0.47430000  0.29250000  0.56630000  1.0 -0.0198120427
C  C110  1  0.49400000  0.30200000  0.64370000  1.0 -0.026443977
C  C111  1  0.56800000  0.18800000  0.62140000  1.0 0.2992264279
C  C112  1  0.46500000  0.13600000  0.57600000  1.0 -0.2527848686
C  C113  1  0.44000000  0.09200000  0.51800000  1.0 -0.0995059538
C  C114  1  0.42000000  0.05600000  0.47000000  1.0 -0.0670731585
C  C115  1  0.45410000  0.31880000  0.55890000  1.0 -0.0198120427
C  C116  1  0.46250000  0.24500000  0.59480000  1.0 -0.0785465397
C  C117  1  0.58900000  0.19100000  0.58300000  1.0 0.3203012425
C  C118  1  0.64000000  0.14500000  0.48200000  1.0 -0.143994399
C  C119  1  0.62200000  0.09700000  0.42500000  1.0 0.0919619785
C  C120  1  0.60800000  0.05700000  0.37800000  1.0 -0.3667800112
C  C121  1  0.21600000  0.94940000  0.35320000  1.0 -0.026443977
C  C122  1  0.19290000  0.95210000  0.42200000  1.0 -0.2601105712
C  C123  1  0.18550000  0.01820000  0.45530000  1.0 0.0585670506
C  C124  1  0.20130000  0.08170000  0.41990000  1.0 -0.273859667
C  C125  1  0.22440000  0.07900000  0.35120000  1.0 -0.0419103299
C  C126  1  0.23170000  0.01290000  0.31780000  1.0 -0.0785465397
C  C127  1  0.22330000  0.88320000  0.31990000  1.0 0.5086083677
C  C128  1  0.24020000  0.14250000  0.31580000  1.0 0.4948364761
C  C129  1  0.20750000  0.97430000  0.56630000  1.0 -0.0198120427
C  C130  1  0.19800000  0.99400000  0.64370000  1.0 -0.026443977
C  C131  1  0.31200000  0.06800000  0.62140000  1.0 0.2992264279
C  C132  1  0.36400000  0.96500000  0.57600000  1.0 -0.2527848686
C  C133  1  0.40800000  0.94000000  0.51800000  1.0 -0.0995059538
C  C134  1  0.44400000  0.92000000  0.47000000  1.0 -0.0670731585
C  C135  1  0.18120000  0.95410000  0.55890000  1.0 -0.0198120427
C  C136  1  0.25500000  0.96250000  0.59480000  1.0 -0.0785465397
C  C137  1  0.30900000  0.08900000  0.58300000  1.0 0.3203012425
C  C138  1  0.35500000  0.14000000  0.48200000  1.0 -0.143994399
C  C139  1  0.40300000  0.12200000  0.42500000  1.0 0.0919619785
C  C140  1  0.44300000  0.10800000  0.37800000  1.0 -0.3667800112
C  C141  1  0.78400000  0.05060000  0.35320000  1.0 -0.026443977
C  C142  1  0.80710000  0.04790000  0.42200000  1.0 -0.2601105712
C  C143  1  0.81450000  0.98180000  0.45530000  1.0 0.0585670506
C  C144  1  0.79870000  0.91830000  0.41990000  1.0 -0.273859667
C  C145  1  0.77560000  0.92100000  0.35120000  1.0 -0.0419103299
C  C146  1  0.76830000  0.98710000  0.31780000  1.0 -0.0785465397
C  C147  1  0.77670000  0.11680000  0.31990000  1.0 0.5086083677
C  C148  1  0.75980000  0.85750000  0.31580000  1.0 0.4948364761
C  C149  1  0.79250000  0.02570000  0.56630000  1.0 -0.0198120427
C  C150  1  0.80200000  0.00600000  0.64370000  1.0 -0.026443977
C  C151  1  0.68800000  0.93200000  0.62140000  1.0 0.2992264279
C  C152  1  0.63600000  0.03500000  0.57600000  1.0 -0.2527848686
C  C153  1  0.59200000  0.06000000  0.51800000  1.0 -0.0995059538
C  C154  1  0.55600000  0.08000000  0.47000000  1.0 -0.0670731585
C  C155  1  0.81880000  0.04590000  0.55890000  1.0 -0.0198120427
C  C156  1  0.74500000  0.03750000  0.59480000  1.0 -0.0785465397
C  C157  1  0.69100000  0.91100000  0.58300000  1.0 0.3203012425
C  C158  1  0.64500000  0.86000000  0.48200000  1.0 -0.143994399
C  C159  1  0.59700000  0.87800000  0.42500000  1.0 0.0919619785
C  C160  1  0.55700000  0.89200000  0.37800000  1.0 -0.3667800112
C  C161  1  0.55060000  0.28400000  0.85320000  1.0 -0.026443977
C  C162  1  0.54790000  0.30710000  0.92200000  1.0 -0.2601105712
C  C163  1  0.48180000  0.31450000  0.95530000  1.0 0.0585670506
C  C164  1  0.41830000  0.29870000  0.91990000  1.0 -0.273859667
C  C165  1  0.42100000  0.27560000  0.85120000  1.0 -0.0419103299
C  C166  1  0.48710000  0.26830000  0.81780000  1.0 -0.0785465397
C  C167  1  0.61680000  0.27670000  0.81990000  1.0 0.5086083677
C  C168  1  0.35750000  0.25980000  0.81580000  1.0 0.4948364761
C  C169  1  0.52570000  0.29250000  0.06630000  1.0 -0.0198120427
C  C170  1  0.50600000  0.30200000  0.14370000  1.0 -0.026443977
C  C171  1  0.43200000  0.18800000  0.12140000  1.0 0.2992264279
C  C172  1  0.53500000  0.13600000  0.07600000  1.0 -0.2527848686
C  C173  1  0.56000000  0.09200000  0.01800000  1.0 -0.0995059538
C  C174  1  0.58000000  0.05600000  0.97000000  1.0 -0.0670731585
C  C175  1  0.54590000  0.31880000  0.05890000  1.0 -0.0198120427
C  C176  1  0.53750000  0.24500000  0.09480000  1.0 -0.0785465397
C  C177  1  0.41100000  0.19100000  0.08300000  1.0 0.3203012425
C  C178  1  0.36000000  0.14500000  0.98200000  1.0 -0.143994399
C  C179  1  0.37800000  0.09700000  0.92500000  1.0 0.0919619785
C  C180  1  0.39200000  0.05700000  0.87800000  1.0 -0.3667800112
C  C181  1  0.44940000  0.71600000  0.85320000  1.0 -0.026443977
C  C182  1  0.45210000  0.69290000  0.92200000  1.0 -0.2601105712
C  C183  1  0.51820000  0.68550000  0.95530000  1.0 0.0585670506
C  C184  1  0.58170000  0.70130000  0.91990000  1.0 -0.2755174074
C  C185  1  0.57900000  0.72440000  0.85120000  1.0 -0.0419103299
C  C186  1  0.51290000  0.73170000  0.81780000  1.0 -0.0785465397
C  C187  1  0.38320000  0.72330000  0.81990000  1.0 0.5086083677
C  C188  1  0.64250000  0.74020000  0.81580000  1.0 0.4948364761
C  C189  1  0.47430000  0.70750000  0.06630000  1.0 -0.0198120427
C  C190  1  0.49400000  0.69800000  0.14370000  1.0 -0.026443977
C  C191  1  0.56800000  0.81200000  0.12140000  1.0 0.2992264279
C  C192  1  0.46500000  0.86400000  0.07600000  1.0 -0.2527848686
C  C193  1  0.44000000  0.90800000  0.01800000  1.0 -0.0995059538
C  C194  1  0.42000000  0.94400000  0.97000000  1.0 -0.0670731585
C  C195  1  0.45410000  0.68120000  0.05890000  1.0 -0.0198120427
C  C196  1  0.46250000  0.75500000  0.09480000  1.0 -0.0785465397
C  C197  1  0.58900000  0.80900000  0.08300000  1.0 0.3203012425
C  C198  1  0.64000000  0.85500000  0.98200000  1.0 -0.143994399
C  C199  1  0.62200000  0.90300000  0.92500000  1.0 0.0919619785
C  C200  1  0.60800000  0.94300000  0.87800000  1.0 -0.3667800112
C  C201  1  0.21600000  0.05060000  0.85320000  1.0 -0.026443977
C  C202  1  0.19290000  0.04790000  0.92200000  1.0 -0.2601105712
C  C203  1  0.18550000  0.98180000  0.95530000  1.0 0.0585670506
C  C204  1  0.20130000  0.91830000  0.91990000  1.0 -0.2755174074
C  C205  1  0.22440000  0.92100000  0.85120000  1.0 -0.0419103299
C  C206  1  0.23170000  0.98710000  0.81780000  1.0 -0.0785465397
C  C207  1  0.22330000  0.11680000  0.81990000  1.0 0.5086083677
C  C208  1  0.24020000  0.85750000  0.81580000  1.0 0.4948364761
C  C209  1  0.20750000  0.02570000  0.06630000  1.0 -0.0198120427
C  C210  1  0.19800000  0.00600000  0.14370000  1.0 -0.026443977
C  C211  1  0.31200000  0.93200000  0.12140000  1.0 0.2992264279
C  C212  1  0.36400000  0.03500000  0.07600000  1.0 -0.2527848686
C  C213  1  0.40800000  0.06000000  0.01800000  1.0 -0.0995059538
C  C214  1  0.44400000  0.08000000  0.97000000  1.0 -0.0670731585
C  C215  1  0.18120000  0.04590000  0.05890000  1.0 -0.0198120427
C  C216  1  0.25500000  0.03750000  0.09480000  1.0 -0.0785465397
C  C217  1  0.30900000  0.91100000  0.08300000  1.0 0.3203012425
C  C218  1  0.35500000  0.86000000  0.98200000  1.0 -0.143994399
C  C219  1  0.40300000  0.87800000  0.92500000  1.0 0.0919619785
C  C220  1  0.44300000  0.89200000  0.87800000  1.0 -0.3667800112
C  C221  1  0.78400000  0.94940000  0.85320000  1.0 -0.026443977
C  C222  1  0.80710000  0.95210000  0.92200000  1.0 -0.2601105712
C  C223  1  0.81450000  0.01820000  0.95530000  1.0 0.0585670506
C  C224  1  0.79870000  0.08170000  0.91990000  1.0 -0.273859667
C  C225  1  0.77560000  0.07900000  0.85120000  1.0 -0.0419103299
C  C226  1  0.76830000  0.01290000  0.81780000  1.0 -0.0785465397
C  C227  1  0.77670000  0.88320000  0.81990000  1.0 0.5086083677
C  C228  1  0.75980000  0.14250000  0.81580000  1.0 0.4948364761
C  C229  1  0.79250000  0.97430000  0.06630000  1.0 -0.0198120427
C  C230  1  0.80200000  0.99400000  0.14370000  1.0 -0.026443977
C  C231  1  0.68800000  0.06800000  0.12140000  1.0 0.2992264279
C  C232  1  0.63600000  0.96500000  0.07600000  1.0 -0.2527848686
C  C233  1  0.59200000  0.94000000  0.01800000  1.0 -0.0995059538
C  C234  1  0.55600000  0.92000000  0.97000000  1.0 -0.0670731585
C  C235  1  0.81880000  0.95410000  0.05890000  1.0 -0.0198120427
C  C236  1  0.74500000  0.96250000  0.09480000  1.0 -0.0785465397
C  C237  1  0.69100000  0.08900000  0.08300000  1.0 0.3203012425
C  C238  1  0.64500000  0.14000000  0.98200000  1.0 -0.143994399
C  C239  1  0.59700000  0.12200000  0.92500000  1.0 0.0919619785
C  C240  1  0.55700000  0.10800000  0.87800000  1.0 -0.3667800112
C  C241  1  0.94940000  0.78400000  0.64680000  1.0 -0.026443977
C  C242  1  0.95210000  0.80710000  0.57800000  1.0 -0.2601105712
C  C243  1  0.01820000  0.81450000  0.54470000  1.0 0.0585670506
C  C244  1  0.08170000  0.79870000  0.58010000  1.0 -0.2755174074
C  C245  1  0.07900000  0.77560000  0.64880000  1.0 -0.0419103299
C  C246  1  0.01290000  0.76830000  0.68220000  1.0 -0.0785465397
C  C247  1  0.88320000  0.77670000  0.68010000  1.0 0.5086083677
C  C248  1  0.14250000  0.75980000  0.68420000  1.0 0.4948364761
C  C249  1  0.97430000  0.79250000  0.43370000  1.0 -0.0198120427
C  C250  1  0.99400000  0.80200000  0.35630000  1.0 -0.026443977
C  C251  1  0.06800000  0.68800000  0.37860000  1.0 0.2992264279
C  C252  1  0.96500000  0.63600000  0.42400000  1.0 -0.2527848686
C  C253  1  0.94000000  0.59200000  0.48200000  1.0 -0.0995059538
C  C254  1  0.92000000  0.55600000  0.53000000  1.0 -0.0670731585
C  C255  1  0.95410000  0.81880000  0.44110000  1.0 -0.0198120427
C  C256  1  0.96250000  0.74500000  0.40520000  1.0 -0.0785465397
C  C257  1  0.08900000  0.69100000  0.41700000  1.0 0.3203012425
C  C258  1  0.14000000  0.64500000  0.51800000  1.0 -0.143994399
C  C259  1  0.12200000  0.59700000  0.57500000  1.0 0.0919619785
C  C260  1  0.10800000  0.55700000  0.62200000  1.0 -0.3667800112
C  C261  1  0.05060000  0.21600000  0.64680000  1.0 -0.026443977
C  C262  1  0.04790000  0.19290000  0.57800000  1.0 -0.2601105712
C  C263  1  0.98180000  0.18550000  0.54470000  1.0 0.0585670506
C  C264  1  0.91830000  0.20130000  0.58010000  1.0 -0.273859667
C  C265  1  0.92100000  0.22440000  0.64880000  1.0 -0.0419103299
C  C266  1  0.98710000  0.23170000  0.68220000  1.0 -0.0785465397
C  C267  1  0.11680000  0.22330000  0.68010000  1.0 0.5086083677
C  C268  1  0.85750000  0.24020000  0.68420000  1.0 0.4948364761
C  C269  1  0.02570000  0.20750000  0.43370000  1.0 -0.0198120427
C  C270  1  0.00600000  0.19800000  0.35630000  1.0 -0.026443977
C  C271  1  0.93200000  0.31200000  0.37860000  1.0 0.2992264279
C  C272  1  0.03500000  0.36400000  0.42400000  1.0 -0.2527848686
C  C273  1  0.06000000  0.40800000  0.48200000  1.0 -0.0995059538
C  C274  1  0.08000000  0.44400000  0.53000000  1.0 -0.0670731585
C  C275  1  0.04590000  0.18120000  0.44110000  1.0 -0.0198120427
C  C276  1  0.03750000  0.25500000  0.40520000  1.0 -0.0785465397
C  C277  1  0.91100000  0.30900000  0.41700000  1.0 0.3203012425
C  C278  1  0.86000000  0.35500000  0.51800000  1.0 -0.143994399
C  C279  1  0.87800000  0.40300000  0.57500000  1.0 0.0919619785
C  C280  1  0.89200000  0.44300000  0.62200000  1.0 -0.3667800112
C  C281  1  0.28400000  0.55060000  0.64680000  1.0 -0.026443977
C  C282  1  0.30710000  0.54790000  0.57800000  1.0 -0.2601105712
C  C283  1  0.31450000  0.48180000  0.54470000  1.0 0.0585670506
C  C284  1  0.29870000  0.41830000  0.58010000  1.0 -0.273859667
C  C285  1  0.27560000  0.42100000  0.64880000  1.0 -0.0419103299
C  C286  1  0.26830000  0.48710000  0.68220000  1.0 -0.0785465397
C  C287  1  0.27670000  0.61680000  0.68010000  1.0 0.5086083677
C  C288  1  0.25980000  0.35750000  0.68420000  1.0 0.4948364761
C  C289  1  0.29250000  0.52570000  0.43370000  1.0 -0.0198120427
C  C290  1  0.30200000  0.50600000  0.35630000  1.0 -0.026443977
C  C291  1  0.18800000  0.43200000  0.37860000  1.0 0.2992264279
C  C292  1  0.13600000  0.53500000  0.42400000  1.0 -0.2527848686
C  C293  1  0.09200000  0.56000000  0.48200000  1.0 -0.0995059538
C  C294  1  0.05600000  0.58000000  0.53000000  1.0 -0.0670731585
C  C295  1  0.31880000  0.54590000  0.44110000  1.0 -0.0198120427
C  C296  1  0.24500000  0.53750000  0.40520000  1.0 -0.0785465397
C  C297  1  0.19100000  0.41100000  0.41700000  1.0 0.3203012425
C  C298  1  0.14500000  0.36000000  0.51800000  1.0 -0.143994399
C  C299  1  0.09700000  0.37800000  0.57500000  1.0 0.0919619785
C  C300  1  0.05700000  0.39200000  0.62200000  1.0 -0.3667800112
C  C301  1  0.71600000  0.44940000  0.64680000  1.0 -0.026443977
C  C302  1  0.69290000  0.45210000  0.57800000  1.0 -0.2601105712
C  C303  1  0.68550000  0.51820000  0.54470000  1.0 0.0585670506
C  C304  1  0.70130000  0.58170000  0.58010000  1.0 -0.273859667
C  C305  1  0.72440000  0.57900000  0.64880000  1.0 -0.0419103299
C  C306  1  0.73170000  0.51290000  0.68220000  1.0 -0.0785465397
C  C307  1  0.72330000  0.38320000  0.68010000  1.0 0.5086083677
C  C308  1  0.74020000  0.64250000  0.68420000  1.0 0.4948364761
C  C309  1  0.70750000  0.47430000  0.43370000  1.0 -0.0198120427
C  C310  1  0.69800000  0.49400000  0.35630000  1.0 -0.026443977
C  C311  1  0.81200000  0.56800000  0.37860000  1.0 0.2992264279
C  C312  1  0.86400000  0.46500000  0.42400000  1.0 -0.2527848686
C  C313  1  0.90800000  0.44000000  0.48200000  1.0 -0.0995059538
C  C314  1  0.94400000  0.42000000  0.53000000  1.0 -0.0670731585
C  C315  1  0.68120000  0.45410000  0.44110000  1.0 -0.0198120427
C  C316  1  0.75500000  0.46250000  0.40520000  1.0 -0.0785465397
C  C317  1  0.80900000  0.58900000  0.41700000  1.0 0.3203012425
C  C318  1  0.85500000  0.64000000  0.51800000  1.0 -0.143994399
C  C319  1  0.90300000  0.62200000  0.57500000  1.0 0.0919619785
C  C320  1  0.94300000  0.60800000  0.62200000  1.0 -0.3667800112
N  N1  1  0.03100000  0.26490000  0.83030000  1.0 -0.1062307764
N  N2  1  0.03850000  0.26300000  0.87900000  1.0 0.0585670506
N  N3  1  0.96900000  0.73510000  0.83030000  1.0 -0.1062307764
N  N4  1  0.96150000  0.73700000  0.87900000  1.0 0.0585670506
N  N5  1  0.23510000  0.53100000  0.83030000  1.0 -0.1062307764
N  N6  1  0.23700000  0.53850000  0.87900000  1.0 0.0585670506
N  N7  1  0.76490000  0.46900000  0.83030000  1.0 -0.1062307764
N  N8  1  0.76300000  0.46150000  0.87900000  1.0 0.0585670506
N  N9  1  0.46900000  0.76490000  0.66970000  1.0 -0.1062307764
N  N10  1  0.46150000  0.76300000  0.62100000  1.0 0.0585670506
N  N11  1  0.53100000  0.23510000  0.66970000  1.0 -0.1062307764
N  N12  1  0.53850000  0.23700000  0.62100000  1.0 0.0585670506
N  N13  1  0.26490000  0.03100000  0.66970000  1.0 -0.1062307764
N  N14  1  0.26300000  0.03850000  0.62100000  1.0 0.0585670506
N  N15  1  0.73510000  0.96900000  0.66970000  1.0 -0.1062307764
N  N16  1  0.73700000  0.96150000  0.62100000  1.0 0.0585670506
N  N17  1  0.46900000  0.23510000  0.16970000  1.0 -0.0995059538
N  N18  1  0.46150000  0.23700000  0.12100000  1.0 0.0542737845
N  N19  1  0.53100000  0.76490000  0.16970000  1.0 -0.0995059538
N  N20  1  0.53850000  0.76300000  0.12100000  1.0 0.0542737845
N  N21  1  0.26490000  0.96900000  0.16970000  1.0 -0.0995059538
N  N22  1  0.26300000  0.96150000  0.12100000  1.0 0.0542737845
N  N23  1  0.73510000  0.03100000  0.16970000  1.0 -0.0995059538
N  N24  1  0.73700000  0.03850000  0.12100000  1.0 0.0542737845
N  N25  1  0.03100000  0.73510000  0.33030000  1.0 -0.1062307764
N  N26  1  0.03850000  0.73700000  0.37900000  1.0 0.0585670506
N  N27  1  0.96900000  0.26490000  0.33030000  1.0 -0.1062307764
N  N28  1  0.96150000  0.26300000  0.37900000  1.0 0.0585670506
N  N29  1  0.23510000  0.46900000  0.33030000  1.0 -0.1062307764
N  N30  1  0.23700000  0.46150000  0.37900000  1.0 0.0585670506
N  N31  1  0.76490000  0.53100000  0.33030000  1.0 -0.1062307764
N  N32  1  0.76300000  0.53850000  0.37900000  1.0 0.0585670506
O  O1  1  0.82690000  0.20140000  0.15120000  1.0 -0.5082390565
O  O2  1  0.88010000  0.25180000  0.23900000  1.0 -0.5342202331
O  O3  1  0.14000000  0.27140000  0.24190000  1.0 -0.5082390565
O  O4  1  0.20210000  0.22310000  0.15850000  1.0 -0.5082390565
O  O5  1  0.02090000  0.16240000  0.97590000  1.0 -0.2154520821
O  O6  1  0.13100000  0.33200000  0.86500000  1.0 -0.2601105712
O  O7  1  0.03500000  0.33400000  0.94000000  1.0 0.0232401645
O  O8  1  0.14500000  0.33000000  0.88700000  1.0 -0.2527848686
O  O9  1  0.07500000  0.32900000  0.98500000  1.0 -0.05293595
O  O10  1  0.17310000  0.79860000  0.15120000  1.0 -0.5082390565
O  O11  1  0.11990000  0.74820000  0.23900000  1.0 -0.5342202331
O  O12  1  0.86000000  0.72860000  0.24190000  1.0 -0.5082390565
O  O13  1  0.79790000  0.77690000  0.15850000  1.0 -0.5082390565
O  O14  1  0.97910000  0.83760000  0.97590000  1.0 -0.2154520821
O  O15  1  0.86900000  0.66800000  0.86500000  1.0 -0.2601105712
O  O16  1  0.96500000  0.66600000  0.94000000  1.0 0.0232401645
O  O17  1  0.85500000  0.67000000  0.88700000  1.0 -0.2527848686
O  O18  1  0.92500000  0.67100000  0.98500000  1.0 -0.05293595
O  O19  1  0.29860000  0.32690000  0.15120000  1.0 -0.5082390565
O  O20  1  0.24820000  0.38010000  0.23900000  1.0 -0.5342202331
O  O21  1  0.22860000  0.64000000  0.24190000  1.0 -0.5082390565
O  O22  1  0.27690000  0.70210000  0.15850000  1.0 -0.5082390565
O  O23  1  0.33760000  0.52090000  0.97590000  1.0 -0.2154520821
O  O24  1  0.16800000  0.63100000  0.86500000  1.0 -0.2601105712
O  O25  1  0.16600000  0.53500000  0.94000000  1.0 0.0232401645
O  O26  1  0.17000000  0.64500000  0.88700000  1.0 -0.2527848686
O  O27  1  0.17100000  0.57500000  0.98500000  1.0 -0.05293595
O  O28  1  0.70140000  0.67310000  0.15120000  1.0 -0.5082390565
O  O29  1  0.75180000  0.61990000  0.23900000  1.0 -0.5342202331
O  O30  1  0.77140000  0.36000000  0.24190000  1.0 -0.5082390565
O  O31  1  0.72310000  0.29790000  0.15850000  1.0 -0.5082390565
O  O32  1  0.66240000  0.47910000  0.97590000  1.0 -0.2154520821
O  O33  1  0.83200000  0.36900000  0.86500000  1.0 -0.2601105712
O  O34  1  0.83400000  0.46500000  0.94000000  1.0 0.0232401645
O  O35  1  0.83000000  0.35500000  0.88700000  1.0 -0.2527848686
O  O36  1  0.82900000  0.42500000  0.98500000  1.0 -0.05293595
O  O37  1  0.67310000  0.70140000  0.34880000  1.0 -0.5082390565
O  O38  1  0.61990000  0.75180000  0.26100000  1.0 -0.5342202331
O  O39  1  0.36000000  0.77140000  0.25810000  1.0 -0.5082390565
O  O40  1  0.29790000  0.72310000  0.34150000  1.0 -0.5082390565
O  O41  1  0.47910000  0.66240000  0.52410000  1.0 -0.2154520821
O  O42  1  0.36900000  0.83200000  0.63500000  1.0 -0.2601105712
O  O43  1  0.46500000  0.83400000  0.56000000  1.0 0.0232401645
O  O44  1  0.35500000  0.83000000  0.61300000  1.0 -0.2527848686
O  O45  1  0.42500000  0.82900000  0.51500000  1.0 -0.05293595
O  O46  1  0.32690000  0.29860000  0.34880000  1.0 -0.5082390565
O  O47  1  0.38010000  0.24820000  0.26100000  1.0 -0.5342202331
O  O48  1  0.64000000  0.22860000  0.25810000  1.0 -0.5082390565
O  O49  1  0.70210000  0.27690000  0.34150000  1.0 -0.5082390565
O  O50  1  0.52090000  0.33760000  0.52410000  1.0 -0.2154520821
O  O51  1  0.63100000  0.16800000  0.63500000  1.0 -0.2601105712
O  O52  1  0.53500000  0.16600000  0.56000000  1.0 0.0232401645
O  O53  1  0.64500000  0.17000000  0.61300000  1.0 -0.2527848686
O  O54  1  0.57500000  0.17100000  0.51500000  1.0 -0.05293595
O  O55  1  0.20140000  0.82690000  0.34880000  1.0 -0.5082390565
O  O56  1  0.25180000  0.88010000  0.26100000  1.0 -0.5342202331
O  O57  1  0.27140000  0.14000000  0.25810000  1.0 -0.5082390565
O  O58  1  0.22310000  0.20210000  0.34150000  1.0 -0.5082390565
O  O59  1  0.16240000  0.02090000  0.52410000  1.0 -0.2154520821
O  O60  1  0.33200000  0.13100000  0.63500000  1.0 -0.2601105712
O  O61  1  0.33400000  0.03500000  0.56000000  1.0 0.0232401645
O  O62  1  0.33000000  0.14500000  0.61300000  1.0 -0.2527848686
O  O63  1  0.32900000  0.07500000  0.51500000  1.0 -0.05293595
O  O64  1  0.79860000  0.17310000  0.34880000  1.0 -0.5082390565
O  O65  1  0.74820000  0.11990000  0.26100000  1.0 -0.5342202331
O  O66  1  0.72860000  0.86000000  0.25810000  1.0 -0.5082390565
O  O67  1  0.77690000  0.79790000  0.34150000  1.0 -0.5082390565
O  O68  1  0.83760000  0.97910000  0.52410000  1.0 -0.2154520821
O  O69  1  0.66800000  0.86900000  0.63500000  1.0 -0.2601105712
O  O70  1  0.66600000  0.96500000  0.56000000  1.0 0.0232401645
O  O71  1  0.67000000  0.85500000  0.61300000  1.0 -0.2527848686
O  O72  1  0.67100000  0.92500000  0.51500000  1.0 -0.05293595
O  O73  1  0.67310000  0.29860000  0.84880000  1.0 -0.5082390565
O  O74  1  0.61990000  0.24820000  0.76100000  1.0 -0.5342202331
O  O75  1  0.36000000  0.22860000  0.75810000  1.0 -0.5082390565
O  O76  1  0.29790000  0.27690000  0.84150000  1.0 -0.5082390565
O  O77  1  0.47910000  0.33760000  0.02410000  1.0 -0.2154520821
O  O78  1  0.36900000  0.16800000  0.13500000  1.0 -0.2601105712
O  O79  1  0.46500000  0.16600000  0.06000000  1.0 0.0232401645
O  O80  1  0.35500000  0.17000000  0.11300000  1.0 -0.2527848686
O  O81  1  0.42500000  0.17100000  0.01500000  1.0 -0.05293595
O  O82  1  0.32690000  0.70140000  0.84880000  1.0 -0.5082390565
O  O83  1  0.38010000  0.75180000  0.76100000  1.0 -0.5342202331
O  O84  1  0.64000000  0.77140000  0.75810000  1.0 -0.5082390565
O  O85  1  0.70210000  0.72310000  0.84150000  1.0 -0.5082390565
O  O86  1  0.52090000  0.66240000  0.02410000  1.0 -0.2154520821
O  O87  1  0.63100000  0.83200000  0.13500000  1.0 -0.2601105712
O  O88  1  0.53500000  0.83400000  0.06000000  1.0 0.0232401645
O  O89  1  0.64500000  0.83000000  0.11300000  1.0 -0.2527848686
O  O90  1  0.57500000  0.82900000  0.01500000  1.0 -0.05293595
O  O91  1  0.20140000  0.17310000  0.84880000  1.0 -0.5082390565
O  O92  1  0.25180000  0.11990000  0.76100000  1.0 -0.5342202331
O  O93  1  0.27140000  0.86000000  0.75810000  1.0 -0.5082390565
O  O94  1  0.22310000  0.79790000  0.84150000  1.0 -0.5082390565
O  O95  1  0.16240000  0.97910000  0.02410000  1.0 -0.2154520821
O  O96  1  0.33200000  0.86900000  0.13500000  1.0 -0.2601105712
O  O97  1  0.33400000  0.96500000  0.06000000  1.0 0.0232401645
O  O98  1  0.33000000  0.85500000  0.11300000  1.0 -0.2527848686
O  O99  1  0.32900000  0.92500000  0.01500000  1.0 -0.05293595
O  O100  1  0.79860000  0.82690000  0.84880000  1.0 -0.5082390565
O  O101  1  0.74820000  0.88010000  0.76100000  1.0 -0.5342202331
O  O102  1  0.72860000  0.14000000  0.75810000  1.0 -0.5082390565
O  O103  1  0.77690000  0.20210000  0.84150000  1.0 -0.5082390565
O  O104  1  0.83760000  0.02090000  0.02410000  1.0 -0.2154520821
O  O105  1  0.66800000  0.13100000  0.13500000  1.0 -0.2601105712
O  O106  1  0.66600000  0.03500000  0.06000000  1.0 0.0232401645
O  O107  1  0.67000000  0.14500000  0.11300000  1.0 -0.2527848686
O  O108  1  0.67100000  0.07500000  0.01500000  1.0 -0.05293595
O  O109  1  0.82690000  0.79860000  0.65120000  1.0 -0.5082390565
O  O110  1  0.88010000  0.74820000  0.73900000  1.0 -0.5342202331
O  O111  1  0.14000000  0.72860000  0.74190000  1.0 -0.5082390565
O  O112  1  0.20210000  0.77690000  0.65850000  1.0 -0.5082390565
O  O113  1  0.02090000  0.83760000  0.47590000  1.0 -0.2154520821
O  O114  1  0.13100000  0.66800000  0.36500000  1.0 -0.2601105712
O  O115  1  0.03500000  0.66600000  0.44000000  1.0 0.0250865039
O  O116  1  0.14500000  0.67000000  0.38700000  1.0 -0.2601105712
O  O117  1  0.07500000  0.67100000  0.48500000  1.0 -0.05293595
O  O118  1  0.17310000  0.20140000  0.65120000  1.0 -0.5082390565
O  O119  1  0.11990000  0.25180000  0.73900000  1.0 -0.5342202331
O  O120  1  0.86000000  0.27140000  0.74190000  1.0 -0.5082390565
O  O121  1  0.79790000  0.22310000  0.65850000  1.0 -0.5082390565
O  O122  1  0.97910000  0.16240000  0.47590000  1.0 -0.2154520821
O  O123  1  0.86900000  0.33200000  0.36500000  1.0 -0.2601105712
O  O124  1  0.96500000  0.33400000  0.44000000  1.0 0.0232401645
O  O125  1  0.85500000  0.33000000  0.38700000  1.0 -0.2601105712
O  O126  1  0.92500000  0.32900000  0.48500000  1.0 -0.05293595
O  O127  1  0.29860000  0.67310000  0.65120000  1.0 -0.5082390565
O  O128  1  0.24820000  0.61990000  0.73900000  1.0 -0.5342202331
O  O129  1  0.22860000  0.36000000  0.74190000  1.0 -0.5082390565
O  O130  1  0.27690000  0.29790000  0.65850000  1.0 -0.5082390565
O  O131  1  0.33760000  0.47910000  0.47590000  1.0 -0.2154520821
O  O132  1  0.16800000  0.36900000  0.36500000  1.0 -0.2601105712
O  O133  1  0.16600000  0.46500000  0.44000000  1.0 0.0250865039
O  O134  1  0.17000000  0.35500000  0.38700000  1.0 -0.2601105712
O  O135  1  0.17100000  0.42500000  0.48500000  1.0 -0.05293595
O  O136  1  0.70140000  0.32690000  0.65120000  1.0 -0.5082390565
O  O137  1  0.75180000  0.38010000  0.73900000  1.0 -0.5342202331
O  O138  1  0.77140000  0.64000000  0.74190000  1.0 -0.5082390565
O  O139  1  0.72310000  0.70210000  0.65850000  1.0 -0.5082390565
O  O140  1  0.66240000  0.52090000  0.47590000  1.0 -0.2154520821
O  O141  1  0.83200000  0.63100000  0.36500000  1.0 -0.2601105712
O  O142  1  0.83400000  0.53500000  0.44000000  1.0 0.0232401645
O  O143  1  0.83000000  0.64500000  0.38700000  1.0 -0.2601105712
O  O144  1  0.82900000  0.57500000  0.48500000  1.0 -0.05293595
