# DDEC6 charges by PACMAN v1.1 (https://github.com/mtap-research/PACMAN-charge/)
data_QEQXUI06_ASR_pacman
_symmetry_space_group_name_H-M   'P 1'
_cell_length_a   13.55000000
_cell_length_b   19.38900000
_cell_length_c   22.52700000
_cell_angle_alpha   90.00000000
_cell_angle_beta   90.00000000
_cell_angle_gamma   90.00000000
_symmetry_Int_Tables_number   1
_chemical_formula_structural   NiH12C18N2O5
_chemical_formula_sum   'Ni8 H96 C144 N16 O40'
_cell_volume   5918.31484065
_cell_formula_units_Z   8
loop_
 _symmetry_equiv_pos_site_id
 _symmetry_equiv_pos_as_xyz
  1  'x, y, z'
loop_
 _atom_site_type_symbol
 _atom_site_label
 _atom_site_symmetry_multiplicity
 _atom_site_fract_x
 _atom_site_fract_y
 _atom_site_fract_z
 _atom_site_occupancy
 _atom_site_charge
Ni  Ni1  1  0.75000000  0.75000000  0.21040000  1.0 0.729317742
Ni  Ni2  1  0.75000000  0.75000000  0.71040000  1.0 0.729317742
Ni  Ni3  1  0.75000000  0.25000000  0.16760000  1.0 0.7091788227
Ni  Ni4  1  0.75000000  0.25000000  0.66760000  1.0 0.7091788227
Ni  Ni5  1  0.25000000  0.25000000  0.28960000  1.0 0.729317742
Ni  Ni6  1  0.25000000  0.25000000  0.78960000  1.0 0.729317742
Ni  Ni7  1  0.25000000  0.75000000  0.33240000  1.0 0.7091788227
Ni  Ni8  1  0.25000000  0.75000000  0.83240000  1.0 0.7091788227
H  H1  1  0.31240000  0.00210000  0.23110000  1.0 0.3478103192
H  H2  1  0.70540000  0.65140000  0.10290000  1.0 0.1301324503
H  H3  1  0.72740000  0.14960000  0.06730000  1.0 0.1301324503
H  H4  1  0.63730000  0.68640000  0.81030000  1.0 0.1182759251
H  H5  1  0.64020000  0.68260000  0.91270000  1.0 0.1399533127
H  H6  1  0.41250000  0.08770000  0.20010000  1.0 0.1399533127
H  H7  1  0.70060000  0.03910000  0.19290000  1.0 0.1182759251
H  H8  1  0.49850000  0.89060000  0.21910000  1.0 0.1301324503
H  H9  1  0.69890000  0.65450000  0.99950000  1.0 0.1301324503
H  H10  1  0.77370000  0.34880000  0.76830000  1.0 0.1182759251
H  H11  1  0.73240000  0.14930000  0.96620000  1.0 0.1399533127
H  H12  1  0.77410000  0.35040000  0.87050000  1.0 0.1450502747
H  H13  1  0.18760000  0.49790000  0.23110000  1.0 0.3478103192
H  H14  1  0.79460000  0.84860000  0.10290000  1.0 0.1301324503
H  H15  1  0.77260000  0.35040000  0.06730000  1.0 0.1301324503
H  H16  1  0.86270000  0.81360000  0.81030000  1.0 0.1182759251
H  H17  1  0.85980000  0.81740000  0.91270000  1.0 0.1399533127
H  H18  1  0.08750000  0.41230000  0.20010000  1.0 0.1399533127
H  H19  1  0.79940000  0.46090000  0.19290000  1.0 0.1182759251
H  H20  1  0.00150000  0.60940000  0.21910000  1.0 0.1301324503
H  H21  1  0.80110000  0.84550000  0.99950000  1.0 0.1301324503
H  H22  1  0.72630000  0.15120000  0.76830000  1.0 0.1182759251
H  H23  1  0.76760000  0.35070000  0.96620000  1.0 0.1399533127
H  H24  1  0.72590000  0.14960000  0.87050000  1.0 0.1450502747
H  H25  1  0.31240000  0.49790000  0.73110000  1.0 0.3478103192
H  H26  1  0.70540000  0.84860000  0.60290000  1.0 0.1301324503
H  H27  1  0.72740000  0.35040000  0.56730000  1.0 0.1301324503
H  H28  1  0.63730000  0.81360000  0.31030000  1.0 0.1182759251
H  H29  1  0.64020000  0.81740000  0.41270000  1.0 0.1399533127
H  H30  1  0.41250000  0.41230000  0.70010000  1.0 0.1399533127
H  H31  1  0.70060000  0.46090000  0.69290000  1.0 0.1182759251
H  H32  1  0.49850000  0.60940000  0.71910000  1.0 0.1301324503
H  H33  1  0.69890000  0.84550000  0.49950000  1.0 0.1301324503
H  H34  1  0.77370000  0.15120000  0.26830000  1.0 0.1182759251
H  H35  1  0.73240000  0.35070000  0.46620000  1.0 0.1399533127
H  H36  1  0.77410000  0.14960000  0.37050000  1.0 0.1450502747
H  H37  1  0.18760000  0.00210000  0.73110000  1.0 0.3478103192
H  H38  1  0.79460000  0.65140000  0.60290000  1.0 0.1301324503
H  H39  1  0.77260000  0.14960000  0.56730000  1.0 0.1301324503
H  H40  1  0.86270000  0.68640000  0.31030000  1.0 0.1182759251
H  H41  1  0.85980000  0.68260000  0.41270000  1.0 0.1399533127
H  H42  1  0.08750000  0.08770000  0.70010000  1.0 0.1399533127
H  H43  1  0.79940000  0.03910000  0.69290000  1.0 0.1182759251
H  H44  1  0.00150000  0.89060000  0.71910000  1.0 0.1301324503
H  H45  1  0.80110000  0.65450000  0.49950000  1.0 0.1301324503
H  H46  1  0.72630000  0.34880000  0.26830000  1.0 0.1182759251
H  H47  1  0.76760000  0.14930000  0.46620000  1.0 0.1399533127
H  H48  1  0.72590000  0.35040000  0.37050000  1.0 0.1450502747
H  H49  1  0.68760000  0.50210000  0.26890000  1.0 0.3478103192
H  H50  1  0.29460000  0.15140000  0.39710000  1.0 0.1301324503
H  H51  1  0.27260000  0.64960000  0.43270000  1.0 0.1301324503
H  H52  1  0.36270000  0.18640000  0.68970000  1.0 0.1182759251
H  H53  1  0.35980000  0.18260000  0.58730000  1.0 0.1399533127
H  H54  1  0.58750000  0.58770000  0.29990000  1.0 0.1399533127
H  H55  1  0.29940000  0.53910000  0.30710000  1.0 0.1182759251
H  H56  1  0.50150000  0.39060000  0.28090000  1.0 0.1301324503
H  H57  1  0.30110000  0.15450000  0.50050000  1.0 0.1301324503
H  H58  1  0.22630000  0.84880000  0.73170000  1.0 0.1182759251
H  H59  1  0.26760000  0.64930000  0.53380000  1.0 0.1399533127
H  H60  1  0.22590000  0.85040000  0.62950000  1.0 0.1450502747
H  H61  1  0.81240000  0.99790000  0.26890000  1.0 0.3478103192
H  H62  1  0.20540000  0.34860000  0.39710000  1.0 0.1301324503
H  H63  1  0.22740000  0.85040000  0.43270000  1.0 0.1301324503
H  H64  1  0.13730000  0.31360000  0.68970000  1.0 0.1182759251
H  H65  1  0.14020000  0.31740000  0.58730000  1.0 0.1399533127
H  H66  1  0.91250000  0.91230000  0.29990000  1.0 0.1399533127
H  H67  1  0.20060000  0.96090000  0.30710000  1.0 0.1182759251
H  H68  1  0.99850000  0.10940000  0.28090000  1.0 0.1301324503
H  H69  1  0.19890000  0.34550000  0.50050000  1.0 0.1301324503
H  H70  1  0.27370000  0.65120000  0.73170000  1.0 0.1182759251
H  H71  1  0.23240000  0.85070000  0.53380000  1.0 0.1399533127
H  H72  1  0.27410000  0.64960000  0.62950000  1.0 0.1450502747
H  H73  1  0.68760000  0.99790000  0.76890000  1.0 0.3478103192
H  H74  1  0.29460000  0.34860000  0.89710000  1.0 0.1301324503
H  H75  1  0.27260000  0.85040000  0.93270000  1.0 0.1301324503
H  H76  1  0.36270000  0.31360000  0.18970000  1.0 0.1182759251
H  H77  1  0.35980000  0.31740000  0.08730000  1.0 0.1399533127
H  H78  1  0.58750000  0.91230000  0.79990000  1.0 0.1399533127
H  H79  1  0.29940000  0.96090000  0.80710000  1.0 0.1182759251
H  H80  1  0.50150000  0.10940000  0.78090000  1.0 0.1301324503
H  H81  1  0.30110000  0.34550000  0.00050000  1.0 0.1301324503
H  H82  1  0.22630000  0.65120000  0.23170000  1.0 0.1182759251
H  H83  1  0.26760000  0.85070000  0.03380000  1.0 0.1399533127
H  H84  1  0.22590000  0.64960000  0.12950000  1.0 0.1450502747
H  H85  1  0.81240000  0.50210000  0.76890000  1.0 0.3478103192
H  H86  1  0.20540000  0.15140000  0.89710000  1.0 0.1301324503
H  H87  1  0.22740000  0.64960000  0.93270000  1.0 0.1301324503
H  H88  1  0.13730000  0.18640000  0.18970000  1.0 0.1182759251
H  H89  1  0.14020000  0.18260000  0.08730000  1.0 0.1399533127
H  H90  1  0.91250000  0.58770000  0.79990000  1.0 0.1399533127
H  H91  1  0.20060000  0.53910000  0.80710000  1.0 0.1182759251
H  H92  1  0.99850000  0.39060000  0.78090000  1.0 0.1301324503
H  H93  1  0.19890000  0.15450000  0.00050000  1.0 0.1301324503
H  H94  1  0.27370000  0.84880000  0.23170000  1.0 0.1182759251
H  H95  1  0.23240000  0.64930000  0.03380000  1.0 0.1399533127
H  H96  1  0.27410000  0.85040000  0.12950000  1.0 0.1450502747
C  C1  1  0.59200000  0.14400000  0.18740000  1.0 0.5273310715
C  C2  1  0.67800000  0.90040000  0.21460000  1.0 0.5395777473
C  C3  1  0.72300000  0.69170000  0.08290000  1.0 0.0883281981
C  C4  1  0.73700000  0.19110000  0.04740000  1.0 0.0883281981
C  C5  1  0.68390000  0.71200000  0.83100000  1.0 0.1182759251
C  C6  1  0.68500000  0.71100000  0.89350000  1.0 -0.1900797718
C  C7  1  0.43930000  0.98580000  0.21070000  1.0 0.2973719412
C  C8  1  0.46300000  0.05490000  0.20170000  1.0 -0.1900797718
C  C9  1  0.56000000  0.07480000  0.19500000  1.0 -0.0627747787
C  C10  1  0.63510000  0.02580000  0.19740000  1.0 -0.114125553
C  C11  1  0.61190000  0.95670000  0.20640000  1.0 -0.0713814157
C  C12  1  0.51400000  0.93680000  0.21300000  1.0 -0.1960232718
C  C13  1  0.72100000  0.69290000  0.02050000  1.0 -0.1719279414
C  C14  1  0.76400000  0.30800000  0.78920000  1.0 0.1120532142
C  C15  1  0.73900000  0.19110000  0.98600000  1.0 -0.1960232718
C  C16  1  0.76400000  0.30880000  0.85080000  1.0 -0.1900797718
C  C17  1  0.90800000  0.35600000  0.18740000  1.0 0.5273310715
C  C18  1  0.82200000  0.59960000  0.21460000  1.0 0.5395777473
C  C19  1  0.77700000  0.80830000  0.08290000  1.0 0.0883281981
C  C20  1  0.76300000  0.30890000  0.04740000  1.0 0.0883281981
C  C21  1  0.81610000  0.78800000  0.83100000  1.0 0.1182759251
C  C22  1  0.81500000  0.78900000  0.89350000  1.0 -0.1900797718
C  C23  1  0.06070000  0.51420000  0.21070000  1.0 0.2973719412
C  C24  1  0.03700000  0.44510000  0.20170000  1.0 -0.1900797718
C  C25  1  0.94000000  0.42520000  0.19500000  1.0 -0.0627747787
C  C26  1  0.86490000  0.47420000  0.19740000  1.0 -0.114125553
C  C27  1  0.88810000  0.54330000  0.20640000  1.0 -0.0713814157
C  C28  1  0.98600000  0.56320000  0.21300000  1.0 -0.1960232718
C  C29  1  0.77900000  0.80710000  0.02050000  1.0 -0.1719279414
C  C30  1  0.73600000  0.19200000  0.78920000  1.0 0.1120532142
C  C31  1  0.76100000  0.30890000  0.98600000  1.0 -0.1960232718
C  C32  1  0.73600000  0.19120000  0.85080000  1.0 -0.1900797718
C  C33  1  0.59200000  0.35600000  0.68740000  1.0 0.5273310715
C  C34  1  0.67800000  0.59960000  0.71460000  1.0 0.5395777473
C  C35  1  0.72300000  0.80830000  0.58290000  1.0 0.0883281981
C  C36  1  0.73700000  0.30890000  0.54740000  1.0 0.0883281981
C  C37  1  0.68390000  0.78800000  0.33100000  1.0 0.1182759251
C  C38  1  0.68500000  0.78900000  0.39350000  1.0 -0.1900797718
C  C39  1  0.43930000  0.51420000  0.71070000  1.0 0.2973719412
C  C40  1  0.46300000  0.44510000  0.70170000  1.0 -0.1900797718
C  C41  1  0.56000000  0.42520000  0.69500000  1.0 -0.0627747787
C  C42  1  0.63510000  0.47420000  0.69740000  1.0 -0.114125553
C  C43  1  0.61190000  0.54330000  0.70640000  1.0 -0.0713814157
C  C44  1  0.51400000  0.56320000  0.71300000  1.0 -0.1960232718
C  C45  1  0.72100000  0.80710000  0.52050000  1.0 -0.1719279414
C  C46  1  0.76400000  0.19200000  0.28920000  1.0 0.1120532142
C  C47  1  0.73900000  0.30890000  0.48600000  1.0 -0.1960232718
C  C48  1  0.76400000  0.19120000  0.35080000  1.0 -0.1900797718
C  C49  1  0.90800000  0.14400000  0.68740000  1.0 0.5273310715
C  C50  1  0.82200000  0.90040000  0.71460000  1.0 0.5395777473
C  C51  1  0.77700000  0.69170000  0.58290000  1.0 0.0883281981
C  C52  1  0.76300000  0.19110000  0.54740000  1.0 0.0883281981
C  C53  1  0.81610000  0.71200000  0.33100000  1.0 0.1182759251
C  C54  1  0.81500000  0.71100000  0.39350000  1.0 -0.1900797718
C  C55  1  0.06070000  0.98580000  0.71070000  1.0 0.2973719412
C  C56  1  0.03700000  0.05490000  0.70170000  1.0 -0.1900797718
C  C57  1  0.94000000  0.07480000  0.69500000  1.0 -0.0627747787
C  C58  1  0.86490000  0.02580000  0.69740000  1.0 -0.114125553
C  C59  1  0.88810000  0.95670000  0.70640000  1.0 -0.0713814157
C  C60  1  0.98600000  0.93680000  0.71300000  1.0 -0.1960232718
C  C61  1  0.77900000  0.69290000  0.52050000  1.0 -0.1719279414
C  C62  1  0.73600000  0.30800000  0.28920000  1.0 0.1120532142
C  C63  1  0.76100000  0.19110000  0.48600000  1.0 -0.1960232718
C  C64  1  0.73600000  0.30880000  0.35080000  1.0 -0.1900797718
C  C65  1  0.75000000  0.75000000  0.99090000  1.0 0.0847224543
C  C66  1  0.75000000  0.75000000  0.92870000  1.0 0.0990053253
C  C67  1  0.75000000  0.75000000  0.49090000  1.0 0.0847224543
C  C68  1  0.75000000  0.75000000  0.42870000  1.0 0.0990053253
C  C69  1  0.75000000  0.25000000  0.95290000  1.0 0.0990053253
C  C70  1  0.75000000  0.25000000  0.88350000  1.0 0.1120532142
C  C71  1  0.75000000  0.25000000  0.45290000  1.0 0.0990053253
C  C72  1  0.75000000  0.25000000  0.38350000  1.0 0.1120532142
C  C73  1  0.40800000  0.64400000  0.31260000  1.0 0.5273310715
C  C74  1  0.32200000  0.40040000  0.28540000  1.0 0.5395777473
C  C75  1  0.27700000  0.19170000  0.41710000  1.0 0.0883281981
C  C76  1  0.26300000  0.69110000  0.45260000  1.0 0.0883281981
C  C77  1  0.31610000  0.21200000  0.66900000  1.0 0.1182759251
C  C78  1  0.31500000  0.21100000  0.60650000  1.0 -0.1900797718
C  C79  1  0.56070000  0.48580000  0.28930000  1.0 0.2973719412
C  C80  1  0.53700000  0.55490000  0.29830000  1.0 -0.1900797718
C  C81  1  0.44000000  0.57480000  0.30500000  1.0 -0.0627747787
C  C82  1  0.36490000  0.52580000  0.30260000  1.0 -0.114125553
C  C83  1  0.38810000  0.45670000  0.29360000  1.0 -0.0713814157
C  C84  1  0.48600000  0.43680000  0.28700000  1.0 -0.1960232718
C  C85  1  0.27900000  0.19290000  0.47950000  1.0 -0.1719279414
C  C86  1  0.23600000  0.80800000  0.71080000  1.0 0.1120532142
C  C87  1  0.26100000  0.69110000  0.51400000  1.0 -0.1960232718
C  C88  1  0.23600000  0.80880000  0.64920000  1.0 -0.1900797718
C  C89  1  0.09200000  0.85600000  0.31260000  1.0 0.5273310715
C  C90  1  0.17800000  0.09960000  0.28540000  1.0 0.5395777473
C  C91  1  0.22300000  0.30830000  0.41710000  1.0 0.0883281981
C  C92  1  0.23700000  0.80890000  0.45260000  1.0 0.0883281981
C  C93  1  0.18390000  0.28800000  0.66900000  1.0 0.1182759251
C  C94  1  0.18500000  0.28900000  0.60650000  1.0 -0.1900797718
C  C95  1  0.93930000  0.01420000  0.28930000  1.0 0.2973719412
C  C96  1  0.96300000  0.94510000  0.29830000  1.0 -0.1900797718
C  C97  1  0.06000000  0.92520000  0.30500000  1.0 -0.0627747787
C  C98  1  0.13510000  0.97420000  0.30260000  1.0 -0.114125553
C  C99  1  0.11190000  0.04330000  0.29360000  1.0 -0.0713814157
C  C100  1  0.01400000  0.06320000  0.28700000  1.0 -0.1960232718
C  C101  1  0.22100000  0.30710000  0.47950000  1.0 -0.1719279414
C  C102  1  0.26400000  0.69200000  0.71080000  1.0 0.1120532142
C  C103  1  0.23900000  0.80890000  0.51400000  1.0 -0.1960232718
C  C104  1  0.26400000  0.69120000  0.64920000  1.0 -0.1900797718
C  C105  1  0.40800000  0.85600000  0.81260000  1.0 0.5273310715
C  C106  1  0.32200000  0.09960000  0.78540000  1.0 0.5395777473
C  C107  1  0.27700000  0.30830000  0.91710000  1.0 0.0883281981
C  C108  1  0.26300000  0.80890000  0.95260000  1.0 0.0883281981
C  C109  1  0.31610000  0.28800000  0.16900000  1.0 0.1182759251
C  C110  1  0.31500000  0.28900000  0.10650000  1.0 -0.1900797718
C  C111  1  0.56070000  0.01420000  0.78930000  1.0 0.2973719412
C  C112  1  0.53700000  0.94510000  0.79830000  1.0 -0.1900797718
C  C113  1  0.44000000  0.92520000  0.80500000  1.0 -0.0627747787
C  C114  1  0.36490000  0.97420000  0.80260000  1.0 -0.114125553
C  C115  1  0.38810000  0.04330000  0.79360000  1.0 -0.0713814157
C  C116  1  0.48600000  0.06320000  0.78700000  1.0 -0.1960232718
C  C117  1  0.27900000  0.30710000  0.97950000  1.0 -0.1719279414
C  C118  1  0.23600000  0.69200000  0.21080000  1.0 0.1120532142
C  C119  1  0.26100000  0.80890000  0.01400000  1.0 -0.1960232718
C  C120  1  0.23600000  0.69120000  0.14920000  1.0 -0.1900797718
C  C121  1  0.09200000  0.64400000  0.81260000  1.0 0.5273310715
C  C122  1  0.17800000  0.40040000  0.78540000  1.0 0.5395777473
C  C123  1  0.22300000  0.19170000  0.91710000  1.0 0.0883281981
C  C124  1  0.23700000  0.69110000  0.95260000  1.0 0.0883281981
C  C125  1  0.18390000  0.21200000  0.16900000  1.0 0.1182759251
C  C126  1  0.18500000  0.21100000  0.10650000  1.0 -0.1900797718
C  C127  1  0.93930000  0.48580000  0.78930000  1.0 0.2973719412
C  C128  1  0.96300000  0.55490000  0.79830000  1.0 -0.1900797718
C  C129  1  0.06000000  0.57480000  0.80500000  1.0 -0.0627747787
C  C130  1  0.13510000  0.52580000  0.80260000  1.0 -0.114125553
C  C131  1  0.11190000  0.45670000  0.79360000  1.0 -0.0713814157
C  C132  1  0.01400000  0.43680000  0.78700000  1.0 -0.1960232718
C  C133  1  0.22100000  0.19290000  0.97950000  1.0 -0.1719279414
C  C134  1  0.26400000  0.80800000  0.21080000  1.0 0.1120532142
C  C135  1  0.23900000  0.69110000  0.01400000  1.0 -0.1960232718
C  C136  1  0.26400000  0.80880000  0.14920000  1.0 -0.1900797718
C  C137  1  0.25000000  0.25000000  0.50910000  1.0 0.0847224543
C  C138  1  0.25000000  0.25000000  0.57130000  1.0 0.0990053253
C  C139  1  0.25000000  0.25000000  0.00910000  1.0 0.0847224543
C  C140  1  0.25000000  0.25000000  0.07130000  1.0 0.0990053253
C  C141  1  0.25000000  0.75000000  0.54710000  1.0 0.0990053253
C  C142  1  0.25000000  0.75000000  0.61650000  1.0 0.1120532142
C  C143  1  0.25000000  0.75000000  0.04710000  1.0 0.0990053253
C  C144  1  0.25000000  0.75000000  0.11650000  1.0 0.1120532142
N  N1  1  0.75000000  0.75000000  0.80160000  1.0 -0.2084236177
N  N2  1  0.75000000  0.75000000  0.11520000  1.0 -0.242556767
N  N3  1  0.75000000  0.75000000  0.30160000  1.0 -0.2084236177
N  N4  1  0.75000000  0.75000000  0.61520000  1.0 -0.242556767
N  N5  1  0.75000000  0.25000000  0.76040000  1.0 -0.1900797718
N  N6  1  0.75000000  0.25000000  0.07960000  1.0 -0.2084236177
N  N7  1  0.75000000  0.25000000  0.26040000  1.0 -0.1900797718
N  N8  1  0.75000000  0.25000000  0.57960000  1.0 -0.2084236177
N  N9  1  0.25000000  0.25000000  0.69840000  1.0 -0.2084236177
N  N10  1  0.25000000  0.25000000  0.38480000  1.0 -0.242556767
N  N11  1  0.25000000  0.25000000  0.19840000  1.0 -0.2084236177
N  N12  1  0.25000000  0.25000000  0.88480000  1.0 -0.242556767
N  N13  1  0.25000000  0.75000000  0.73960000  1.0 -0.1900797718
N  N14  1  0.25000000  0.75000000  0.42040000  1.0 -0.2084236177
N  N15  1  0.25000000  0.75000000  0.23960000  1.0 -0.1900797718
N  N16  1  0.25000000  0.75000000  0.92040000  1.0 -0.2084236177
O  O1  1  0.68000000  0.16170000  0.16590000  1.0 -0.5508598214
O  O2  1  0.66500000  0.83510000  0.21070000  1.0 -0.5388577407
O  O3  1  0.53500000  0.19700000  0.19390000  1.0 -0.5508598214
O  O4  1  0.34500000  0.96750000  0.22360000  1.0 -0.4608805305
O  O5  1  0.76900000  0.92080000  0.22140000  1.0 -0.5672904974
O  O6  1  0.82000000  0.33830000  0.16590000  1.0 -0.5508598214
O  O7  1  0.83500000  0.66490000  0.21070000  1.0 -0.5388577407
O  O8  1  0.96500000  0.30300000  0.19390000  1.0 -0.5508598214
O  O9  1  0.15500000  0.53250000  0.22360000  1.0 -0.4608805305
O  O10  1  0.73100000  0.57920000  0.22140000  1.0 -0.5672904974
O  O11  1  0.68000000  0.33830000  0.66590000  1.0 -0.5508598214
O  O12  1  0.66500000  0.66490000  0.71070000  1.0 -0.5388577407
O  O13  1  0.53500000  0.30300000  0.69390000  1.0 -0.5508598214
O  O14  1  0.34500000  0.53250000  0.72360000  1.0 -0.4608805305
O  O15  1  0.76900000  0.57920000  0.72140000  1.0 -0.5672904974
O  O16  1  0.82000000  0.16170000  0.66590000  1.0 -0.5508598214
O  O17  1  0.83500000  0.83510000  0.71070000  1.0 -0.5388577407
O  O18  1  0.96500000  0.19700000  0.69390000  1.0 -0.5508598214
O  O19  1  0.15500000  0.96750000  0.72360000  1.0 -0.4608805305
O  O20  1  0.73100000  0.92080000  0.72140000  1.0 -0.5672904974
O  O21  1  0.32000000  0.66170000  0.33410000  1.0 -0.5508598214
O  O22  1  0.33500000  0.33510000  0.28930000  1.0 -0.5388577407
O  O23  1  0.46500000  0.69700000  0.30610000  1.0 -0.5508598214
O  O24  1  0.65500000  0.46750000  0.27640000  1.0 -0.4608805305
O  O25  1  0.23100000  0.42080000  0.27860000  1.0 -0.5672904974
O  O26  1  0.18000000  0.83830000  0.33410000  1.0 -0.5508598214
O  O27  1  0.16500000  0.16490000  0.28930000  1.0 -0.5388577407
O  O28  1  0.03500000  0.80300000  0.30610000  1.0 -0.5508598214
O  O29  1  0.84500000  0.03250000  0.27640000  1.0 -0.4608805305
O  O30  1  0.26900000  0.07920000  0.27860000  1.0 -0.5672904974
O  O31  1  0.32000000  0.83830000  0.83410000  1.0 -0.5508598214
O  O32  1  0.33500000  0.16490000  0.78930000  1.0 -0.5388577407
O  O33  1  0.46500000  0.80300000  0.80610000  1.0 -0.5508598214
O  O34  1  0.65500000  0.03250000  0.77640000  1.0 -0.4608805305
O  O35  1  0.23100000  0.07920000  0.77860000  1.0 -0.5672904974
O  O36  1  0.18000000  0.66170000  0.83410000  1.0 -0.5508598214
O  O37  1  0.16500000  0.33510000  0.78930000  1.0 -0.5388577407
O  O38  1  0.03500000  0.69700000  0.80610000  1.0 -0.5508598214
O  O39  1  0.84500000  0.46750000  0.77640000  1.0 -0.4608805305
O  O40  1  0.26900000  0.42080000  0.77860000  1.0 -0.5672904974
