# DDEC6 charges by PACMAN v1.1 (https://github.com/mtap-research/PACMAN-charge/)
data_QEQYIX_ASR_pacman
_symmetry_space_group_name_H-M   'P 1'
_cell_length_a   13.63400000
_cell_length_b   19.20900000
_cell_length_c   22.44400000
_cell_angle_alpha   90.00000000
_cell_angle_beta   90.00000000
_cell_angle_gamma   90.00000000
_symmetry_Int_Tables_number   1
_chemical_formula_structural   NiH12C18N2O5
_chemical_formula_sum   'Ni8 H96 C144 N16 O40'
_cell_volume   5877.98273666
_cell_formula_units_Z   8
loop_
 _symmetry_equiv_pos_site_id
 _symmetry_equiv_pos_as_xyz
  1  'x, y, z'
loop_
 _atom_site_type_symbol
 _atom_site_label
 _atom_site_symmetry_multiplicity
 _atom_site_fract_x
 _atom_site_fract_y
 _atom_site_fract_z
 _atom_site_occupancy
 _atom_site_charge
Ni  Ni1  1  0.75000000  0.75000000  0.23205000  1.0 0.6976075778
Ni  Ni2  1  0.75000000  0.75000000  0.73205000  1.0 0.6976075778
Ni  Ni3  1  0.75000000  0.25000000  0.16410000  1.0 0.6976075778
Ni  Ni4  1  0.75000000  0.25000000  0.66410000  1.0 0.6976075778
Ni  Ni5  1  0.25000000  0.25000000  0.26795000  1.0 0.6976075778
Ni  Ni6  1  0.25000000  0.25000000  0.76795000  1.0 0.6976075778
Ni  Ni7  1  0.25000000  0.75000000  0.33590000  1.0 0.6976075778
Ni  Ni8  1  0.25000000  0.75000000  0.83590000  1.0 0.6976075778
H  H1  1  0.30870000  0.98800000  0.20460000  1.0 0.3684193352
H  H2  1  0.70250000  0.03220000  0.20120000  1.0 0.1210993642
H  H3  1  0.41970000  0.09030000  0.19280000  1.0 0.1373386876
H  H4  1  0.48920000  0.89140000  0.22880000  1.0 0.1373386876
H  H5  1  0.61990000  0.70700000  0.83810000  1.0 0.1306310852
H  H6  1  0.62030000  0.70490000  0.93970000  1.0 0.1373386876
H  H7  1  0.81900000  0.34060000  0.87000000  1.0 0.1306310852
H  H8  1  0.79860000  0.34630000  0.76860000  1.0 0.1210993642
H  H9  1  0.89160000  0.72680000  0.13160000  1.0 0.1210993642
H  H10  1  0.89020000  0.72440000  0.02840000  1.0 0.1373386876
H  H11  1  0.85800000  0.31810000  0.06210000  1.0 0.1210993642
H  H12  1  0.84340000  0.32690000  0.96090000  1.0 0.1306310852
H  H13  1  0.19130000  0.51200000  0.20460000  1.0 0.3684193352
H  H14  1  0.79750000  0.46780000  0.20120000  1.0 0.1210993642
H  H15  1  0.08030000  0.40970000  0.19280000  1.0 0.1373386876
H  H16  1  0.01080000  0.60860000  0.22880000  1.0 0.1373386876
H  H17  1  0.88010000  0.79300000  0.83810000  1.0 0.1306310852
H  H18  1  0.87970000  0.79510000  0.93970000  1.0 0.1373386876
H  H19  1  0.68100000  0.15940000  0.87000000  1.0 0.1306310852
H  H20  1  0.70140000  0.15370000  0.76860000  1.0 0.1210993642
H  H21  1  0.60840000  0.77320000  0.13160000  1.0 0.1210993642
H  H22  1  0.60980000  0.77560000  0.02840000  1.0 0.1373386876
H  H23  1  0.64200000  0.18190000  0.06210000  1.0 0.1210993642
H  H24  1  0.65660000  0.17310000  0.96090000  1.0 0.1306310852
H  H25  1  0.30870000  0.51200000  0.70460000  1.0 0.3684193352
H  H26  1  0.70250000  0.46780000  0.70120000  1.0 0.1210993642
H  H27  1  0.41970000  0.40970000  0.69280000  1.0 0.1373386876
H  H28  1  0.48920000  0.60860000  0.72880000  1.0 0.1373386876
H  H29  1  0.61990000  0.79300000  0.33810000  1.0 0.1306310852
H  H30  1  0.62030000  0.79510000  0.43970000  1.0 0.1373386876
H  H31  1  0.81900000  0.15940000  0.37000000  1.0 0.1306310852
H  H32  1  0.79860000  0.15370000  0.26860000  1.0 0.1210993642
H  H33  1  0.89160000  0.77320000  0.63160000  1.0 0.1210993642
H  H34  1  0.89020000  0.77560000  0.52840000  1.0 0.1373386876
H  H35  1  0.85800000  0.18190000  0.56210000  1.0 0.1210993642
H  H36  1  0.84340000  0.17310000  0.46090000  1.0 0.1306310852
H  H37  1  0.19130000  0.98800000  0.70460000  1.0 0.3684193352
H  H38  1  0.79750000  0.03220000  0.70120000  1.0 0.1210993642
H  H39  1  0.08030000  0.09030000  0.69280000  1.0 0.1373386876
H  H40  1  0.01080000  0.89140000  0.72880000  1.0 0.1373386876
H  H41  1  0.88010000  0.70700000  0.33810000  1.0 0.1306310852
H  H42  1  0.87970000  0.70490000  0.43970000  1.0 0.1373386876
H  H43  1  0.68100000  0.34060000  0.37000000  1.0 0.1306310852
H  H44  1  0.70140000  0.34630000  0.26860000  1.0 0.1210993642
H  H45  1  0.60840000  0.72680000  0.63160000  1.0 0.1210993642
H  H46  1  0.60980000  0.72440000  0.52840000  1.0 0.1373386876
H  H47  1  0.64200000  0.31810000  0.56210000  1.0 0.1210993642
H  H48  1  0.65660000  0.32690000  0.46090000  1.0 0.1306310852
H  H49  1  0.69130000  0.48800000  0.29540000  1.0 0.3684193352
H  H50  1  0.29750000  0.53220000  0.29880000  1.0 0.1210993642
H  H51  1  0.58030000  0.59030000  0.30720000  1.0 0.1373386876
H  H52  1  0.51080000  0.39140000  0.27120000  1.0 0.1373386876
H  H53  1  0.38010000  0.20700000  0.66190000  1.0 0.1306310852
H  H54  1  0.37970000  0.20490000  0.56030000  1.0 0.1373386876
H  H55  1  0.18100000  0.84060000  0.63000000  1.0 0.1306310852
H  H56  1  0.20140000  0.84630000  0.73140000  1.0 0.1210993642
H  H57  1  0.10840000  0.22680000  0.36840000  1.0 0.1210993642
H  H58  1  0.10980000  0.22440000  0.47160000  1.0 0.1373386876
H  H59  1  0.14200000  0.81810000  0.43790000  1.0 0.1210993642
H  H60  1  0.15660000  0.82690000  0.53910000  1.0 0.1306310852
H  H61  1  0.80870000  0.01200000  0.29540000  1.0 0.3684193352
H  H62  1  0.20250000  0.96780000  0.29880000  1.0 0.1210993642
H  H63  1  0.91970000  0.90970000  0.30720000  1.0 0.1373386876
H  H64  1  0.98920000  0.10860000  0.27120000  1.0 0.1373386876
H  H65  1  0.11990000  0.29300000  0.66190000  1.0 0.1306310852
H  H66  1  0.12030000  0.29510000  0.56030000  1.0 0.1373386876
H  H67  1  0.31900000  0.65940000  0.63000000  1.0 0.1306310852
H  H68  1  0.29860000  0.65370000  0.73140000  1.0 0.1210993642
H  H69  1  0.39160000  0.27320000  0.36840000  1.0 0.1210993642
H  H70  1  0.39020000  0.27560000  0.47160000  1.0 0.1373386876
H  H71  1  0.35800000  0.68190000  0.43790000  1.0 0.1210993642
H  H72  1  0.34340000  0.67310000  0.53910000  1.0 0.1306310852
H  H73  1  0.69130000  0.01200000  0.79540000  1.0 0.3684193352
H  H74  1  0.29750000  0.96780000  0.79880000  1.0 0.1210993642
H  H75  1  0.58030000  0.90970000  0.80720000  1.0 0.1373386876
H  H76  1  0.51080000  0.10860000  0.77120000  1.0 0.1373386876
H  H77  1  0.38010000  0.29300000  0.16190000  1.0 0.1306310852
H  H78  1  0.37970000  0.29510000  0.06030000  1.0 0.1373386876
H  H79  1  0.18100000  0.65940000  0.13000000  1.0 0.1306310852
H  H80  1  0.20140000  0.65370000  0.23140000  1.0 0.1210993642
H  H81  1  0.10840000  0.27320000  0.86840000  1.0 0.1210993642
H  H82  1  0.10980000  0.27560000  0.97160000  1.0 0.1373386876
H  H83  1  0.14200000  0.68190000  0.93790000  1.0 0.1210993642
H  H84  1  0.15660000  0.67310000  0.03910000  1.0 0.1306310852
H  H85  1  0.80870000  0.48800000  0.79540000  1.0 0.3684193352
H  H86  1  0.20250000  0.53220000  0.79880000  1.0 0.1210993642
H  H87  1  0.91970000  0.59030000  0.80720000  1.0 0.1373386876
H  H88  1  0.98920000  0.39140000  0.77120000  1.0 0.1373386876
H  H89  1  0.11990000  0.20700000  0.16190000  1.0 0.1306310852
H  H90  1  0.12030000  0.20490000  0.06030000  1.0 0.1373386876
H  H91  1  0.31900000  0.84060000  0.13000000  1.0 0.1306310852
H  H92  1  0.29860000  0.84630000  0.23140000  1.0 0.1210993642
H  H93  1  0.39160000  0.22680000  0.86840000  1.0 0.1210993642
H  H94  1  0.39020000  0.22440000  0.97160000  1.0 0.1373386876
H  H95  1  0.35800000  0.81810000  0.93790000  1.0 0.1210993642
H  H96  1  0.34340000  0.82690000  0.03910000  1.0 0.1306310852
C  C1  1  0.63620000  0.02110000  0.20370000  1.0 -0.0949525228
C  C2  1  0.56590000  0.07250000  0.19490000  1.0 -0.0815195842
C  C3  1  0.46680000  0.05600000  0.19870000  1.0 -0.2000739295
C  C4  1  0.43810000  0.98820000  0.21140000  1.0 0.316863087
C  C5  1  0.50840000  0.93680000  0.22030000  1.0 -0.2000739295
C  C6  1  0.60750000  0.95330000  0.21650000  1.0 -0.0694457805
C  C7  1  0.58630000  0.14080000  0.17870000  1.0 0.5197326252
C  C8  1  0.67380000  0.72460000  0.85860000  1.0 0.101622078
C  C9  1  0.67400000  0.72390000  0.92000000  1.0 -0.1688500643
C  C10  1  0.78820000  0.30430000  0.84990000  1.0 -0.1688500643
C  C11  1  0.78120000  0.30550000  0.78830000  1.0 0.0895702811
C  C12  1  0.83430000  0.73590000  0.11040000  1.0 0.101622078
C  C13  1  0.83200000  0.73540000  0.04780000  1.0 -0.2000739295
C  C14  1  0.81100000  0.29080000  0.04340000  1.0 0.0778995687
C  C15  1  0.80600000  0.29320000  0.98010000  1.0 -0.2136820695
C  C16  1  0.68160000  0.90290000  0.22490000  1.0 0.5404188344
C  C17  1  0.86380000  0.47890000  0.20370000  1.0 -0.0949525228
C  C18  1  0.93410000  0.42750000  0.19490000  1.0 -0.0815195842
C  C19  1  0.03320000  0.44400000  0.19870000  1.0 -0.2000739295
C  C20  1  0.06190000  0.51180000  0.21140000  1.0 0.316863087
C  C21  1  0.99160000  0.56320000  0.22030000  1.0 -0.2000739295
C  C22  1  0.89250000  0.54670000  0.21650000  1.0 -0.0694457805
C  C23  1  0.91370000  0.35920000  0.17870000  1.0 0.5197326252
C  C24  1  0.82620000  0.77540000  0.85860000  1.0 0.101622078
C  C25  1  0.82600000  0.77610000  0.92000000  1.0 -0.1688500643
C  C26  1  0.71180000  0.19570000  0.84990000  1.0 -0.1688500643
C  C27  1  0.71880000  0.19450000  0.78830000  1.0 0.0895702811
C  C28  1  0.66570000  0.76410000  0.11040000  1.0 0.101622078
C  C29  1  0.66800000  0.76460000  0.04780000  1.0 -0.2000739295
C  C30  1  0.68900000  0.20920000  0.04340000  1.0 0.0778995687
C  C31  1  0.69400000  0.20680000  0.98010000  1.0 -0.2136820695
C  C32  1  0.81840000  0.59710000  0.22490000  1.0 0.5404188344
C  C33  1  0.63620000  0.47890000  0.70370000  1.0 -0.0949525228
C  C34  1  0.56590000  0.42750000  0.69490000  1.0 -0.0815195842
C  C35  1  0.46680000  0.44400000  0.69870000  1.0 -0.2000739295
C  C36  1  0.43810000  0.51180000  0.71140000  1.0 0.316863087
C  C37  1  0.50840000  0.56320000  0.72030000  1.0 -0.2000739295
C  C38  1  0.60750000  0.54670000  0.71650000  1.0 -0.0694457805
C  C39  1  0.58630000  0.35920000  0.67870000  1.0 0.5197326252
C  C40  1  0.67380000  0.77540000  0.35860000  1.0 0.101622078
C  C41  1  0.67400000  0.77610000  0.42000000  1.0 -0.1688500643
C  C42  1  0.78820000  0.19570000  0.34990000  1.0 -0.1688500643
C  C43  1  0.78120000  0.19450000  0.28830000  1.0 0.0895702811
C  C44  1  0.83430000  0.76410000  0.61040000  1.0 0.101622078
C  C45  1  0.83200000  0.76460000  0.54780000  1.0 -0.2000739295
C  C46  1  0.81100000  0.20920000  0.54340000  1.0 0.0778995687
C  C47  1  0.80600000  0.20680000  0.48010000  1.0 -0.2136820695
C  C48  1  0.68160000  0.59710000  0.72490000  1.0 0.5404188344
C  C49  1  0.86380000  0.02110000  0.70370000  1.0 -0.0949525228
C  C50  1  0.93410000  0.07250000  0.69490000  1.0 -0.0815195842
C  C51  1  0.03320000  0.05600000  0.69870000  1.0 -0.2000739295
C  C52  1  0.06190000  0.98820000  0.71140000  1.0 0.316863087
C  C53  1  0.99160000  0.93680000  0.72030000  1.0 -0.2000739295
C  C54  1  0.89250000  0.95330000  0.71650000  1.0 -0.0694457805
C  C55  1  0.91370000  0.14080000  0.67870000  1.0 0.5197326252
C  C56  1  0.82620000  0.72460000  0.35860000  1.0 0.101622078
C  C57  1  0.82600000  0.72390000  0.42000000  1.0 -0.1688500643
C  C58  1  0.71180000  0.30430000  0.34990000  1.0 -0.1688500643
C  C59  1  0.71880000  0.30550000  0.28830000  1.0 0.0895702811
C  C60  1  0.66570000  0.73590000  0.61040000  1.0 0.101622078
C  C61  1  0.66800000  0.73540000  0.54780000  1.0 -0.2000739295
C  C62  1  0.68900000  0.29080000  0.54340000  1.0 0.0778995687
C  C63  1  0.69400000  0.29320000  0.48010000  1.0 -0.2136820695
C  C64  1  0.81840000  0.90290000  0.72490000  1.0 0.5404188344
C  C65  1  0.75000000  0.75000000  0.01130000  1.0 0.0895702811
C  C66  1  0.75000000  0.75000000  0.95320000  1.0 0.0895702811
C  C67  1  0.75000000  0.75000000  0.51130000  1.0 0.0895702811
C  C68  1  0.75000000  0.75000000  0.45320000  1.0 0.0895702811
C  C69  1  0.75000000  0.25000000  0.94490000  1.0 0.0895702811
C  C70  1  0.75000000  0.25000000  0.88090000  1.0 0.101622078
C  C71  1  0.75000000  0.25000000  0.44490000  1.0 0.0895702811
C  C72  1  0.75000000  0.25000000  0.38090000  1.0 0.101622078
C  C73  1  0.36380000  0.52110000  0.29630000  1.0 -0.0949525228
C  C74  1  0.43410000  0.57250000  0.30510000  1.0 -0.0815195842
C  C75  1  0.53320000  0.55600000  0.30130000  1.0 -0.2000739295
C  C76  1  0.56190000  0.48820000  0.28860000  1.0 0.316863087
C  C77  1  0.49160000  0.43680000  0.27970000  1.0 -0.2000739295
C  C78  1  0.39250000  0.45330000  0.28350000  1.0 -0.0694457805
C  C79  1  0.41370000  0.64080000  0.32130000  1.0 0.5197326252
C  C80  1  0.32620000  0.22460000  0.64140000  1.0 0.101622078
C  C81  1  0.32600000  0.22390000  0.58000000  1.0 -0.1688500643
C  C82  1  0.21180000  0.80430000  0.65010000  1.0 -0.1688500643
C  C83  1  0.21880000  0.80550000  0.71170000  1.0 0.0895702811
C  C84  1  0.16570000  0.23590000  0.38960000  1.0 0.101622078
C  C85  1  0.16800000  0.23540000  0.45220000  1.0 -0.2000739295
C  C86  1  0.18900000  0.79080000  0.45660000  1.0 0.0778995687
C  C87  1  0.19400000  0.79320000  0.51990000  1.0 -0.2136820695
C  C88  1  0.31840000  0.40290000  0.27510000  1.0 0.5404188344
C  C89  1  0.13620000  0.97890000  0.29630000  1.0 -0.0949525228
C  C90  1  0.06590000  0.92750000  0.30510000  1.0 -0.0815195842
C  C91  1  0.96680000  0.94400000  0.30130000  1.0 -0.2000739295
C  C92  1  0.93810000  0.01180000  0.28860000  1.0 0.316863087
C  C93  1  0.00840000  0.06320000  0.27970000  1.0 -0.2000739295
C  C94  1  0.10750000  0.04670000  0.28350000  1.0 -0.0694457805
C  C95  1  0.08630000  0.85920000  0.32130000  1.0 0.5197326252
C  C96  1  0.17380000  0.27540000  0.64140000  1.0 0.101622078
C  C97  1  0.17400000  0.27610000  0.58000000  1.0 -0.1688500643
C  C98  1  0.28820000  0.69570000  0.65010000  1.0 -0.1688500643
C  C99  1  0.28120000  0.69450000  0.71170000  1.0 0.0895702811
C  C100  1  0.33430000  0.26410000  0.38960000  1.0 0.101622078
C  C101  1  0.33200000  0.26460000  0.45220000  1.0 -0.2000739295
C  C102  1  0.31100000  0.70920000  0.45660000  1.0 0.0778995687
C  C103  1  0.30600000  0.70680000  0.51990000  1.0 -0.2136820695
C  C104  1  0.18160000  0.09710000  0.27510000  1.0 0.5404188344
C  C105  1  0.36380000  0.97890000  0.79630000  1.0 -0.0949525228
C  C106  1  0.43410000  0.92750000  0.80510000  1.0 -0.0815195842
C  C107  1  0.53320000  0.94400000  0.80130000  1.0 -0.2000739295
C  C108  1  0.56190000  0.01180000  0.78860000  1.0 0.316863087
C  C109  1  0.49160000  0.06320000  0.77970000  1.0 -0.2000739295
C  C110  1  0.39250000  0.04670000  0.78350000  1.0 -0.0694457805
C  C111  1  0.41370000  0.85920000  0.82130000  1.0 0.5197326252
C  C112  1  0.32620000  0.27540000  0.14140000  1.0 0.101622078
C  C113  1  0.32600000  0.27610000  0.08000000  1.0 -0.1688500643
C  C114  1  0.21180000  0.69570000  0.15010000  1.0 -0.1688500643
C  C115  1  0.21880000  0.69450000  0.21170000  1.0 0.0895702811
C  C116  1  0.16570000  0.26410000  0.88960000  1.0 0.101622078
C  C117  1  0.16800000  0.26460000  0.95220000  1.0 -0.2000739295
C  C118  1  0.18900000  0.70920000  0.95660000  1.0 0.0778995687
C  C119  1  0.19400000  0.70680000  0.01990000  1.0 -0.2136820695
C  C120  1  0.31840000  0.09710000  0.77510000  1.0 0.5404188344
C  C121  1  0.13620000  0.52110000  0.79630000  1.0 -0.0949525228
C  C122  1  0.06590000  0.57250000  0.80510000  1.0 -0.0815195842
C  C123  1  0.96680000  0.55600000  0.80130000  1.0 -0.2000739295
C  C124  1  0.93810000  0.48820000  0.78860000  1.0 0.316863087
C  C125  1  0.00840000  0.43680000  0.77970000  1.0 -0.2000739295
C  C126  1  0.10750000  0.45330000  0.78350000  1.0 -0.0694457805
C  C127  1  0.08630000  0.64080000  0.82130000  1.0 0.5197326252
C  C128  1  0.17380000  0.22460000  0.14140000  1.0 0.101622078
C  C129  1  0.17400000  0.22390000  0.08000000  1.0 -0.1688500643
C  C130  1  0.28820000  0.80430000  0.15010000  1.0 -0.1688500643
C  C131  1  0.28120000  0.80550000  0.21170000  1.0 0.0895702811
C  C132  1  0.33430000  0.23590000  0.88960000  1.0 0.101622078
C  C133  1  0.33200000  0.23540000  0.95220000  1.0 -0.2000739295
C  C134  1  0.31100000  0.79080000  0.95660000  1.0 0.0778995687
C  C135  1  0.30600000  0.79320000  0.01990000  1.0 -0.2136820695
C  C136  1  0.18160000  0.40290000  0.77510000  1.0 0.5404188344
C  C137  1  0.25000000  0.25000000  0.48870000  1.0 0.0895702811
C  C138  1  0.25000000  0.25000000  0.54680000  1.0 0.0895702811
C  C139  1  0.25000000  0.25000000  0.98870000  1.0 0.0895702811
C  C140  1  0.25000000  0.25000000  0.04680000  1.0 0.0895702811
C  C141  1  0.25000000  0.75000000  0.55510000  1.0 0.0895702811
C  C142  1  0.25000000  0.75000000  0.61910000  1.0 0.101622078
C  C143  1  0.25000000  0.75000000  0.05510000  1.0 0.0895702811
C  C144  1  0.25000000  0.75000000  0.11910000  1.0 0.101622078
N  N1  1  0.75000000  0.75000000  0.82790000  1.0 -0.2000739295
N  N2  1  0.75000000  0.75000000  0.13770000  1.0 -0.2000739295
N  N3  1  0.75000000  0.75000000  0.32790000  1.0 -0.2000739295
N  N4  1  0.75000000  0.75000000  0.63770000  1.0 -0.2000739295
N  N5  1  0.75000000  0.25000000  0.75440000  1.0 -0.2136820695
N  N6  1  0.75000000  0.25000000  0.07930000  1.0 -0.2406498632
N  N7  1  0.75000000  0.25000000  0.25440000  1.0 -0.2136820695
N  N8  1  0.75000000  0.25000000  0.57930000  1.0 -0.2406498632
N  N9  1  0.25000000  0.25000000  0.67210000  1.0 -0.2000739295
N  N10  1  0.25000000  0.25000000  0.36230000  1.0 -0.2000739295
N  N11  1  0.25000000  0.25000000  0.17210000  1.0 -0.2000739295
N  N12  1  0.25000000  0.25000000  0.86230000  1.0 -0.2000739295
N  N13  1  0.25000000  0.75000000  0.74560000  1.0 -0.2136820695
N  N14  1  0.25000000  0.75000000  0.42070000  1.0 -0.2406498632
N  N15  1  0.25000000  0.75000000  0.24560000  1.0 -0.2136820695
N  N16  1  0.25000000  0.75000000  0.92070000  1.0 -0.2406498632
O  O1  1  0.67640000  0.15670000  0.16750000  1.0 -0.5147454283
O  O2  1  0.66010000  0.83750000  0.22720000  1.0 -0.5553912661
O  O3  1  0.52990000  0.19390000  0.18160000  1.0 -0.5462458721
O  O4  1  0.35000000  0.96020000  0.21630000  1.0 -0.4039316317
O  O5  1  0.77250000  0.92150000  0.23590000  1.0 -0.5794914207
O  O6  1  0.82360000  0.34330000  0.16750000  1.0 -0.5147454283
O  O7  1  0.83990000  0.66250000  0.22720000  1.0 -0.5553912661
O  O8  1  0.97010000  0.30610000  0.18160000  1.0 -0.5462458721
O  O9  1  0.15000000  0.53980000  0.21630000  1.0 -0.4039316317
O  O10  1  0.72750000  0.57850000  0.23590000  1.0 -0.5794914207
O  O11  1  0.67640000  0.34330000  0.66750000  1.0 -0.5147454283
O  O12  1  0.66010000  0.66250000  0.72720000  1.0 -0.5553912661
O  O13  1  0.52990000  0.30610000  0.68160000  1.0 -0.5462458721
O  O14  1  0.35000000  0.53980000  0.71630000  1.0 -0.4039316317
O  O15  1  0.77250000  0.57850000  0.73590000  1.0 -0.5794914207
O  O16  1  0.82360000  0.15670000  0.66750000  1.0 -0.5147454283
O  O17  1  0.83990000  0.83750000  0.72720000  1.0 -0.5553912661
O  O18  1  0.97010000  0.19390000  0.68160000  1.0 -0.5462458721
O  O19  1  0.15000000  0.96020000  0.71630000  1.0 -0.4039316317
O  O20  1  0.72750000  0.92150000  0.73590000  1.0 -0.5794914207
O  O21  1  0.32360000  0.65670000  0.33250000  1.0 -0.5147454283
O  O22  1  0.33990000  0.33750000  0.27280000  1.0 -0.5553912661
O  O23  1  0.47010000  0.69390000  0.31840000  1.0 -0.5462458721
O  O24  1  0.65000000  0.46020000  0.28370000  1.0 -0.4039316317
O  O25  1  0.22750000  0.42150000  0.26410000  1.0 -0.5794914207
O  O26  1  0.17640000  0.84330000  0.33250000  1.0 -0.5147454283
O  O27  1  0.16010000  0.16250000  0.27280000  1.0 -0.5553912661
O  O28  1  0.02990000  0.80610000  0.31840000  1.0 -0.5462458721
O  O29  1  0.85000000  0.03980000  0.28370000  1.0 -0.4039316317
O  O30  1  0.27250000  0.07850000  0.26410000  1.0 -0.5794914207
O  O31  1  0.32360000  0.84330000  0.83250000  1.0 -0.5147454283
O  O32  1  0.33990000  0.16250000  0.77280000  1.0 -0.5553912661
O  O33  1  0.47010000  0.80610000  0.81840000  1.0 -0.5462458721
O  O34  1  0.65000000  0.03980000  0.78370000  1.0 -0.4039316317
O  O35  1  0.22750000  0.07850000  0.76410000  1.0 -0.5794914207
O  O36  1  0.17640000  0.65670000  0.83250000  1.0 -0.5147454283
O  O37  1  0.16010000  0.33750000  0.77280000  1.0 -0.5553912661
O  O38  1  0.02990000  0.69390000  0.81840000  1.0 -0.5462458721
O  O39  1  0.85000000  0.46020000  0.78370000  1.0 -0.4039316317
O  O40  1  0.27250000  0.42150000  0.76410000  1.0 -0.5794914207
