# DDEC6 charges by PACMAN v1.1 (https://github.com/mtap-research/PACMAN-charge/)
data_QETQIP_ASR_pacman
_symmetry_space_group_name_H-M   'P 1'
_cell_length_a   19.45800000
_cell_length_b   22.57700000
_cell_length_c   45.76300000
_cell_angle_alpha   90.00000000
_cell_angle_beta   96.35200000
_cell_angle_gamma   90.00000000
_symmetry_Int_Tables_number   1
_chemical_formula_structural   Rh2C52N8O9
_chemical_formula_sum   'Rh24 C624 N96 O108'
_cell_volume   19980.41700017
_cell_formula_units_Z   12
loop_
 _symmetry_equiv_pos_site_id
 _symmetry_equiv_pos_as_xyz
  1  'x, y, z'
loop_
 _atom_site_type_symbol
 _atom_site_label
 _atom_site_symmetry_multiplicity
 _atom_site_fract_x
 _atom_site_fract_y
 _atom_site_fract_z
 _atom_site_occupancy
 _atom_site_charge
Rh  Rh1  1  0.51178000  0.01439000  0.57368000  1.0 0.4963614863
Rh  Rh2  1  0.51178000  0.98561000  0.07368000  1.0 0.4963614863
Rh  Rh3  1  0.48822000  0.98561000  0.42632000  1.0 0.4963614863
Rh  Rh4  1  0.48822000  0.01439000  0.92632000  1.0 0.4963614863
Rh  Rh5  1  0.47429000  0.10783000  0.54882000  1.0 0.4866763127
Rh  Rh6  1  0.47429000  0.89217000  0.04882000  1.0 0.4817435813
Rh  Rh7  1  0.52571000  0.89217000  0.45118000  1.0 0.4817435813
Rh  Rh8  1  0.52571000  0.10783000  0.95118000  1.0 0.4866763127
Rh  Rh9  1  0.03575000  0.64471000  0.51879000  1.0 0.448996253
Rh  Rh10  1  0.03575000  0.35529000  0.01879000  1.0 0.448996253
Rh  Rh11  1  0.96425000  0.35529000  0.48121000  1.0 0.448996253
Rh  Rh12  1  0.96425000  0.64471000  0.98121000  1.0 0.448996253
Rh  Rh13  1  0.12364000  0.60008000  0.49085000  1.0 0.4699842331
Rh  Rh14  1  0.12364000  0.39992000  0.99085000  1.0 0.4817435813
Rh  Rh15  1  0.87636000  0.39992000  0.50915000  1.0 0.4817435813
Rh  Rh16  1  0.87636000  0.60008000  0.00915000  1.0 0.4699842331
Rh  Rh17  1  0.67411000  0.59986000  0.76564000  1.0 0.4639929754
Rh  Rh18  1  0.67411000  0.40014000  0.26564000  1.0 0.4699842331
Rh  Rh19  1  0.32589000  0.40014000  0.23436000  1.0 0.4699842331
Rh  Rh20  1  0.32589000  0.59986000  0.73436000  1.0 0.4639929754
Rh  Rh21  1  0.61866000  0.59421000  0.81108000  1.0 0.4866763127
Rh  Rh22  1  0.61866000  0.40579000  0.31108000  1.0 0.4817435813
Rh  Rh23  1  0.38134000  0.40579000  0.18892000  1.0 0.4817435813
Rh  Rh24  1  0.38134000  0.59421000  0.68892000  1.0 0.4866763127
C  C1  1  0.41210000  0.99990000  0.52190000  1.0 0.6037590873
C  C2  1  0.41210000  0.00010000  0.02190000  1.0 0.6037590873
C  C3  1  0.58790000  0.00010000  0.47810000  1.0 0.6037590873
C  C4  1  0.58790000  0.99990000  0.97810000  1.0 0.6037590873
C  C5  1  0.01690000  0.42890000  0.53120000  1.0 0.5765893531
C  C6  1  0.01690000  0.57110000  0.03120000  1.0 0.5765893531
C  C7  1  0.98310000  0.57110000  0.46880000  1.0 0.5765893531
C  C8  1  0.98310000  0.42890000  0.96880000  1.0 0.5765893531
C  C9  1  0.07780000  0.52540000  0.53640000  1.0 0.5713960798
C  C10  1  0.07780000  0.47460000  0.03640000  1.0 0.5713960798
C  C11  1  0.92220000  0.47460000  0.46360000  1.0 0.5713960798
C  C12  1  0.92220000  0.52540000  0.96360000  1.0 0.5713960798
C  C13  1  0.07240000  0.46430000  0.55080000  1.0 -0.3704578395
C  C14  1  0.07240000  0.53570000  0.05080000  1.0 -0.3704578395
C  C15  1  0.92760000  0.53570000  0.44920000  1.0 -0.3704578395
C  C16  1  0.92760000  0.46430000  0.94920000  1.0 -0.3704578395
C  C17  1  0.41090000  0.95070000  0.47470000  1.0 0.5713960798
C  C18  1  0.41090000  0.04930000  0.97470000  1.0 0.5713960798
C  C19  1  0.58910000  0.04930000  0.52530000  1.0 0.5713960798
C  C20  1  0.58910000  0.95070000  0.02530000  1.0 0.5713960798
C  C21  1  0.36560000  0.96440000  0.49920000  1.0 -0.2916090342
C  C22  1  0.36560000  0.03560000  0.99920000  1.0 -0.2916090342
C  C23  1  0.63440000  0.03560000  0.50080000  1.0 -0.2916090342
C  C24  1  0.63440000  0.96440000  0.00080000  1.0 -0.2916090342
C  C25  1  0.55400000  0.67500000  0.76620000  1.0 0.5713960798
C  C26  1  0.55400000  0.32500000  0.26620000  1.0 0.5713960798
C  C27  1  0.44600000  0.32500000  0.23380000  1.0 0.5713960798
C  C28  1  0.44600000  0.67500000  0.73380000  1.0 0.5713960798
C  C29  1  0.50000000  0.71520000  0.75000000  1.0 -0.356549092
C  C30  1  0.50000000  0.28480000  0.25000000  1.0 -0.356549092
C  C31  1  0.55740000  0.51730000  0.76450000  1.0 0.5910045427
C  C32  1  0.55740000  0.48270000  0.26450000  1.0 0.5910045427
C  C33  1  0.44260000  0.48270000  0.23550000  1.0 0.5910045427
C  C34  1  0.44260000  0.51730000  0.73550000  1.0 0.5910045427
C  C35  1  0.50000000  0.47860000  0.75000000  1.0 -0.3120571452
C  C36  1  0.50000000  0.52140000  0.25000000  1.0 -0.3120571452
C  C37  1  0.56690000  0.89800000  0.61310000  1.0 0.0778465566
C  C38  1  0.56690000  0.10200000  0.11310000  1.0 0.0778465566
C  C39  1  0.43310000  0.10200000  0.38690000  1.0 0.0778465566
C  C40  1  0.43310000  0.89800000  0.88690000  1.0 0.0778465566
C  C41  1  0.60720000  0.84660000  0.61970000  1.0 -0.1574771631
C  C42  1  0.60720000  0.15340000  0.11970000  1.0 -0.1574771631
C  C43  1  0.39280000  0.15340000  0.38030000  1.0 -0.1574771631
C  C44  1  0.39280000  0.84660000  0.88030000  1.0 -0.1574771631
C  C45  1  0.63690000  0.81890000  0.59640000  1.0 0.070086675
C  C46  1  0.63690000  0.18110000  0.09640000  1.0 0.070086675
C  C47  1  0.36310000  0.18110000  0.40360000  1.0 0.070086675
C  C48  1  0.36310000  0.81890000  0.90360000  1.0 0.070086675
C  C49  1  0.62450000  0.84320000  0.56770000  1.0 -0.0594991477
C  C50  1  0.62450000  0.15680000  0.06770000  1.0 -0.0594991477
C  C51  1  0.37550000  0.15680000  0.43230000  1.0 -0.0594991477
C  C52  1  0.37550000  0.84320000  0.93230000  1.0 -0.0594991477
C  C53  1  0.58170000  0.89360000  0.56370000  1.0 0.2044679743
C  C54  1  0.58170000  0.10640000  0.06370000  1.0 0.2067612311
C  C55  1  0.41830000  0.10640000  0.43630000  1.0 0.2067612311
C  C56  1  0.41830000  0.89360000  0.93630000  1.0 0.2044679743
C  C57  1  0.68220000  0.76720000  0.60310000  1.0 0.3856885058
C  C58  1  0.68220000  0.23280000  0.10310000  1.0 0.3822930761
C  C59  1  0.31780000  0.23280000  0.39690000  1.0 0.3822930761
C  C60  1  0.31780000  0.76720000  0.89690000  1.0 0.3822930761
C  C61  1  0.72180000  0.69630000  0.63560000  1.0 0.3977800172
C  C62  1  0.72180000  0.30370000  0.13560000  1.0 0.3977800172
C  C63  1  0.27820000  0.30370000  0.36440000  1.0 0.3977800172
C  C64  1  0.27820000  0.69630000  0.86440000  1.0 0.3977800172
C  C65  1  0.77200000  0.70920000  0.59330000  1.0 0.4054252428
C  C66  1  0.77200000  0.29080000  0.09330000  1.0 0.4054252428
C  C67  1  0.22800000  0.29080000  0.40670000  1.0 0.4054252428
C  C68  1  0.22800000  0.70920000  0.90670000  1.0 0.3977800172
C  C69  1  0.82740000  0.69400000  0.57500000  1.0 0.0592902509
C  C70  1  0.82740000  0.30600000  0.07500000  1.0 0.0592902509
C  C71  1  0.17260000  0.30600000  0.42500000  1.0 0.0592902509
C  C72  1  0.17260000  0.69400000  0.92500000  1.0 0.0592902509
C  C73  1  0.83050000  0.71800000  0.54730000  1.0 -0.1007882959
C  C74  1  0.83050000  0.28200000  0.04730000  1.0 -0.1007882959
C  C75  1  0.16950000  0.28200000  0.45270000  1.0 -0.1007882959
C  C76  1  0.16950000  0.71800000  0.95270000  1.0 -0.1007882959
C  C77  1  0.88720000  0.70440000  0.53150000  1.0 0.1604175026
C  C78  1  0.88720000  0.29560000  0.03150000  1.0 0.1604175026
C  C79  1  0.11280000  0.29560000  0.46850000  1.0 0.1502893986
C  C80  1  0.11280000  0.70440000  0.96850000  1.0 0.1502893986
C  C81  1  0.93210000  0.64010000  0.56840000  1.0 0.239024267
C  C82  1  0.93210000  0.35990000  0.06840000  1.0 0.239024267
C  C83  1  0.06790000  0.35990000  0.43160000  1.0 0.239024267
C  C84  1  0.06790000  0.64010000  0.93160000  1.0 0.239024267
C  C85  1  0.87920000  0.65310000  0.58560000  1.0 -0.107096363
C  C86  1  0.87920000  0.34690000  0.08560000  1.0 -0.107096363
C  C87  1  0.12080000  0.34690000  0.41440000  1.0 -0.107096363
C  C88  1  0.12080000  0.65310000  0.91440000  1.0 -0.107096363
C  C89  1  0.71590000  0.66550000  0.66330000  1.0 0.0502898097
C  C90  1  0.71590000  0.33450000  0.16330000  1.0 0.0502898097
C  C91  1  0.28410000  0.33450000  0.33670000  1.0 0.0502898097
C  C92  1  0.28410000  0.66550000  0.83670000  1.0 0.0502898097
C  C93  1  0.65100000  0.66290000  0.67410000  1.0 -0.0696433067
C  C94  1  0.65100000  0.33710000  0.17410000  1.0 -0.0696433067
C  C95  1  0.34900000  0.33710000  0.32590000  1.0 -0.0696433067
C  C96  1  0.34900000  0.66290000  0.82590000  1.0 -0.0696433067
C  C97  1  0.64530000  0.63430000  0.70060000  1.0 0.2220967755
C  C98  1  0.64530000  0.36570000  0.20060000  1.0 0.2220967755
C  C99  1  0.35470000  0.36570000  0.29940000  1.0 0.2220967755
C  C100  1  0.35470000  0.63430000  0.79940000  1.0 0.2220967755
C  C101  1  0.76380000  0.61480000  0.70760000  1.0 0.070086675
C  C102  1  0.76380000  0.38520000  0.20760000  1.0 0.070086675
C  C103  1  0.23620000  0.38520000  0.29240000  1.0 0.070086675
C  C104  1  0.23620000  0.61480000  0.79240000  1.0 0.070086675
C  C105  1  0.77390000  0.64040000  0.68000000  1.0 -0.1007882959
C  C106  1  0.77390000  0.35960000  0.18000000  1.0 -0.1007882959
C  C107  1  0.22610000  0.35960000  0.32000000  1.0 -0.1007882959
C  C108  1  0.22610000  0.64040000  0.82000000  1.0 -0.1007882959
C  C109  1  0.18480000  0.48390000  0.47090000  1.0 0.239024267
C  C110  1  0.18480000  0.51610000  0.97090000  1.0 0.239024267
C  C111  1  0.81520000  0.51610000  0.52910000  1.0 0.239024267
C  C112  1  0.81520000  0.48390000  0.02910000  1.0 0.239024267
C  C113  1  0.23320000  0.44250000  0.46410000  1.0 -0.0696433067
C  C114  1  0.23320000  0.55750000  0.96410000  1.0 -0.0696433067
C  C115  1  0.76680000  0.55750000  0.53590000  1.0 -0.0696433067
C  C116  1  0.76680000  0.44250000  0.03590000  1.0 -0.0696433067
C  C117  1  0.29320000  0.46110000  0.45180000  1.0 0.070086675
C  C118  1  0.29320000  0.53890000  0.95180000  1.0 0.070086675
C  C119  1  0.70680000  0.53890000  0.54820000  1.0 0.070086675
C  C120  1  0.70680000  0.46110000  0.04820000  1.0 0.070086675
C  C121  1  0.30190000  0.52140000  0.44670000  1.0 -0.1207783469
C  C122  1  0.30190000  0.47860000  0.94670000  1.0 -0.1207783469
C  C123  1  0.69810000  0.47860000  0.55330000  1.0 -0.1207783469
C  C124  1  0.69810000  0.52140000  0.05330000  1.0 -0.1207783469
C  C125  1  0.25100000  0.56060000  0.45480000  1.0 0.1036576756
C  C126  1  0.25100000  0.43940000  0.95480000  1.0 0.1036576756
C  C127  1  0.74900000  0.43940000  0.54520000  1.0 0.1036576756
C  C128  1  0.74900000  0.56060000  0.04520000  1.0 0.1036576756
C  C129  1  0.34870000  0.41860000  0.44640000  1.0 0.3822930761
C  C130  1  0.34870000  0.58140000  0.94640000  1.0 0.3822930761
C  C131  1  0.65130000  0.58140000  0.55360000  1.0 0.3822930761
C  C132  1  0.65130000  0.41860000  0.05360000  1.0 0.3822930761
C  C133  1  0.41000000  0.33550000  0.45930000  1.0 0.3693794233
C  C134  1  0.41000000  0.66450000  0.95930000  1.0 0.3693794233
C  C135  1  0.59000000  0.66450000  0.54070000  1.0 0.3693794233
C  C136  1  0.59000000  0.33550000  0.04070000  1.0 0.3693794233
C  C137  1  0.43560000  0.39130000  0.42120000  1.0 0.3693794233
C  C138  1  0.43560000  0.60870000  0.92120000  1.0 0.3693794233
C  C139  1  0.56440000  0.60870000  0.57880000  1.0 0.3693794233
C  C140  1  0.56440000  0.39130000  0.07880000  1.0 0.3693794233
C  C141  1  0.47930000  0.40230000  0.39700000  1.0 0.0592902509
C  C142  1  0.47930000  0.59770000  0.89700000  1.0 0.0592902509
C  C143  1  0.52070000  0.59770000  0.60300000  1.0 0.0592902509
C  C144  1  0.52070000  0.40230000  0.10300000  1.0 0.0592902509
C  C145  1  0.45140000  0.42280000  0.36970000  1.0 -0.1007882959
C  C146  1  0.45140000  0.57720000  0.86970000  1.0 -0.1007882959
C  C147  1  0.54860000  0.57720000  0.63030000  1.0 -0.1007882959
C  C148  1  0.54860000  0.42280000  0.13030000  1.0 -0.1007882959
C  C149  1  0.49350000  0.42790000  0.34730000  1.0 0.2289759088
C  C150  1  0.49350000  0.57210000  0.84730000  1.0 0.2289759088
C  C151  1  0.50650000  0.57210000  0.65270000  1.0 0.2289759088
C  C152  1  0.50650000  0.42790000  0.15270000  1.0 0.2289759088
C  C153  1  0.58930000  0.39870000  0.37850000  1.0 0.1310378941
C  C154  1  0.58930000  0.60130000  0.87850000  1.0 0.1310378941
C  C155  1  0.41070000  0.60130000  0.62150000  1.0 0.1310378941
C  C156  1  0.41070000  0.39870000  0.12150000  1.0 0.1310378941
C  C157  1  0.55160000  0.38880000  0.40180000  1.0 -0.0696433067
C  C158  1  0.55160000  0.61120000  0.90180000  1.0 -0.0696433067
C  C159  1  0.44840000  0.61120000  0.59820000  1.0 -0.0696433067
C  C160  1  0.44840000  0.38880000  0.09820000  1.0 -0.0696433067
C  C161  1  0.42390000  0.28570000  0.47970000  1.0 0.070086675
C  C162  1  0.42390000  0.71430000  0.97970000  1.0 0.070086675
C  C163  1  0.57610000  0.71430000  0.52030000  1.0 0.070086675
C  C164  1  0.57610000  0.28570000  0.02030000  1.0 0.070086675
C  C165  1  0.39170000  0.28190000  0.50540000  1.0 -0.107096363
C  C166  1  0.39170000  0.71810000  0.00540000  1.0 -0.107096363
C  C167  1  0.60830000  0.71810000  0.49460000  1.0 -0.107096363
C  C168  1  0.60830000  0.28190000  0.99460000  1.0 -0.107096363
C  C169  1  0.40540000  0.23500000  0.52470000  1.0 0.0502898097
C  C170  1  0.40540000  0.76500000  0.02470000  1.0 0.0502898097
C  C171  1  0.59460000  0.76500000  0.47530000  1.0 0.0502898097
C  C172  1  0.59460000  0.23500000  0.97530000  1.0 0.0502898097
C  C173  1  0.48220000  0.19570000  0.49490000  1.0 0.2067612311
C  C174  1  0.48220000  0.80430000  0.99490000  1.0 0.2067612311
C  C175  1  0.51780000  0.80430000  0.50510000  1.0 0.2067612311
C  C176  1  0.51780000  0.19570000  0.00510000  1.0 0.2067612311
C  C177  1  0.47210000  0.24220000  0.47470000  1.0 -0.0594991477
C  C178  1  0.47210000  0.75780000  0.97470000  1.0 -0.0594991477
C  C179  1  0.52790000  0.75780000  0.52530000  1.0 -0.0594991477
C  C180  1  0.52790000  0.24220000  0.02530000  1.0 -0.0594991477
C  C181  1  0.57580000  0.12170000  0.60070000  1.0 0.1686923035
C  C182  1  0.57580000  0.87830000  0.10070000  1.0 0.1686923035
C  C183  1  0.42420000  0.87830000  0.39930000  1.0 0.1686923035
C  C184  1  0.42420000  0.12170000  0.89930000  1.0 0.1686923035
C  C185  1  0.38970000  0.06980000  0.59500000  1.0 0.4159658697
C  C186  1  0.38970000  0.93020000  0.09500000  1.0 0.4159658697
C  C187  1  0.61030000  0.93020000  0.40500000  1.0 0.4159658697
C  C188  1  0.61030000  0.06980000  0.90500000  1.0 0.4159658697
C  C189  1  0.07760000  0.71720000  0.47050000  1.0 0.2475119205
C  C190  1  0.07760000  0.28280000  0.97050000  1.0 0.2475119205
C  C191  1  0.92240000  0.28280000  0.52950000  1.0 0.2475119205
C  C192  1  0.92240000  0.71720000  0.02950000  1.0 0.2475119205
C  C193  1  0.17920000  0.66450000  0.54360000  1.0 0.1502893986
C  C194  1  0.17920000  0.33550000  0.04360000  1.0 0.1502893986
C  C195  1  0.82080000  0.33550000  0.45640000  1.0 0.1502893986
C  C196  1  0.82080000  0.66450000  0.95640000  1.0 0.1502893986
C  C197  1  0.73960000  0.51550000  0.80860000  1.0 0.3121277911
C  C198  1  0.73960000  0.48450000  0.30860000  1.0 0.3121277911
C  C199  1  0.26040000  0.48450000  0.19140000  1.0 0.3121277911
C  C200  1  0.26040000  0.51550000  0.69140000  1.0 0.3121277911
C  C201  1  0.72230000  0.68790000  0.81050000  1.0 0.1686923035
C  C202  1  0.72230000  0.31210000  0.31050000  1.0 0.1686923035
C  C203  1  0.27770000  0.31210000  0.18950000  1.0 0.1686923035
C  C204  1  0.27770000  0.68790000  0.68950000  1.0 0.1686923035
C  C205  1  0.62270000  0.03240000  0.62470000  1.0 0.0592902509
C  C206  1  0.62270000  0.96760000  0.12470000  1.0 0.0592902509
C  C207  1  0.37730000  0.96760000  0.37530000  1.0 0.0592902509
C  C208  1  0.37730000  0.03240000  0.87530000  1.0 0.0592902509
C  C209  1  0.67600000  0.99950000  0.61500000  1.0 -0.0092542877
C  C210  1  0.67600000  0.00050000  0.11500000  1.0 -0.0092542877
C  C211  1  0.32400000  0.00050000  0.38500000  1.0 -0.0092542877
C  C212  1  0.32400000  0.99950000  0.88500000  1.0 -0.0092542877
C  C213  1  0.72540000  0.97150000  0.63550000  1.0 0.0393195068
C  C214  1  0.72540000  0.02850000  0.13550000  1.0 0.0328391874
C  C215  1  0.27460000  0.02850000  0.36450000  1.0 0.0328391874
C  C216  1  0.27460000  0.97150000  0.86450000  1.0 0.0328391874
C  C217  1  0.70870000  0.98370000  0.66620000  1.0 0.0017350181
C  C218  1  0.70870000  0.01630000  0.16620000  1.0 0.0110383002
C  C219  1  0.29130000  0.01630000  0.33380000  1.0 0.0017350181
C  C220  1  0.29130000  0.98370000  0.83380000  1.0 0.0110383002
C  C221  1  0.66020000  0.01320000  0.67670000  1.0 -0.0187466726
C  C222  1  0.66020000  0.98680000  0.17670000  1.0 -0.0092542877
C  C223  1  0.33980000  0.98680000  0.32330000  1.0 -0.0092542877
C  C224  1  0.33980000  0.01320000  0.82330000  1.0 -0.0092542877
C  C225  1  0.61260000  0.03970000  0.65390000  1.0 -0.0511060407
C  C226  1  0.61260000  0.96030000  0.15390000  1.0 -0.0511060407
C  C227  1  0.38740000  0.96030000  0.34610000  1.0 -0.0511060407
C  C228  1  0.38740000  0.03970000  0.84610000  1.0 -0.0594991477
C  C229  1  0.77370000  0.98760000  0.71040000  1.0 -0.1427510657
C  C230  1  0.77370000  0.01240000  0.21040000  1.0 -0.1508720808
C  C231  1  0.22630000  0.01240000  0.28960000  1.0 -0.1508720808
C  C232  1  0.22630000  0.98760000  0.78960000  1.0 -0.1508720808
C  C233  1  0.53830000  0.21440000  0.58070000  1.0 0.070086675
C  C234  1  0.53830000  0.78560000  0.08070000  1.0 0.070086675
C  C235  1  0.46170000  0.78560000  0.41930000  1.0 0.070086675
C  C236  1  0.46170000  0.21440000  0.91930000  1.0 0.070086675
C  C237  1  0.59890000  0.23940000  0.57300000  1.0 0.0110383002
C  C238  1  0.59890000  0.76060000  0.07300000  1.0 0.0110383002
C  C239  1  0.40110000  0.76060000  0.42700000  1.0 0.0110383002
C  C240  1  0.40110000  0.23940000  0.92700000  1.0 0.0110383002
C  C241  1  0.60570000  0.30350000  0.57690000  1.0 -0.0893194248
C  C242  1  0.60570000  0.69650000  0.07690000  1.0 -0.0893194248
C  C243  1  0.39430000  0.69650000  0.42310000  1.0 -0.0893194248
C  C244  1  0.39430000  0.30350000  0.92310000  1.0 -0.0893194248
C  C245  1  0.55600000  0.33500000  0.58610000  1.0 0.0194206377
C  C246  1  0.55600000  0.66500000  0.08610000  1.0 0.0194206377
C  C247  1  0.44400000  0.66500000  0.41390000  1.0 0.0194206377
C  C248  1  0.44400000  0.33500000  0.91390000  1.0 0.0110383002
C  C249  1  0.49560000  0.31170000  0.59660000  1.0 0.0502898097
C  C250  1  0.49560000  0.68830000  0.09660000  1.0 0.0502898097
C  C251  1  0.50440000  0.68830000  0.40340000  1.0 0.0502898097
C  C252  1  0.50440000  0.31170000  0.90340000  1.0 0.0502898097
C  C253  1  0.48790000  0.24880000  0.59170000  1.0 0.0194206377
C  C254  1  0.48790000  0.75120000  0.09170000  1.0 0.0194206377
C  C255  1  0.51210000  0.75120000  0.40830000  1.0 0.0194206377
C  C256  1  0.51210000  0.24880000  0.90830000  1.0 0.0194206377
C  C257  1  0.51510000  0.43660000  0.59480000  1.0 0.2289759088
C  C258  1  0.51510000  0.56340000  0.09480000  1.0 0.2289759088
C  C259  1  0.48490000  0.56340000  0.40520000  1.0 0.2289759088
C  C260  1  0.48490000  0.43660000  0.90520000  1.0 0.2289759088
C  C261  1  0.42520000  0.99110000  0.62570000  1.0 0.1502893986
C  C262  1  0.42520000  0.00890000  0.12570000  1.0 0.1502893986
C  C263  1  0.57480000  0.00890000  0.37430000  1.0 0.1502893986
C  C264  1  0.57480000  0.99110000  0.87430000  1.0 0.1502893986
C  C265  1  0.43040000  0.02250000  0.65330000  1.0 -0.0289190255
C  C266  1  0.43040000  0.97750000  0.15330000  1.0 -0.0289190255
C  C267  1  0.56960000  0.97750000  0.34670000  1.0 -0.0289190255
C  C268  1  0.56960000  0.02250000  0.84670000  1.0 -0.0289190255
C  C269  1  0.42140000  0.98280000  0.67940000  1.0 -0.0893194248
C  C270  1  0.42140000  0.01720000  0.17940000  1.0 -0.0893194248
C  C271  1  0.57860000  0.01720000  0.32060000  1.0 -0.0893194248
C  C272  1  0.57860000  0.98280000  0.82060000  1.0 -0.0893194248
C  C273  1  0.40400000  0.92650000  0.67410000  1.0 0.2067612311
C  C274  1  0.40400000  0.07350000  0.17410000  1.0 0.2067612311
C  C275  1  0.59600000  0.07350000  0.32590000  1.0 0.2067612311
C  C276  1  0.59600000  0.92650000  0.82590000  1.0 0.2067612311
C  C277  1  0.39520000  0.89890000  0.64770000  1.0 -0.1207783469
C  C278  1  0.39520000  0.10110000  0.14770000  1.0 -0.1207783469
C  C279  1  0.60480000  0.10110000  0.35230000  1.0 -0.1207783469
C  C280  1  0.60480000  0.89890000  0.85230000  1.0 -0.1207783469
C  C281  1  0.40820000  0.93320000  0.62310000  1.0 -0.0511060407
C  C282  1  0.40820000  0.06680000  0.12310000  1.0 -0.0511060407
C  C283  1  0.59180000  0.06680000  0.37690000  1.0 -0.0511060407
C  C284  1  0.59180000  0.93320000  0.87690000  1.0 -0.0511060407
C  C285  1  0.37060000  0.83620000  0.69750000  1.0 0.1310378941
C  C286  1  0.37060000  0.16380000  0.19750000  1.0 0.1310378941
C  C287  1  0.62940000  0.16380000  0.30250000  1.0 0.1310378941
C  C288  1  0.62940000  0.83620000  0.80250000  1.0 0.1310378941
C  C289  1  0.33240000  0.14550000  0.56530000  1.0 0.1686923035
C  C290  1  0.33240000  0.85450000  0.06530000  1.0 0.1604175026
C  C291  1  0.66760000  0.85450000  0.43470000  1.0 0.1686923035
C  C292  1  0.66760000  0.14550000  0.93470000  1.0 0.1686923035
C  C293  1  0.31470000  0.18520000  0.58620000  1.0 -0.0594991477
C  C294  1  0.31470000  0.81480000  0.08620000  1.0 -0.0594991477
C  C295  1  0.68530000  0.81480000  0.41380000  1.0 -0.0594991477
C  C296  1  0.68530000  0.18520000  0.91380000  1.0 -0.0594991477
C  C297  1  0.25800000  0.22510000  0.57760000  1.0 -0.1207783469
C  C298  1  0.25800000  0.77490000  0.07760000  1.0 -0.1207783469
C  C299  1  0.74200000  0.77490000  0.42240000  1.0 -0.1207783469
C  C300  1  0.74200000  0.22510000  0.92240000  1.0 -0.1275390149
C  C301  1  0.22820000  0.22140000  0.54920000  1.0 0.2220967755
C  C302  1  0.22820000  0.77860000  0.04920000  1.0 0.2220967755
C  C303  1  0.77180000  0.77860000  0.45080000  1.0 0.2220967755
C  C304  1  0.77180000  0.22140000  0.95080000  1.0 0.2220967755
C  C305  1  0.24410000  0.18220000  0.52920000  1.0 -0.0893194248
C  C306  1  0.24410000  0.81780000  0.02920000  1.0 -0.0893194248
C  C307  1  0.75590000  0.81780000  0.47080000  1.0 -0.0893194248
C  C308  1  0.75590000  0.18220000  0.97080000  1.0 -0.0893194248
C  C309  1  0.29800000  0.14210000  0.53680000  1.0 -0.0092542877
C  C310  1  0.29800000  0.85790000  0.03680000  1.0 -0.0036721968
C  C311  1  0.70200000  0.85790000  0.46320000  1.0 -0.0036721968
C  C312  1  0.70200000  0.14210000  0.96320000  1.0 -0.0036721968
C  C313  1  0.14820000  0.30290000  0.55870000  1.0 0.1686923035
C  C314  1  0.14820000  0.69710000  0.05870000  1.0 0.1813387542
C  C315  1  0.85180000  0.69710000  0.44130000  1.0 0.1813387542
C  C316  1  0.85180000  0.30290000  0.94130000  1.0 0.1686923035
C  C317  1  0.01310000  0.77630000  0.49980000  1.0 0.1686923035
C  C318  1  0.01310000  0.22370000  0.99980000  1.0 0.1813387542
C  C319  1  0.98690000  0.22370000  0.50020000  1.0 0.1686923035
C  C320  1  0.98690000  0.77630000  0.00020000  1.0 0.1686923035
C  C321  1  0.01810000  0.79710000  0.52770000  1.0 -0.0594991477
C  C322  1  0.01810000  0.20290000  0.02770000  1.0 -0.0594991477
C  C323  1  0.98190000  0.20290000  0.47230000  1.0 -0.0594991477
C  C324  1  0.98190000  0.79710000  0.97230000  1.0 -0.0594991477
C  C325  1  0.99170000  0.85670000  0.53340000  1.0 -0.0289190255
C  C326  1  0.99170000  0.14330000  0.03340000  1.0 -0.0289190255
C  C327  1  0.00830000  0.14330000  0.46660000  1.0 -0.0289190255
C  C328  1  0.00830000  0.85670000  0.96660000  1.0 -0.0289190255
C  C329  1  0.96080000  0.88150000  0.50880000  1.0 0.1310378941
C  C330  1  0.96080000  0.11850000  0.00880000  1.0 0.1310378941
C  C331  1  0.03920000  0.11850000  0.49120000  1.0 0.1310378941
C  C332  1  0.03920000  0.88150000  0.99120000  1.0 0.1310378941
C  C333  1  0.94650000  0.86290000  0.48150000  1.0 -0.1007882959
C  C334  1  0.94650000  0.13710000  0.98150000  1.0 -0.1007882959
C  C335  1  0.05350000  0.13710000  0.51850000  1.0 -0.1007882959
C  C336  1  0.05350000  0.86290000  0.01850000  1.0 -0.1007882959
C  C337  1  0.97510000  0.80500000  0.47770000  1.0 -0.0511060407
C  C338  1  0.97510000  0.19500000  0.97770000  1.0 -0.0511060407
C  C339  1  0.02490000  0.19500000  0.52230000  1.0 -0.0511060407
C  C340  1  0.02490000  0.80500000  0.02230000  1.0 -0.0511060407
C  C341  1  0.90600000  0.96400000  0.49380000  1.0 0.1686923035
C  C342  1  0.90600000  0.03600000  0.99380000  1.0 0.1686923035
C  C343  1  0.09400000  0.03600000  0.50620000  1.0 0.1686923035
C  C344  1  0.09400000  0.96400000  0.00620000  1.0 0.1686923035
C  C345  1  0.14410000  0.67370000  0.43670000  1.0 0.1604175026
C  C346  1  0.14410000  0.32630000  0.93670000  1.0 0.1604175026
C  C347  1  0.85590000  0.32630000  0.56330000  1.0 0.1604175026
C  C348  1  0.85590000  0.67370000  0.06330000  1.0 0.1604175026
C  C349  1  0.12780000  0.63030000  0.41580000  1.0 -0.0092542877
C  C350  1  0.12780000  0.36970000  0.91580000  1.0 -0.0092542877
C  C351  1  0.87220000  0.36970000  0.58420000  1.0 -0.0092542877
C  C352  1  0.87220000  0.63030000  0.08420000  1.0 -0.0092542877
C  C353  1  0.15950000  0.63260000  0.38840000  1.0 -0.107096363
C  C354  1  0.15950000  0.36740000  0.88840000  1.0 -0.1007882959
C  C355  1  0.84050000  0.36740000  0.61160000  1.0 -0.107096363
C  C356  1  0.84050000  0.63260000  0.11160000  1.0 -0.107096363
C  C357  1  0.20350000  0.67660000  0.38640000  1.0 0.2067612311
C  C358  1  0.20350000  0.32340000  0.88640000  1.0 0.2067612311
C  C359  1  0.79650000  0.32340000  0.61360000  1.0 0.2067612311
C  C360  1  0.79650000  0.67660000  0.11360000  1.0 0.2067612311
C  C361  1  0.22350000  0.71880000  0.40480000  1.0 -0.1785769745
C  C362  1  0.22350000  0.28120000  0.90480000  1.0 -0.1785769745
C  C363  1  0.77650000  0.28120000  0.59520000  1.0 -0.1785769745
C  C364  1  0.77650000  0.71880000  0.09520000  1.0 -0.1785769745
C  C365  1  0.19110000  0.71660000  0.43260000  1.0 -0.0511060407
C  C366  1  0.19110000  0.28340000  0.93260000  1.0 -0.0511060407
C  C367  1  0.80890000  0.28340000  0.56740000  1.0 -0.0511060407
C  C368  1  0.80890000  0.71660000  0.06740000  1.0 -0.0511060407
C  C369  1  0.28070000  0.71350000  0.35700000  1.0 0.1889262569
C  C370  1  0.28070000  0.28650000  0.85700000  1.0 0.1889262569
C  C371  1  0.71930000  0.28650000  0.64300000  1.0 0.1889262569
C  C372  1  0.71930000  0.71350000  0.14300000  1.0 0.1889262569
C  C373  1  0.10770000  0.69100000  0.57780000  1.0 0.1604175026
C  C374  1  0.10770000  0.30900000  0.07780000  1.0 0.1604175026
C  C375  1  0.89230000  0.30900000  0.42220000  1.0 0.1604175026
C  C376  1  0.89230000  0.69100000  0.92220000  1.0 0.1604175026
C  C377  1  0.12660000  0.75360000  0.58430000  1.0 -0.0289190255
C  C378  1  0.12660000  0.24640000  0.08430000  1.0 -0.0289190255
C  C379  1  0.87340000  0.24640000  0.41570000  1.0 -0.0289190255
C  C380  1  0.87340000  0.75360000  0.91570000  1.0 -0.0289190255
C  C381  1  0.12050000  0.77140000  0.61560000  1.0 -0.107096363
C  C382  1  0.12050000  0.22860000  0.11560000  1.0 -0.107096363
C  C383  1  0.87950000  0.22860000  0.38440000  1.0 -0.107096363
C  C384  1  0.87950000  0.77140000  0.88440000  1.0 -0.107096363
C  C385  1  0.09870000  0.72380000  0.63380000  1.0 0.2289759088
C  C386  1  0.09870000  0.27620000  0.13380000  1.0 0.2220967755
C  C387  1  0.90130000  0.27620000  0.36620000  1.0 0.2289759088
C  C388  1  0.90130000  0.72380000  0.86620000  1.0 0.2220967755
C  C389  1  0.09340000  0.66410000  0.63090000  1.0 -0.107096363
C  C390  1  0.09340000  0.33590000  0.13090000  1.0 -0.107096363
C  C391  1  0.90660000  0.33590000  0.36910000  1.0 -0.107096363
C  C392  1  0.90660000  0.66410000  0.86910000  1.0 -0.107096363
C  C393  1  0.10110000  0.64870000  0.59900000  1.0 0.0110383002
C  C394  1  0.10110000  0.35130000  0.09900000  1.0 0.0110383002
C  C395  1  0.89890000  0.35130000  0.40100000  1.0 0.0110383002
C  C396  1  0.89890000  0.64870000  0.90100000  1.0 0.0110383002
C  C397  1  0.11890000  0.80100000  0.67420000  1.0 0.2880834959
C  C398  1  0.11890000  0.19900000  0.17420000  1.0 0.2880834959
C  C399  1  0.88110000  0.19900000  0.32580000  1.0 0.2880834959
C  C400  1  0.88110000  0.80100000  0.82580000  1.0 0.2778691274
C  C401  1  0.26820000  0.63160000  0.51690000  1.0 0.1604175026
C  C402  1  0.26820000  0.36840000  0.01690000  1.0 0.1604175026
C  C403  1  0.73180000  0.36840000  0.48310000  1.0 0.1604175026
C  C404  1  0.73180000  0.63160000  0.98310000  1.0 0.1604175026
C  C405  1  0.30810000  0.67350000  0.50360000  1.0 -0.0092542877
C  C406  1  0.30810000  0.32650000  0.00360000  1.0 -0.0092542877
C  C407  1  0.69190000  0.32650000  0.49640000  1.0 -0.0092542877
C  C408  1  0.69190000  0.67350000  0.99640000  1.0 -0.0092542877
C  C409  1  0.37870000  0.65960000  0.50100000  1.0 -0.1207783469
C  C410  1  0.37870000  0.34040000  0.00100000  1.0 -0.1207783469
C  C411  1  0.62130000  0.34040000  0.49900000  1.0 -0.1207783469
C  C412  1  0.62130000  0.65960000  0.99900000  1.0 -0.1207783469
C  C413  1  0.40400000  0.60970000  0.50950000  1.0 0.1813387542
C  C414  1  0.40400000  0.39030000  0.00950000  1.0 0.1813387542
C  C415  1  0.59600000  0.39030000  0.49050000  1.0 0.1813387542
C  C416  1  0.59600000  0.60970000  0.99050000  1.0 0.1813387542
C  C417  1  0.36860000  0.56610000  0.52250000  1.0 -0.1207783469
C  C418  1  0.36860000  0.43390000  0.02250000  1.0 -0.1207783469
C  C419  1  0.63140000  0.43390000  0.47750000  1.0 -0.1207783469
C  C420  1  0.63140000  0.56610000  0.97750000  1.0 -0.1207783469
C  C421  1  0.29750000  0.57850000  0.52630000  1.0 -0.0187466726
C  C422  1  0.29750000  0.42150000  0.02630000  1.0 -0.0187466726
C  C423  1  0.70250000  0.42150000  0.47370000  1.0 -0.0187466726
C  C424  1  0.70250000  0.57850000  0.97370000  1.0 -0.0187466726
C  C425  1  0.49600000  0.60050000  0.47990000  1.0 -0.1207783469
C  C426  1  0.49600000  0.39950000  0.97990000  1.0 -0.1207783469
C  C427  1  0.50400000  0.39950000  0.52010000  1.0 -0.1207783469
C  C428  1  0.50400000  0.60050000  0.02010000  1.0 -0.1207783469
C  C429  1  0.78270000  0.50520000  0.76390000  1.0 0.1813387542
C  C430  1  0.78270000  0.49480000  0.26390000  1.0 0.1813387542
C  C431  1  0.21730000  0.49480000  0.23610000  1.0 0.1813387542
C  C432  1  0.21730000  0.50520000  0.73610000  1.0 0.1813387542
C  C433  1  0.76060000  0.48070000  0.73700000  1.0 -0.0036721968
C  C434  1  0.76060000  0.51930000  0.23700000  1.0 -0.0036721968
C  C435  1  0.23940000  0.51930000  0.26300000  1.0 -0.0036721968
C  C436  1  0.23940000  0.48070000  0.76300000  1.0 -0.0036721968
C  C437  1  0.80580000  0.45050000  0.71980000  1.0 -0.1275390149
C  C438  1  0.80580000  0.54950000  0.21980000  1.0 -0.1275390149
C  C439  1  0.19420000  0.54950000  0.28020000  1.0 -0.1275390149
C  C440  1  0.19420000  0.45050000  0.78020000  1.0 -0.1275390149
C  C441  1  0.87490000  0.44780000  0.73180000  1.0 0.239024267
C  C442  1  0.87490000  0.55220000  0.23180000  1.0 0.239024267
C  C443  1  0.12510000  0.55220000  0.26820000  1.0 0.2475119205
C  C444  1  0.12510000  0.44780000  0.76820000  1.0 0.2475119205
C  C445  1  0.90270000  0.47100000  0.75840000  1.0 -0.1275390149
C  C446  1  0.90270000  0.52900000  0.25840000  1.0 -0.1427510657
C  C447  1  0.09730000  0.52900000  0.24160000  1.0 -0.1275390149
C  C448  1  0.09730000  0.47100000  0.74160000  1.0 -0.1275390149
C  C449  1  0.85440000  0.49980000  0.77490000  1.0 -0.0594991477
C  C450  1  0.85440000  0.50020000  0.27490000  1.0 -0.0594991477
C  C451  1  0.14560000  0.50020000  0.22510000  1.0 -0.0594991477
C  C452  1  0.14560000  0.49980000  0.72510000  1.0 -0.0594991477
C  C453  1  0.91090000  0.39040000  0.68810000  1.0 0.0892925036
C  C454  1  0.91090000  0.60960000  0.18810000  1.0 0.0778465566
C  C455  1  0.08910000  0.60960000  0.31190000  1.0 0.0892925036
C  C456  1  0.08910000  0.39040000  0.81190000  1.0 0.070086675
C  C457  1  0.70390000  0.51300000  0.85530000  1.0 0.1686923035
C  C458  1  0.70390000  0.48700000  0.35530000  1.0 0.1686923035
C  C459  1  0.29610000  0.48700000  0.14470000  1.0 0.1686923035
C  C460  1  0.29610000  0.51300000  0.64470000  1.0 0.1686923035
C  C461  1  0.75430000  0.53760000  0.87620000  1.0 -0.0092542877
C  C462  1  0.75430000  0.46240000  0.37620000  1.0 -0.0092542877
C  C463  1  0.24570000  0.46240000  0.12380000  1.0 -0.0092542877
C  C464  1  0.24570000  0.53760000  0.62380000  1.0 -0.0092542877
C  C465  1  0.76530000  0.51360000  0.90500000  1.0 -0.0816112106
C  C466  1  0.76530000  0.48640000  0.40500000  1.0 -0.0893194248
C  C467  1  0.23470000  0.48640000  0.09500000  1.0 -0.0893194248
C  C468  1  0.23470000  0.51360000  0.59500000  1.0 -0.0816112106
C  C469  1  0.72610000  0.46900000  0.91040000  1.0 0.2289759088
C  C470  1  0.72610000  0.53100000  0.41040000  1.0 0.2289759088
C  C471  1  0.27390000  0.53100000  0.08960000  1.0 0.2289759088
C  C472  1  0.27390000  0.46900000  0.58960000  1.0 0.2289759088
C  C473  1  0.67030000  0.44280000  0.89140000  1.0 -0.1785769745
C  C474  1  0.67030000  0.55720000  0.39140000  1.0 -0.1732182878
C  C475  1  0.32970000  0.55720000  0.10860000  1.0 -0.1732182878
C  C476  1  0.32970000  0.44280000  0.60860000  1.0 -0.1732182878
C  C477  1  0.66020000  0.46920000  0.86180000  1.0 -0.0511060407
C  C478  1  0.66020000  0.53080000  0.36180000  1.0 -0.0511060407
C  C479  1  0.33980000  0.53080000  0.13820000  1.0 -0.0511060407
C  C480  1  0.33980000  0.46920000  0.63820000  1.0 -0.0511060407
C  C481  1  0.69590000  0.40220000  0.95060000  1.0 0.1502893986
C  C482  1  0.69590000  0.59780000  0.45060000  1.0 0.1502893986
C  C483  1  0.30410000  0.59780000  0.04940000  1.0 0.1604175026
C  C484  1  0.30410000  0.40220000  0.54940000  1.0 0.1604175026
C  C485  1  0.78320000  0.70120000  0.76980000  1.0 0.070086675
C  C486  1  0.78320000  0.29880000  0.26980000  1.0 0.070086675
C  C487  1  0.21680000  0.29880000  0.23020000  1.0 0.0778465566
C  C488  1  0.21680000  0.70120000  0.73020000  1.0 0.070086675
C  C489  1  0.75050000  0.74560000  0.75090000  1.0 -0.0092542877
C  C490  1  0.75050000  0.25440000  0.25090000  1.0 -0.0092542877
C  C491  1  0.24950000  0.25440000  0.24910000  1.0 -0.0187466726
C  C492  1  0.24950000  0.74560000  0.74910000  1.0 -0.0092542877
C  C493  1  0.79440000  0.78320000  0.73390000  1.0 -0.0893194248
C  C494  1  0.79440000  0.21680000  0.23390000  1.0 -0.0893194248
C  C495  1  0.20560000  0.21680000  0.26610000  1.0 -0.1007882959
C  C496  1  0.20560000  0.78320000  0.76610000  1.0 -0.1007882959
C  C497  1  0.86650000  0.76010000  0.73650000  1.0 0.0592902509
C  C498  1  0.86650000  0.23990000  0.23650000  1.0 0.0592902509
C  C499  1  0.13350000  0.23990000  0.26350000  1.0 0.0592902509
C  C500  1  0.13350000  0.76010000  0.76350000  1.0 0.0592902509
C  C501  1  0.89440000  0.72170000  0.75150000  1.0 0.0194206377
C  C502  1  0.89440000  0.27830000  0.25150000  1.0 0.0110383002
C  C503  1  0.10560000  0.27830000  0.24850000  1.0 0.0110383002
C  C504  1  0.10560000  0.72170000  0.74850000  1.0 0.0110383002
C  C505  1  0.85040000  0.68350000  0.76790000  1.0 -0.0289190255
C  C506  1  0.85040000  0.31650000  0.26790000  1.0 -0.0289190255
C  C507  1  0.14960000  0.31650000  0.23210000  1.0 -0.0289190255
C  C508  1  0.14960000  0.68350000  0.73210000  1.0 -0.0289190255
C  C509  1  0.90200000  0.78100000  0.70180000  1.0 0.1352973056
C  C510  1  0.90200000  0.21900000  0.20180000  1.0 0.1310378941
C  C511  1  0.09800000  0.21900000  0.29820000  1.0 0.1310378941
C  C512  1  0.09800000  0.78100000  0.79820000  1.0 0.1310378941
C  C513  1  0.65310000  0.70360000  0.84820000  1.0 0.1813387542
C  C514  1  0.65310000  0.29640000  0.34820000  1.0 0.1813387542
C  C515  1  0.34690000  0.29640000  0.15180000  1.0 0.1813387542
C  C516  1  0.34690000  0.70360000  0.65180000  1.0 0.1813387542
C  C517  1  0.70140000  0.71980000  0.87290000  1.0 -0.0696433067
C  C518  1  0.70140000  0.28020000  0.37290000  1.0 -0.0696433067
C  C519  1  0.29860000  0.28020000  0.12710000  1.0 -0.0696433067
C  C520  1  0.29860000  0.71980000  0.62710000  1.0 -0.0696433067
C  C521  1  0.67690000  0.75470000  0.89660000  1.0 -0.1275390149
C  C522  1  0.67690000  0.24530000  0.39660000  1.0 -0.1275390149
C  C523  1  0.32310000  0.24530000  0.10340000  1.0 -0.1275390149
C  C524  1  0.32310000  0.75470000  0.60340000  1.0 -0.1275390149
C  C525  1  0.61130000  0.76800000  0.89470000  1.0 0.2220967755
C  C526  1  0.61130000  0.23200000  0.39470000  1.0 0.2220967755
C  C527  1  0.38870000  0.23200000  0.10530000  1.0 0.2220967755
C  C528  1  0.38870000  0.76800000  0.60530000  1.0 0.2220967755
C  C529  1  0.56070000  0.75360000  0.87210000  1.0 -0.0696433067
C  C530  1  0.56070000  0.24640000  0.37210000  1.0 -0.0696433067
C  C531  1  0.43930000  0.24640000  0.12790000  1.0 -0.0696433067
C  C532  1  0.43930000  0.75360000  0.62790000  1.0 -0.0696433067
C  C533  1  0.58410000  0.72040000  0.84860000  1.0 -0.0187466726
C  C534  1  0.58410000  0.27960000  0.34860000  1.0 -0.0187466726
C  C535  1  0.41590000  0.27960000  0.15140000  1.0 -0.0187466726
C  C536  1  0.41590000  0.72040000  0.65140000  1.0 -0.0187466726
C  C537  1  0.62800000  0.81900000  0.94170000  1.0 0.1813387542
C  C538  1  0.62800000  0.18100000  0.44170000  1.0 0.1813387542
C  C539  1  0.37200000  0.18100000  0.05830000  1.0 0.1813387542
C  C540  1  0.37200000  0.81900000  0.55830000  1.0 0.1813387542
C  C541  1  0.64340000  0.03970000  0.61980000  1.0 0.0592902509
C  C542  1  0.64340000  0.96030000  0.11980000  1.0 0.0592902509
C  C543  1  0.35660000  0.96030000  0.38020000  1.0 0.0592902509
C  C544  1  0.35660000  0.03970000  0.88020000  1.0 0.0592902509
C  C545  1  0.68920000  0.00330000  0.60660000  1.0 0.0017350181
C  C546  1  0.68920000  0.99670000  0.10660000  1.0 0.0017350181
C  C547  1  0.31080000  0.99670000  0.39340000  1.0 0.0017350181
C  C548  1  0.31080000  0.00330000  0.89340000  1.0 0.0017350181
C  C549  1  0.74700000  0.97930000  0.62430000  1.0 -0.0289190255
C  C550  1  0.74700000  0.02070000  0.12430000  1.0 -0.0289190255
C  C551  1  0.25300000  0.02070000  0.37570000  1.0 -0.0289190255
C  C552  1  0.25300000  0.97930000  0.87570000  1.0 -0.0289190255
C  C553  1  0.73760000  0.98810000  0.65630000  1.0 0.070086675
C  C554  1  0.73760000  0.01190000  0.15630000  1.0 0.070086675
C  C555  1  0.26240000  0.01190000  0.34370000  1.0 0.070086675
C  C556  1  0.26240000  0.98810000  0.84370000  1.0 0.0592902509
C  C557  1  0.70350000  0.02810000  0.66940000  1.0 0.0110383002
C  C558  1  0.70350000  0.97190000  0.16940000  1.0 0.0110383002
C  C559  1  0.29650000  0.97190000  0.33060000  1.0 0.0110383002
C  C560  1  0.29650000  0.02810000  0.83060000  1.0 0.0017350181
C  C561  1  0.64790000  0.05300000  0.64920000  1.0 -0.0187466726
C  C562  1  0.64790000  0.94700000  0.14920000  1.0 -0.0187466726
C  C563  1  0.35210000  0.94700000  0.35080000  1.0 -0.0187466726
C  C564  1  0.35210000  0.05300000  0.85080000  1.0 -0.0092542877
C  C565  1  0.82300000  0.99000000  0.69410000  1.0 0.0778465566
C  C566  1  0.82300000  0.01000000  0.19410000  1.0 0.0778465566
C  C567  1  0.17700000  0.01000000  0.30590000  1.0 0.0778465566
C  C568  1  0.17700000  0.99000000  0.80590000  1.0 0.0778465566
C  C569  1  0.53800000  0.21430000  0.58780000  1.0 0.070086675
C  C570  1  0.53800000  0.78570000  0.08780000  1.0 0.070086675
C  C571  1  0.46200000  0.78570000  0.41220000  1.0 0.070086675
C  C572  1  0.46200000  0.21430000  0.91220000  1.0 0.070086675
C  C573  1  0.55800000  0.25310000  0.56650000  1.0 0.0502898097
C  C574  1  0.55800000  0.74690000  0.06650000  1.0 0.0502898097
C  C575  1  0.44200000  0.74690000  0.43350000  1.0 0.0502898097
C  C576  1  0.44200000  0.25310000  0.93350000  1.0 0.0502898097
C  C577  1  0.54300000  0.31600000  0.57230000  1.0 0.0017350181
C  C578  1  0.54300000  0.68400000  0.07230000  1.0 0.0017350181
C  C579  1  0.45700000  0.68400000  0.42770000  1.0 0.0017350181
C  C580  1  0.45700000  0.31600000  0.92770000  1.0 -0.0036721968
C  C581  1  0.50100000  0.32990000  0.59150000  1.0 0.0110383002
C  C582  1  0.50100000  0.67010000  0.09150000  1.0 0.0194206377
C  C583  1  0.49900000  0.67010000  0.40850000  1.0 0.0110383002
C  C584  1  0.49900000  0.32990000  0.90850000  1.0 0.0110383002
C  C585  1  0.47900000  0.29270000  0.61420000  1.0 -0.0443590026
C  C586  1  0.47900000  0.70730000  0.11420000  1.0 -0.0511060407
C  C587  1  0.52100000  0.70730000  0.38580000  1.0 -0.0511060407
C  C588  1  0.52100000  0.29270000  0.88580000  1.0 -0.0511060407
C  C589  1  0.49400000  0.23170000  0.60840000  1.0 -0.0092542877
C  C590  1  0.49400000  0.76830000  0.10840000  1.0 -0.0092542877
C  C591  1  0.50600000  0.76830000  0.39160000  1.0 -0.0092542877
C  C592  1  0.50600000  0.23170000  0.89160000  1.0 -0.0092542877
C  C593  1  0.50500000  0.43480000  0.57820000  1.0 0.0194206377
C  C594  1  0.50500000  0.56520000  0.07820000  1.0 0.0194206377
C  C595  1  0.49500000  0.56520000  0.42180000  1.0 0.0194206377
C  C596  1  0.49500000  0.43480000  0.92180000  1.0 0.0194206377
C  C597  1  0.50000000  0.54900000  0.50280000  1.0 0.0393195068
C  C598  1  0.50000000  0.45100000  0.00280000  1.0 0.0393195068
C  C599  1  0.50000000  0.45100000  0.49720000  1.0 0.0393195068
C  C600  1  0.50000000  0.54900000  0.99720000  1.0 0.0393195068
C  C601  1  0.78930000  0.67720000  0.76820000  1.0 0.0393195068
C  C602  1  0.78930000  0.32280000  0.26820000  1.0 0.0393195068
C  C603  1  0.21070000  0.32280000  0.23180000  1.0 0.0393195068
C  C604  1  0.21070000  0.67720000  0.73180000  1.0 0.0393195068
C  C605  1  0.77600000  0.73350000  0.75440000  1.0 0.0502898097
C  C606  1  0.77600000  0.26650000  0.25440000  1.0 0.0502898097
C  C607  1  0.22400000  0.26650000  0.24560000  1.0 0.0502898097
C  C608  1  0.22400000  0.73350000  0.74560000  1.0 0.0502898097
C  C609  1  0.82100000  0.75400000  0.73210000  1.0 0.0194206377
C  C610  1  0.82100000  0.24600000  0.23210000  1.0 0.0194206377
C  C611  1  0.17900000  0.24600000  0.26790000  1.0 0.0194206377
C  C612  1  0.17900000  0.75400000  0.76790000  1.0 0.0194206377
C  C613  1  0.88400000  0.71500000  0.73420000  1.0 0.0393195068
C  C614  1  0.88400000  0.28500000  0.23420000  1.0 0.0393195068
C  C615  1  0.11600000  0.28500000  0.26580000  1.0 0.0393195068
C  C616  1  0.11600000  0.71500000  0.76580000  1.0 0.0393195068
C  C617  1  0.90410000  0.67800000  0.75160000  1.0 -0.0594991477
C  C618  1  0.90410000  0.32200000  0.25160000  1.0 -0.0594991477
C  C619  1  0.09590000  0.32200000  0.24840000  1.0 -0.0594991477
C  C620  1  0.09590000  0.67800000  0.74840000  1.0 -0.0594991477
C  C621  1  0.85410000  0.65070000  0.76950000  1.0 -0.0511060407
C  C622  1  0.85410000  0.34930000  0.26950000  1.0 -0.0511060407
C  C623  1  0.14590000  0.34930000  0.23050000  1.0 -0.0594991477
C  C624  1  0.14590000  0.65070000  0.73050000  1.0 -0.0511060407
N  N1  1  0.57750000  0.06210000  0.60110000  1.0 -0.2010772703
N  N2  1  0.57750000  0.93790000  0.10110000  1.0 -0.211385567
N  N3  1  0.42250000  0.93790000  0.39890000  1.0 -0.211385567
N  N4  1  0.42250000  0.06210000  0.89890000  1.0 -0.2010772703
N  N5  1  0.53300000  0.15090000  0.58070000  1.0 -0.211385567
N  N6  1  0.53300000  0.84910000  0.08070000  1.0 -0.211385567
N  N7  1  0.46700000  0.84910000  0.41930000  1.0 -0.211385567
N  N8  1  0.46700000  0.15090000  0.91930000  1.0 -0.211385567
N  N9  1  0.43600000  0.02740000  0.60030000  1.0 -0.3120571452
N  N10  1  0.43600000  0.97260000  0.10030000  1.0 -0.3120571452
N  N11  1  0.56400000  0.97260000  0.39970000  1.0 -0.3120571452
N  N12  1  0.56400000  0.02740000  0.89970000  1.0 -0.3120571452
N  N13  1  0.39220000  0.10540000  0.57220000  1.0 -0.3036222536
N  N14  1  0.39220000  0.89460000  0.07220000  1.0 -0.3036222536
N  N15  1  0.60780000  0.89460000  0.42780000  1.0 -0.3036222536
N  N16  1  0.60780000  0.10540000  0.92780000  1.0 -0.3036222536
N  N17  1  0.04320000  0.71880000  0.49450000  1.0 -0.2795113254
N  N18  1  0.04320000  0.28120000  0.99450000  1.0 -0.2795113254
N  N19  1  0.95680000  0.28120000  0.50550000  1.0 -0.2795113254
N  N20  1  0.95680000  0.71880000  0.00550000  1.0 -0.2795113254
N  N21  1  0.11320000  0.67050000  0.46368000  1.0 -0.260905512
N  N22  1  0.11320000  0.32950000  0.96368000  1.0 -0.260905512
N  N23  1  0.88680000  0.32950000  0.53632000  1.0 -0.260905512
N  N24  1  0.88680000  0.67050000  0.03632000  1.0 -0.260905512
N  N25  1  0.11390000  0.67240000  0.54880000  1.0 -0.2341967377
N  N26  1  0.11390000  0.32760000  0.04880000  1.0 -0.2341967377
N  N27  1  0.88610000  0.32760000  0.45120000  1.0 -0.2382245191
N  N28  1  0.88610000  0.67240000  0.95120000  1.0 -0.2382245191
N  N29  1  0.19670000  0.64170000  0.51850000  1.0 -0.2382245191
N  N30  1  0.19670000  0.35830000  0.01850000  1.0 -0.2382245191
N  N31  1  0.80330000  0.35830000  0.48150000  1.0 -0.2382245191
N  N32  1  0.80330000  0.64170000  0.98150000  1.0 -0.2382245191
N  N33  1  0.73630000  0.53270000  0.77990000  1.0 -0.2916090342
N  N34  1  0.73630000  0.46730000  0.27990000  1.0 -0.2916090342
N  N35  1  0.26370000  0.46730000  0.22010000  1.0 -0.2916090342
N  N36  1  0.26370000  0.53270000  0.72010000  1.0 -0.2916090342
N  N37  1  0.69650000  0.53830000  0.82640000  1.0 -0.2795113254
N  N38  1  0.69650000  0.46170000  0.32640000  1.0 -0.2795113254
N  N39  1  0.30350000  0.46170000  0.17360000  1.0 -0.2795113254
N  N40  1  0.30350000  0.53830000  0.67360000  1.0 -0.2795113254
N  N41  1  0.74050000  0.66030000  0.78640000  1.0 -0.1879580529
N  N42  1  0.74050000  0.33970000  0.28640000  1.0 -0.1879580529
N  N43  1  0.25950000  0.33970000  0.21360000  1.0 -0.1879580529
N  N44  1  0.25950000  0.66030000  0.71360000  1.0 -0.1879580529
N  N45  1  0.67120000  0.66780000  0.82527000  1.0 -0.260905512
N  N46  1  0.67120000  0.33220000  0.32527000  1.0 -0.260905512
N  N47  1  0.32880000  0.33220000  0.17473000  1.0 -0.260905512
N  N48  1  0.32880000  0.66780000  0.67473000  1.0 -0.260905512
N  N49  1  0.55560000  0.92110000  0.58610000  1.0 -0.1879580529
N  N50  1  0.55560000  0.07890000  0.08610000  1.0 -0.1879580529
N  N51  1  0.44440000  0.07890000  0.41390000  1.0 -0.1879580529
N  N52  1  0.44440000  0.92110000  0.91390000  1.0 -0.1879580529
N  N53  1  0.67730000  0.74000000  0.62870000  1.0 -0.3704578395
N  N54  1  0.67730000  0.26000000  0.12870000  1.0 -0.3704578395
N  N55  1  0.32270000  0.26000000  0.37130000  1.0 -0.3704578395
N  N56  1  0.32270000  0.74000000  0.87130000  1.0 -0.3704578395
N  N57  1  0.77160000  0.68050000  0.61908000  1.0 -0.4006943668
N  N58  1  0.77160000  0.31950000  0.11908000  1.0 -0.4006943668
N  N59  1  0.22840000  0.31950000  0.38092000  1.0 -0.4006943668
N  N60  1  0.22840000  0.68050000  0.88092000  1.0 -0.4006943668
N  N61  1  0.72870000  0.75240000  0.58418000  1.0 -0.4006943668
N  N62  1  0.72870000  0.24760000  0.08418000  1.0 -0.4006943668
N  N63  1  0.27130000  0.24760000  0.41582000  1.0 -0.4006943668
N  N64  1  0.27130000  0.75240000  0.91582000  1.0 -0.4006943668
N  N65  1  0.93950000  0.66770000  0.54300000  1.0 -0.1427510657
N  N66  1  0.93950000  0.33230000  0.04300000  1.0 -0.1427510657
N  N67  1  0.06050000  0.33230000  0.45700000  1.0 -0.1427510657
N  N68  1  0.06050000  0.66770000  0.95700000  1.0 -0.1427510657
N  N69  1  0.70050000  0.61280000  0.71770000  1.0 -0.1785769745
N  N70  1  0.70050000  0.38720000  0.21770000  1.0 -0.1785769745
N  N71  1  0.29950000  0.38720000  0.28230000  1.0 -0.1785769745
N  N72  1  0.29950000  0.61280000  0.78230000  1.0 -0.1879580529
N  N73  1  0.19540000  0.54230000  0.46724000  1.0 -0.0893194248
N  N74  1  0.19540000  0.45770000  0.96724000  1.0 -0.0893194248
N  N75  1  0.80460000  0.45770000  0.53276000  1.0 -0.0893194248
N  N76  1  0.80460000  0.54230000  0.03276000  1.0 -0.0893194248
N  N77  1  0.35650000  0.37180000  0.46394000  1.0 -0.3805334968
N  N78  1  0.35650000  0.62820000  0.96394000  1.0 -0.3805334968
N  N79  1  0.64350000  0.62820000  0.53606000  1.0 -0.3805334968
N  N80  1  0.64350000  0.37180000  0.03606000  1.0 -0.3805334968
N  N81  1  0.45040000  0.34320000  0.43819000  1.0 -0.3805334968
N  N82  1  0.45040000  0.65680000  0.93819000  1.0 -0.3805334968
N  N83  1  0.54960000  0.65680000  0.56181000  1.0 -0.3805334968
N  N84  1  0.54960000  0.34320000  0.06181000  1.0 -0.3805334968
N  N85  1  0.38610000  0.43050000  0.42445000  1.0 -0.3805334968
N  N86  1  0.38610000  0.56950000  0.92445000  1.0 -0.3805334968
N  N87  1  0.61390000  0.56950000  0.57555000  1.0 -0.3805334968
N  N88  1  0.61390000  0.43050000  0.07555000  1.0 -0.3805334968
N  N89  1  0.56030000  0.41480000  0.35132000  1.0 -0.1007882959
N  N90  1  0.56030000  0.58520000  0.85132000  1.0 -0.1007882959
N  N91  1  0.43970000  0.58520000  0.64868000  1.0 -0.1007882959
N  N92  1  0.43970000  0.41480000  0.14868000  1.0 -0.1007882959
N  N93  1  0.45000000  0.19060000  0.51930000  1.0 -0.2162850278
N  N94  1  0.45000000  0.80940000  0.01930000  1.0 -0.211385567
N  N95  1  0.55000000  0.80940000  0.48070000  1.0 -0.211385567
N  N96  1  0.55000000  0.19060000  0.98070000  1.0 -0.2162850278
O  O1  1  0.39400000  0.89690000  0.70080000  1.0 -0.1207783469
O  O2  1  0.39400000  0.10310000  0.20080000  1.0 -0.1275390149
O  O3  1  0.60600000  0.10310000  0.29920000  1.0 -0.1207783469
O  O4  1  0.60600000  0.89690000  0.79920000  1.0 -0.1207783469
O  O5  1  0.17340000  0.26290000  0.53810000  1.0 -0.1732182878
O  O6  1  0.17340000  0.73710000  0.03810000  1.0 -0.1732182878
O  O7  1  0.82660000  0.73710000  0.46190000  1.0 -0.1732182878
O  O8  1  0.82660000  0.26290000  0.96190000  1.0 -0.1732182878
O  O9  1  0.94690000  0.94860000  0.52080000  1.0 -0.0816112106
O  O10  1  0.94690000  0.05140000  0.02080000  1.0 -0.0816112106
O  O11  1  0.05310000  0.05140000  0.47920000  1.0 -0.0816112106
O  O12  1  0.05310000  0.94860000  0.97920000  1.0 -0.0816112106
O  O13  1  0.23020000  0.67360000  0.35760000  1.0 -0.1574771631
O  O14  1  0.23020000  0.32640000  0.85760000  1.0 -0.1574771631
O  O15  1  0.76980000  0.32640000  0.64240000  1.0 -0.1574771631
O  O16  1  0.76980000  0.67360000  0.14240000  1.0 -0.1574771631
O  O17  1  0.09450000  0.73990000  0.66540000  1.0 -0.2010772703
O  O18  1  0.09450000  0.26010000  0.16540000  1.0 -0.2010772703
O  O19  1  0.90550000  0.26010000  0.33460000  1.0 -0.2010772703
O  O20  1  0.90550000  0.73990000  0.83460000  1.0 -0.2010772703
O  O21  1  0.47250000  0.59590000  0.50580000  1.0 -0.0289190255
O  O22  1  0.47250000  0.40410000  0.00580000  1.0 -0.0289190255
O  O23  1  0.52750000  0.40410000  0.49420000  1.0 -0.0289190255
O  O24  1  0.52750000  0.59590000  0.99420000  1.0 -0.0289190255
O  O25  1  0.92650000  0.41600000  0.71690000  1.0 -0.107096363
O  O26  1  0.92650000  0.58400000  0.21690000  1.0 -0.1007882959
O  O27  1  0.07350000  0.58400000  0.28310000  1.0 -0.107096363
O  O28  1  0.07350000  0.41600000  0.78310000  1.0 -0.0893194248
O  O29  1  0.73920000  0.44620000  0.94050000  1.0 -0.1275390149
O  O30  1  0.73920000  0.55380000  0.44050000  1.0 -0.1275390149
O  O31  1  0.26080000  0.55380000  0.05950000  1.0 -0.1275390149
O  O32  1  0.26080000  0.44620000  0.55950000  1.0 -0.1275390149
O  O33  1  0.57980000  0.79960000  0.91680000  1.0 -0.1508720808
O  O34  1  0.57980000  0.20040000  0.41680000  1.0 -0.1508720808
O  O35  1  0.42020000  0.20040000  0.08320000  1.0 -0.1508720808
O  O36  1  0.42020000  0.79960000  0.58320000  1.0 -0.1508720808
O  O37  1  0.44230000  0.97130000  0.54367000  1.0 -0.4794478544
O  O38  1  0.44230000  0.02870000  0.04367000  1.0 -0.4794478544
O  O39  1  0.55770000  0.02870000  0.45633000  1.0 -0.4794478544
O  O40  1  0.55770000  0.97130000  0.95633000  1.0 -0.4794478544
O  O41  1  0.41700000  0.05520000  0.51716000  1.0 -0.4794478544
O  O42  1  0.41700000  0.94480000  0.01716000  1.0 -0.4794478544
O  O43  1  0.58300000  0.94480000  0.48284000  1.0 -0.4794478544
O  O44  1  0.58300000  0.05520000  0.98284000  1.0 -0.4794478544
O  O45  1  0.41660000  0.99110000  0.45608000  1.0 -0.4592990952
O  O46  1  0.41660000  0.00890000  0.95608000  1.0 -0.4592990952
O  O47  1  0.58340000  0.00890000  0.54392000  1.0 -0.4592990952
O  O48  1  0.58340000  0.99110000  0.04392000  1.0 -0.4592990952
O  O49  1  0.44150000  0.90130000  0.47511000  1.0 -0.4794478544
O  O50  1  0.44150000  0.09870000  0.97511000  1.0 -0.4794478544
O  O51  1  0.55850000  0.09870000  0.52489000  1.0 -0.4794478544
O  O52  1  0.55850000  0.90130000  0.02489000  1.0 -0.4794478544
O  O53  1  0.03470000  0.56460000  0.54089000  1.0 -0.4498811144
O  O54  1  0.03470000  0.43540000  0.04089000  1.0 -0.4498811144
O  O55  1  0.96530000  0.43540000  0.45911000  1.0 -0.4498811144
O  O56  1  0.96530000  0.56460000  0.95911000  1.0 -0.4498811144
O  O57  1  0.12630000  0.53060000  0.52019000  1.0 -0.4794478544
O  O58  1  0.12630000  0.46940000  0.02019000  1.0 -0.4794478544
O  O59  1  0.87370000  0.46940000  0.47981000  1.0 -0.4794478544
O  O60  1  0.87370000  0.53060000  0.97981000  1.0 -0.4794478544
O  O61  1  0.03630000  0.39180000  0.51362000  1.0 -0.4794478544
O  O62  1  0.03630000  0.60820000  0.01362000  1.0 -0.4794478544
O  O63  1  0.96370000  0.60820000  0.48638000  1.0 -0.4794478544
O  O64  1  0.96370000  0.39180000  0.98638000  1.0 -0.4794478544
O  O65  1  0.95450000  0.44230000  0.53411000  1.0 -0.4668506859
O  O66  1  0.95450000  0.55770000  0.03411000  1.0 -0.4668506859
O  O67  1  0.04550000  0.55770000  0.46589000  1.0 -0.4668506859
O  O68  1  0.04550000  0.44230000  0.96589000  1.0 -0.4668506859
O  O69  1  0.60890000  0.67000000  0.75430000  1.0 -0.4668506859
O  O70  1  0.60890000  0.33000000  0.25430000  1.0 -0.4668506859
O  O71  1  0.39110000  0.33000000  0.24570000  1.0 -0.4668506859
O  O72  1  0.39110000  0.67000000  0.74570000  1.0 -0.4668506859
O  O73  1  0.54010000  0.64900000  0.78928000  1.0 -0.4668506859
O  O74  1  0.54010000  0.35100000  0.28928000  1.0 -0.4668506859
O  O75  1  0.45990000  0.35100000  0.21072000  1.0 -0.4668506859
O  O76  1  0.45990000  0.64900000  0.71072000  1.0 -0.4668506859
O  O77  1  0.59720000  0.54180000  0.74813000  1.0 -0.4794478544
O  O78  1  0.59720000  0.45820000  0.24813000  1.0 -0.4794478544
O  O79  1  0.40280000  0.45820000  0.25187000  1.0 -0.4794478544
O  O80  1  0.40280000  0.54180000  0.75187000  1.0 -0.4794478544
O  O81  1  0.56120000  0.52330000  0.79224000  1.0 -0.4937857989
O  O82  1  0.56120000  0.47670000  0.29224000  1.0 -0.4937857989
O  O83  1  0.43880000  0.47670000  0.20776000  1.0 -0.4937857989
O  O84  1  0.43880000  0.52330000  0.70776000  1.0 -0.4937857989
O  O85  1  0.76930000  0.94600000  0.68730000  1.0 0.239024267
O  O86  1  0.76930000  0.05400000  0.18730000  1.0 0.2220967755
O  O87  1  0.23070000  0.05400000  0.31270000  1.0 0.2220967755
O  O88  1  0.23070000  0.94600000  0.81270000  1.0 0.2220967755
O  O89  1  0.56640000  0.39910000  0.58710000  1.0 0.0110383002
O  O90  1  0.56640000  0.60090000  0.08710000  1.0 0.0110383002
O  O91  1  0.43360000  0.60090000  0.41290000  1.0 0.0110383002
O  O92  1  0.43360000  0.39910000  0.91290000  1.0 0.0194206377
O  O93  1  0.91300000  0.80200000  0.72150000  1.0 -0.0289190255
O  O94  1  0.91300000  0.19800000  0.22150000  1.0 -0.0187466726
O  O95  1  0.08700000  0.19800000  0.27850000  1.0 -0.0289190255
O  O96  1  0.08700000  0.80200000  0.77850000  1.0 -0.0289190255
O  O97  1  0.80080000  0.94620000  0.67340000  1.0 -0.0511060407
O  O98  1  0.80080000  0.05380000  0.17340000  1.0 -0.0511060407
O  O99  1  0.19920000  0.05380000  0.32660000  1.0 -0.0511060407
O  O100  1  0.19920000  0.94620000  0.82660000  1.0 -0.0511060407
O  O101  1  0.49240000  0.39320000  0.59950000  1.0 0.0393195068
O  O102  1  0.49240000  0.60680000  0.09950000  1.0 0.0393195068
O  O103  1  0.50760000  0.60680000  0.40050000  1.0 0.0393195068
O  O104  1  0.50760000  0.39320000  0.90050000  1.0 0.0502898097
O  O105  1  0.93700000  0.73600000  0.71420000  1.0 -0.0816112106
O  O106  1  0.93700000  0.26400000  0.21420000  1.0 -0.0816112106
O  O107  1  0.06300000  0.26400000  0.28580000  1.0 -0.0893194248
O  O108  1  0.06300000  0.73600000  0.78580000  1.0 -0.0816112106
