# DDEC6 charges by PACMAN v1.1 (https://github.com/mtap-research/PACMAN-charge/)
data_QEVPAL_ASR_pacman
_symmetry_space_group_name_H-M   'P 1'
_cell_length_a   21.82560000
_cell_length_b   21.82560000
_cell_length_c   21.82560000
_cell_angle_alpha   109.47100000
_cell_angle_beta   109.47100000
_cell_angle_gamma   109.47100000
_symmetry_Int_Tables_number   1
_chemical_formula_structural   Cu2H26C20S2N4O9
_chemical_formula_sum   'Cu12 H156 C120 S12 N24 O54'
_cell_volume   8003.50520277
_cell_formula_units_Z   6
loop_
 _symmetry_equiv_pos_site_id
 _symmetry_equiv_pos_as_xyz
  1  'x, y, z'
loop_
 _atom_site_type_symbol
 _atom_site_label
 _atom_site_symmetry_multiplicity
 _atom_site_fract_x
 _atom_site_fract_y
 _atom_site_fract_z
 _atom_site_occupancy
 _atom_site_charge
Cu  Cu1  1  0.38149000  0.71136000  0.69825000  1.0 0.848273581
Cu  Cu2  1  0.51311000  0.68324000  0.80175000  1.0 0.848273581
Cu  Cu3  1  0.11851000  0.81676000  0.32987000  1.0 0.848273581
Cu  Cu4  1  0.98689000  0.78864000  0.17013000  1.0 0.848273581
Cu  Cu5  1  0.78864000  0.17013000  0.98689000  1.0 0.848273581
Cu  Cu6  1  0.81676000  0.32987000  0.11851000  1.0 0.848273581
Cu  Cu7  1  0.68324000  0.80175000  0.51311000  1.0 0.848273581
Cu  Cu8  1  0.71136000  0.69825000  0.38149000  1.0 0.848273581
Cu  Cu9  1  0.32987000  0.11851000  0.81676000  1.0 0.848273581
Cu  Cu10  1  0.17013000  0.98689000  0.78864000  1.0 0.848273581
Cu  Cu11  1  0.69825000  0.38149000  0.71136000  1.0 0.848273581
Cu  Cu12  1  0.80175000  0.51311000  0.68324000  1.0 0.848273581
H  H1  1  0.51520000  0.69410000  0.42350000  1.0 0.3001286767
H  H2  1  0.51950000  0.61400000  0.65450000  1.0 0.159385703
H  H3  1  0.52880000  0.63740000  0.59460000  1.0 0.1488016901
H  H4  1  0.45060000  0.57030000  0.57090000  1.0 0.159385703
H  H5  1  0.44900000  0.83620000  0.58180000  1.0 0.1650768576
H  H6  1  0.53600000  0.86920000  0.63720000  1.0 0.159385703
H  H7  1  0.48690000  0.89410000  0.66920000  1.0 0.159385703
H  H8  1  0.38200000  0.59700000  0.45320000  1.0 0.1488016901
H  H9  1  0.39340000  0.60590000  0.38730000  1.0 0.1488016901
H  H10  1  0.36670000  0.65580000  0.43170000  1.0 0.1488016901
H  H11  1  0.67410000  0.79740000  0.68210000  1.0 0.159385703
H  H12  1  0.63410000  0.84540000  0.69910000  1.0 0.1488016901
H  H13  1  0.68990000  0.86700000  0.66770000  1.0 0.159385703
H  H14  1  0.77060000  0.09170000  0.07650000  1.0 0.3001286767
H  H15  1  0.45950000  0.86500000  0.84550000  1.0 0.159385703
H  H16  1  0.54280000  0.93420000  0.90540000  1.0 0.1488016901
H  H17  1  0.49940000  0.87970000  0.92910000  1.0 0.159385703
H  H18  1  0.75440000  0.86720000  0.91820000  1.0 0.1650768576
H  H19  1  0.73200000  0.89880000  0.86280000  1.0 0.159385703
H  H20  1  0.72490000  0.81770000  0.83080000  1.0 0.159385703
H  H21  1  0.64380000  0.92880000  0.04680000  1.0 0.1488016901
H  H22  1  0.71860000  0.00610000  0.11270000  1.0 0.1488016901
H  H23  1  0.72410000  0.93500000  0.06830000  1.0 0.1488016901
H  H24  1  0.61530000  0.99200000  0.81790000  1.0 0.159385703
H  H25  1  0.64630000  0.93500000  0.80090000  1.0 0.1488016901
H  H26  1  0.69930000  0.02220000  0.83230000  1.0 0.159385703
H  H27  1  0.98480000  0.40830000  0.17890000  1.0 0.3001286767
H  H28  1  0.98050000  0.63500000  0.09450000  1.0 0.159385703
H  H29  1  0.97120000  0.56580000  0.10860000  1.0 0.1488016901
H  H30  1  0.04940000  0.62030000  0.11970000  1.0 0.1650768576
H  H31  1  0.05100000  0.63280000  0.38720000  1.0 0.1650768576
H  H32  1  0.96400000  0.60120000  0.33320000  1.0 0.159385703
H  H33  1  0.01310000  0.68230000  0.40720000  1.0 0.159385703
H  H34  1  0.11800000  0.57120000  0.21500000  1.0 0.1488016901
H  H35  1  0.10660000  0.49390000  0.21250000  1.0 0.1488016901
H  H36  1  0.13330000  0.56500000  0.28910000  1.0 0.1488016901
H  H37  1  0.82590000  0.50800000  0.12330000  1.0 0.159385703
H  H38  1  0.86590000  0.56500000  0.21130000  1.0 0.1488016901
H  H39  1  0.81010000  0.47780000  0.17710000  1.0 0.159385703
H  H40  1  0.72940000  0.80590000  0.32110000  1.0 0.3001286767
H  H41  1  0.04050000  0.88600000  0.40550000  1.0 0.159385703
H  H42  1  0.95720000  0.86260000  0.39140000  1.0 0.1488016901
H  H43  1  0.00060000  0.92970000  0.38030000  1.0 0.159385703
H  H44  1  0.74560000  0.66380000  0.11280000  1.0 0.1650768576
H  H45  1  0.76800000  0.63080000  0.16680000  1.0 0.159385703
H  H46  1  0.77510000  0.60590000  0.09280000  1.0 0.159385703
H  H47  1  0.85620000  0.90300000  0.28500000  1.0 0.1488016901
H  H48  1  0.78140000  0.89410000  0.28750000  1.0 0.1488016901
H  H49  1  0.77590000  0.84420000  0.21090000  1.0 0.1488016901
H  H50  1  0.88470000  0.70260000  0.37670000  1.0 0.159385703
H  H51  1  0.85370000  0.65460000  0.28870000  1.0 0.1488016901
H  H52  1  0.80070000  0.63300000  0.32290000  1.0 0.159385703
H  H53  1  0.80590000  0.32110000  0.72940000  1.0 0.3001286767
H  H54  1  0.88600000  0.40550000  0.04050000  1.0 0.159385703
H  H55  1  0.86260000  0.39140000  0.95720000  1.0 0.1488016901
H  H56  1  0.92970000  0.38030000  0.00060000  1.0 0.159385703
H  H57  1  0.66380000  0.11280000  0.74560000  1.0 0.1650768576
H  H58  1  0.63080000  0.16680000  0.76800000  1.0 0.159385703
H  H59  1  0.60590000  0.09280000  0.77510000  1.0 0.159385703
H  H60  1  0.90300000  0.28500000  0.85620000  1.0 0.1488016901
H  H61  1  0.89410000  0.28750000  0.78140000  1.0 0.1488016901
H  H62  1  0.84420000  0.21090000  0.77590000  1.0 0.1488016901
H  H63  1  0.70260000  0.37670000  0.88470000  1.0 0.159385703
H  H64  1  0.65460000  0.28870000  0.85370000  1.0 0.1445635317
H  H65  1  0.63300000  0.32290000  0.80070000  1.0 0.159385703
H  H66  1  0.40830000  0.17890000  0.98480000  1.0 0.3001286767
H  H67  1  0.63500000  0.09450000  0.98050000  1.0 0.159385703
H  H68  1  0.56580000  0.10860000  0.97120000  1.0 0.1488016901
H  H69  1  0.62030000  0.11970000  0.04940000  1.0 0.159385703
H  H70  1  0.63280000  0.38720000  0.05100000  1.0 0.1650768576
H  H71  1  0.60120000  0.33320000  0.96400000  1.0 0.159385703
H  H72  1  0.68230000  0.40720000  0.01310000  1.0 0.159385703
H  H73  1  0.57120000  0.21500000  0.11800000  1.0 0.1488016901
H  H74  1  0.49390000  0.21250000  0.10660000  1.0 0.1488016901
H  H75  1  0.56500000  0.28910000  0.13330000  1.0 0.1488016901
H  H76  1  0.50800000  0.12330000  0.82590000  1.0 0.159385703
H  H77  1  0.56500000  0.21130000  0.86590000  1.0 0.1488016901
H  H78  1  0.47780000  0.17710000  0.81010000  1.0 0.159385703
H  H79  1  0.09170000  0.07650000  0.77060000  1.0 0.3001286767
H  H80  1  0.86500000  0.84550000  0.45950000  1.0 0.159385703
H  H81  1  0.93420000  0.90540000  0.54280000  1.0 0.1488016901
H  H82  1  0.87970000  0.92910000  0.49940000  1.0 0.159385703
H  H83  1  0.86720000  0.91820000  0.75440000  1.0 0.1650768576
H  H84  1  0.89880000  0.86280000  0.73200000  1.0 0.159385703
H  H85  1  0.81770000  0.83080000  0.72490000  1.0 0.159385703
H  H86  1  0.92880000  0.04680000  0.64380000  1.0 0.1488016901
H  H87  1  0.00610000  0.11270000  0.71860000  1.0 0.1488016901
H  H88  1  0.93500000  0.06830000  0.72410000  1.0 0.1488016901
H  H89  1  0.99200000  0.81790000  0.61530000  1.0 0.159385703
H  H90  1  0.93500000  0.80090000  0.64630000  1.0 0.1488016901
H  H91  1  0.02220000  0.83230000  0.69930000  1.0 0.159385703
H  H92  1  0.69410000  0.42350000  0.51520000  1.0 0.3001286767
H  H93  1  0.61400000  0.65450000  0.51950000  1.0 0.159385703
H  H94  1  0.63740000  0.59460000  0.52880000  1.0 0.1488016901
H  H95  1  0.57030000  0.57090000  0.45060000  1.0 0.159385703
H  H96  1  0.83620000  0.58180000  0.44900000  1.0 0.1650768576
H  H97  1  0.86920000  0.63720000  0.53600000  1.0 0.159385703
H  H98  1  0.89410000  0.66920000  0.48690000  1.0 0.159385703
H  H99  1  0.59700000  0.45320000  0.38200000  1.0 0.1488016901
H  H100  1  0.60590000  0.38730000  0.39340000  1.0 0.1488016901
H  H101  1  0.65580000  0.43170000  0.36670000  1.0 0.1488016901
H  H102  1  0.79740000  0.68210000  0.67410000  1.0 0.159385703
H  H103  1  0.84540000  0.69910000  0.63410000  1.0 0.1488016901
H  H104  1  0.86700000  0.66770000  0.68990000  1.0 0.159385703
H  H105  1  0.17890000  0.98480000  0.40830000  1.0 0.3001286767
H  H106  1  0.09450000  0.98050000  0.63500000  1.0 0.159385703
H  H107  1  0.10860000  0.97120000  0.56580000  1.0 0.1488016901
H  H108  1  0.11970000  0.04940000  0.62030000  1.0 0.159385703
H  H109  1  0.38720000  0.05100000  0.63280000  1.0 0.1650768576
H  H110  1  0.33320000  0.96400000  0.60120000  1.0 0.159385703
H  H111  1  0.40720000  0.01310000  0.68230000  1.0 0.159385703
H  H112  1  0.21500000  0.11800000  0.57120000  1.0 0.1488016901
H  H113  1  0.21250000  0.10660000  0.49390000  1.0 0.1488016901
H  H114  1  0.28910000  0.13330000  0.56500000  1.0 0.1488016901
H  H115  1  0.12330000  0.82590000  0.50800000  1.0 0.159385703
H  H116  1  0.21130000  0.86590000  0.56500000  1.0 0.1488016901
H  H117  1  0.17710000  0.81010000  0.47780000  1.0 0.159385703
H  H118  1  0.32110000  0.72940000  0.80590000  1.0 0.3001286767
H  H119  1  0.40550000  0.04050000  0.88600000  1.0 0.159385703
H  H120  1  0.39140000  0.95720000  0.86260000  1.0 0.1488016901
H  H121  1  0.38030000  0.00060000  0.92970000  1.0 0.159385703
H  H122  1  0.11280000  0.74560000  0.66380000  1.0 0.1650768576
H  H123  1  0.16680000  0.76800000  0.63080000  1.0 0.159385703
H  H124  1  0.09280000  0.77510000  0.60590000  1.0 0.159385703
H  H125  1  0.28500000  0.85620000  0.90300000  1.0 0.1488016901
H  H126  1  0.28750000  0.78140000  0.89410000  1.0 0.1488016901
H  H127  1  0.21090000  0.77590000  0.84420000  1.0 0.1488016901
H  H128  1  0.37670000  0.88470000  0.70260000  1.0 0.159385703
H  H129  1  0.28870000  0.85370000  0.65460000  1.0 0.1488016901
H  H130  1  0.32290000  0.80070000  0.63300000  1.0 0.159385703
H  H131  1  0.42350000  0.51520000  0.69410000  1.0 0.3001286767
H  H132  1  0.65450000  0.51950000  0.61400000  1.0 0.159385703
H  H133  1  0.59460000  0.52880000  0.63740000  1.0 0.1488016901
H  H134  1  0.57090000  0.45060000  0.57030000  1.0 0.159385703
H  H135  1  0.58180000  0.44900000  0.83620000  1.0 0.1650768576
H  H136  1  0.63720000  0.53600000  0.86920000  1.0 0.159385703
H  H137  1  0.66920000  0.48690000  0.89410000  1.0 0.159385703
H  H138  1  0.45320000  0.38200000  0.59700000  1.0 0.1488016901
H  H139  1  0.38730000  0.39340000  0.60590000  1.0 0.1488016901
H  H140  1  0.43170000  0.36670000  0.65580000  1.0 0.1488016901
H  H141  1  0.68210000  0.67410000  0.79740000  1.0 0.159385703
H  H142  1  0.69910000  0.63410000  0.84540000  1.0 0.1488016901
H  H143  1  0.66770000  0.68990000  0.86700000  1.0 0.159385703
H  H144  1  0.07650000  0.77060000  0.09170000  1.0 0.3001286767
H  H145  1  0.84550000  0.45950000  0.86500000  1.0 0.159385703
H  H146  1  0.90540000  0.54280000  0.93420000  1.0 0.1488016901
H  H147  1  0.92910000  0.49940000  0.87970000  1.0 0.159385703
H  H148  1  0.91820000  0.75440000  0.86720000  1.0 0.1650768576
H  H149  1  0.86280000  0.73200000  0.89880000  1.0 0.159385703
H  H150  1  0.83080000  0.72490000  0.81770000  1.0 0.159385703
H  H151  1  0.04680000  0.64380000  0.92880000  1.0 0.1488016901
H  H152  1  0.11270000  0.71860000  0.00610000  1.0 0.1488016901
H  H153  1  0.06830000  0.72410000  0.93500000  1.0 0.1488016901
H  H154  1  0.81790000  0.61530000  0.99200000  1.0 0.159385703
H  H155  1  0.80090000  0.64630000  0.93500000  1.0 0.1488016901
H  H156  1  0.83230000  0.69930000  0.02220000  1.0 0.159385703
C  C1  1  0.49400000  0.61920000  0.61180000  1.0 -0.5267113589
C  C2  1  0.46810000  0.67400000  0.63510000  1.0 0.3997525779
C  C3  1  0.48010000  0.72860000  0.61730000  1.0 -0.2246680798
C  C4  1  0.46600000  0.78760000  0.64760000  1.0 0.4445389889
C  C5  1  0.48630000  0.85250000  0.63260000  1.0 -0.5191058757
C  C6  1  0.39810000  0.63250000  0.43620000  1.0 -0.459856862
C  C7  1  0.47810000  0.69190000  0.49180000  1.0 0.2020543772
C  C8  1  0.51360000  0.73240000  0.56740000  1.0 -0.1082997912
C  C9  1  0.58850000  0.77510000  0.58840000  1.0 0.2255457002
C  C10  1  0.65190000  0.82540000  0.66570000  1.0 -0.4918341157
C  C11  1  0.50740000  0.88220000  0.88820000  1.0 -0.5267113589
C  C12  1  0.53890000  0.83300000  0.86490000  1.0 0.3997525779
C  C13  1  0.61130000  0.86280000  0.88270000  1.0 -0.2246680798
C  C14  1  0.64000000  0.81840000  0.85240000  1.0 0.4445389889
C  C15  1  0.71990000  0.85370000  0.86740000  1.0 -0.5191058757
C  C16  1  0.69630000  0.96190000  0.06380000  1.0 -0.459856862
C  C17  1  0.70010000  0.98630000  0.00820000  1.0 0.2020543772
C  C18  1  0.66500000  0.94620000  0.93260000  1.0 -0.1082997912
C  C19  1  0.68670000  0.00010000  0.91160000  1.0 0.2255457002
C  C20  1  0.65970000  0.98620000  0.83430000  1.0 -0.4918341157
C  C21  1  0.00600000  0.61780000  0.12520000  1.0 -0.5267113589
C  C22  1  0.03190000  0.66700000  0.20590000  1.0 0.3997525779
C  C23  1  0.01990000  0.63720000  0.24850000  1.0 -0.2246680798
C  C24  1  0.03400000  0.68160000  0.32160000  1.0 0.4445389889
C  C25  1  0.01370000  0.64630000  0.36620000  1.0 -0.5191058757
C  C26  1  0.10190000  0.53810000  0.23440000  1.0 -0.459856862
C  C27  1  0.02190000  0.51370000  0.21380000  1.0 0.2020543772
C  C28  1  0.98640000  0.55380000  0.21880000  1.0 -0.1082997912
C  C29  1  0.91150000  0.49990000  0.18660000  1.0 0.2255457002
C  C30  1  0.84810000  0.51380000  0.17350000  1.0 -0.4918341157
C  C31  1  0.99260000  0.88080000  0.37480000  1.0 -0.5267113589
C  C32  1  0.96110000  0.82600000  0.29410000  1.0 0.3997525779
C  C33  1  0.88870000  0.77140000  0.25150000  1.0 -0.2246680798
C  C34  1  0.86000000  0.71240000  0.17840000  1.0 0.4445389889
C  C35  1  0.78010000  0.64750000  0.13380000  1.0 -0.5191058757
C  C36  1  0.80370000  0.86750000  0.26560000  1.0 -0.459856862
C  C37  1  0.79990000  0.80810000  0.28620000  1.0 0.2020543772
C  C38  1  0.83500000  0.76760000  0.28120000  1.0 -0.1082997912
C  C39  1  0.81330000  0.72490000  0.31340000  1.0 0.2255457002
C  C40  1  0.84030000  0.67460000  0.32650000  1.0 -0.4918341157
C  C41  1  0.88080000  0.37480000  0.99260000  1.0 -0.5267113589
C  C42  1  0.82600000  0.29410000  0.96110000  1.0 0.3997525779
C  C43  1  0.77140000  0.25150000  0.88870000  1.0 -0.2246680798
C  C44  1  0.71240000  0.17840000  0.86000000  1.0 0.4445389889
C  C45  1  0.64750000  0.13380000  0.78010000  1.0 -0.5191058757
C  C46  1  0.86750000  0.26560000  0.80370000  1.0 -0.459856862
C  C47  1  0.80810000  0.28620000  0.79990000  1.0 0.2020543772
C  C48  1  0.76760000  0.28120000  0.83500000  1.0 -0.1082997912
C  C49  1  0.72490000  0.31340000  0.81330000  1.0 0.2255457002
C  C50  1  0.67460000  0.32650000  0.84030000  1.0 -0.4918341157
C  C51  1  0.61780000  0.12520000  0.00600000  1.0 -0.5267113589
C  C52  1  0.66700000  0.20590000  0.03190000  1.0 0.3997525779
C  C53  1  0.63720000  0.24850000  0.01990000  1.0 -0.2246680798
C  C54  1  0.68160000  0.32160000  0.03400000  1.0 0.4445389889
C  C55  1  0.64630000  0.36620000  0.01370000  1.0 -0.5191058757
C  C56  1  0.53810000  0.23440000  0.10190000  1.0 -0.459856862
C  C57  1  0.51370000  0.21380000  0.02190000  1.0 0.2020543772
C  C58  1  0.55380000  0.21880000  0.98640000  1.0 -0.1082997912
C  C59  1  0.49990000  0.18660000  0.91150000  1.0 0.2255457002
C  C60  1  0.51380000  0.17350000  0.84810000  1.0 -0.4918341157
C  C61  1  0.88220000  0.88820000  0.50740000  1.0 -0.5267113589
C  C62  1  0.83300000  0.86490000  0.53890000  1.0 0.3997525779
C  C63  1  0.86280000  0.88270000  0.61130000  1.0 -0.2246680798
C  C64  1  0.81840000  0.85240000  0.64000000  1.0 0.4445389889
C  C65  1  0.85370000  0.86740000  0.71990000  1.0 -0.5191058757
C  C66  1  0.96190000  0.06380000  0.69630000  1.0 -0.459856862
C  C67  1  0.98630000  0.00820000  0.70010000  1.0 0.2020543772
C  C68  1  0.94620000  0.93260000  0.66500000  1.0 -0.1082997912
C  C69  1  0.00010000  0.91160000  0.68670000  1.0 0.2255457002
C  C70  1  0.98620000  0.83430000  0.65970000  1.0 -0.4918341157
C  C71  1  0.61920000  0.61180000  0.49400000  1.0 -0.5267113589
C  C72  1  0.67400000  0.63510000  0.46810000  1.0 0.3997525779
C  C73  1  0.72860000  0.61730000  0.48010000  1.0 -0.2246680798
C  C74  1  0.78760000  0.64760000  0.46600000  1.0 0.4445389889
C  C75  1  0.85250000  0.63260000  0.48630000  1.0 -0.5191058757
C  C76  1  0.63250000  0.43620000  0.39810000  1.0 -0.459856862
C  C77  1  0.69190000  0.49180000  0.47810000  1.0 0.2020543772
C  C78  1  0.73240000  0.56740000  0.51360000  1.0 -0.1082997912
C  C79  1  0.77510000  0.58840000  0.58850000  1.0 0.2255457002
C  C80  1  0.82540000  0.66570000  0.65190000  1.0 -0.4918341157
C  C81  1  0.12520000  0.00600000  0.61780000  1.0 -0.5267113589
C  C82  1  0.20590000  0.03190000  0.66700000  1.0 0.3997525779
C  C83  1  0.24850000  0.01990000  0.63720000  1.0 -0.2246680798
C  C84  1  0.32160000  0.03400000  0.68160000  1.0 0.4445389889
C  C85  1  0.36620000  0.01370000  0.64630000  1.0 -0.5191058757
C  C86  1  0.23440000  0.10190000  0.53810000  1.0 -0.459856862
C  C87  1  0.21380000  0.02190000  0.51370000  1.0 0.2020543772
C  C88  1  0.21880000  0.98640000  0.55380000  1.0 -0.1082997912
C  C89  1  0.18660000  0.91150000  0.49990000  1.0 0.2255457002
C  C90  1  0.17350000  0.84810000  0.51380000  1.0 -0.4918341157
C  C91  1  0.37480000  0.99260000  0.88080000  1.0 -0.5267113589
C  C92  1  0.29410000  0.96110000  0.82600000  1.0 0.3997525779
C  C93  1  0.25150000  0.88870000  0.77140000  1.0 -0.2246680798
C  C94  1  0.17840000  0.86000000  0.71240000  1.0 0.4445389889
C  C95  1  0.13380000  0.78010000  0.64750000  1.0 -0.5191058757
C  C96  1  0.26560000  0.80370000  0.86750000  1.0 -0.459856862
C  C97  1  0.28620000  0.79990000  0.80810000  1.0 0.2020543772
C  C98  1  0.28120000  0.83500000  0.76760000  1.0 -0.1082997912
C  C99  1  0.31340000  0.81330000  0.72490000  1.0 0.2255457002
C  C100  1  0.32650000  0.84030000  0.67460000  1.0 -0.4918341157
C  C101  1  0.61180000  0.49400000  0.61920000  1.0 -0.5267113589
C  C102  1  0.63510000  0.46810000  0.67400000  1.0 0.3997525779
C  C103  1  0.61730000  0.48010000  0.72860000  1.0 -0.2246680798
C  C104  1  0.64760000  0.46600000  0.78760000  1.0 0.4445389889
C  C105  1  0.63260000  0.48630000  0.85250000  1.0 -0.5191058757
C  C106  1  0.43620000  0.39810000  0.63250000  1.0 -0.459856862
C  C107  1  0.49180000  0.47810000  0.69190000  1.0 0.2020543772
C  C108  1  0.56740000  0.51360000  0.73240000  1.0 -0.1082997912
C  C109  1  0.58840000  0.58850000  0.77510000  1.0 0.2255457002
C  C110  1  0.66570000  0.65190000  0.82540000  1.0 -0.4918341157
C  C111  1  0.88820000  0.50740000  0.88220000  1.0 -0.5267113589
C  C112  1  0.86490000  0.53890000  0.83300000  1.0 0.3997525779
C  C113  1  0.88270000  0.61130000  0.86280000  1.0 -0.2246680798
C  C114  1  0.85240000  0.64000000  0.81840000  1.0 0.4445389889
C  C115  1  0.86740000  0.71990000  0.85370000  1.0 -0.5191058757
C  C116  1  0.06380000  0.69630000  0.96190000  1.0 -0.459856862
C  C117  1  0.00820000  0.70010000  0.98630000  1.0 0.2020543772
C  C118  1  0.93260000  0.66500000  0.94620000  1.0 -0.1082997912
C  C119  1  0.91160000  0.68670000  0.00010000  1.0 0.2255457002
C  C120  1  0.83430000  0.65970000  0.98620000  1.0 -0.4918341157
S  S1  1  0.34215000  0.57725000  0.73470000  1.0 0.4596457407
S  S2  1  0.34255000  0.60745000  0.76530000  1.0 0.4596457407
S  S3  1  0.15785000  0.89255000  0.23510000  1.0 0.4596457407
S  S4  1  0.15745000  0.92275000  0.26490000  1.0 0.4596457407
S  S5  1  0.92275000  0.26490000  0.15745000  1.0 0.4596457407
S  S6  1  0.89255000  0.23510000  0.15785000  1.0 0.4503555951
S  S7  1  0.60745000  0.76530000  0.34255000  1.0 0.4503555951
S  S8  1  0.57725000  0.73470000  0.34215000  1.0 0.4503555951
S  S9  1  0.23510000  0.15785000  0.89255000  1.0 0.4596457407
S  S10  1  0.26490000  0.15745000  0.92275000  1.0 0.4596457407
S  S11  1  0.73470000  0.34215000  0.57725000  1.0 0.4596457407
S  S12  1  0.76530000  0.34255000  0.60745000  1.0 0.4596457407
N  N1  1  0.59810000  0.76580000  0.53070000  1.0 -0.2711248787
N  N2  1  0.52650000  0.71220000  0.47070000  1.0 -0.1042511629
N  N3  1  0.73510000  0.06740000  0.96930000  1.0 -0.2711248787
N  N4  1  0.74150000  0.05580000  0.02930000  1.0 -0.1042511629
N  N5  1  0.90190000  0.43260000  0.16770000  1.0 -0.2711248787
N  N6  1  0.97350000  0.44420000  0.18570000  1.0 -0.1082997912
N  N7  1  0.76490000  0.73420000  0.33230000  1.0 -0.2711248787
N  N8  1  0.75850000  0.78780000  0.31430000  1.0 -0.1082997912
N  N9  1  0.73420000  0.33230000  0.76490000  1.0 -0.2711248787
N  N10  1  0.78780000  0.31430000  0.75850000  1.0 -0.1082997912
N  N11  1  0.43260000  0.16770000  0.90190000  1.0 -0.2711248787
N  N12  1  0.44420000  0.18570000  0.97350000  1.0 -0.1082997912
N  N13  1  0.06740000  0.96930000  0.73510000  1.0 -0.2711248787
N  N14  1  0.05580000  0.02930000  0.74150000  1.0 -0.1082997912
N  N15  1  0.76580000  0.53070000  0.59810000  1.0 -0.2711248787
N  N16  1  0.71220000  0.47070000  0.52650000  1.0 -0.1082997912
N  N17  1  0.16770000  0.90190000  0.43260000  1.0 -0.2711248787
N  N18  1  0.18570000  0.97350000  0.44420000  1.0 -0.1082997912
N  N19  1  0.33230000  0.76490000  0.73420000  1.0 -0.2711248787
N  N20  1  0.31430000  0.75850000  0.78780000  1.0 -0.1082997912
N  N21  1  0.53070000  0.59810000  0.76580000  1.0 -0.2711248787
N  N22  1  0.47070000  0.52650000  0.71220000  1.0 -0.1082997912
N  N23  1  0.96930000  0.73510000  0.06740000  1.0 -0.2711248787
N  N24  1  0.02930000  0.74150000  0.05580000  1.0 -0.1082997912
O  O1  1  0.43310000  0.66090000  0.66980000  1.0 -0.4918341157
O  O2  1  0.43881000  0.79240000  0.69041000  1.0 -0.4446831765
O  O3  1  0.32380000  0.62720000  0.71000000  1.0 -0.459856862
O  O4  1  0.32920000  0.51590000  0.66770000  1.0 -0.459856862
O  O5  1  0.49110000  0.76330000  0.83020000  1.0 -0.4918341157
O  O6  1  0.60199000  0.74840000  0.80959000  1.0 -0.4446831765
O  O7  1  0.41720000  0.61380000  0.79000000  1.0 -0.459856862
O  O8  1  0.34820000  0.66150000  0.83230000  1.0 -0.459856862
O  O9  1  0.06690000  0.73670000  0.22780000  1.0 -0.4918341157
O  O10  1  0.06119000  0.75160000  0.35359000  1.0 -0.4456612112
O  O11  1  0.17620000  0.88620000  0.30340000  1.0 -0.4659535947
O  O12  1  0.17080000  0.83850000  0.18670000  1.0 -0.459856862
O  O13  1  0.00890000  0.83910000  0.27220000  1.0 -0.4918341157
O  O14  1  0.89801000  0.70760000  0.14641000  1.0 -0.4446831765
O  O15  1  0.08280000  0.87280000  0.19660000  1.0 -0.459856862
O  O16  1  0.15180000  0.98410000  0.31330000  1.0 -0.459856862
O  O17  1  0.83910000  0.27220000  0.00890000  1.0 -0.4918341157
O  O18  1  0.70760000  0.14641000  0.89801000  1.0 -0.4446831765
O  O19  1  0.87280000  0.19660000  0.08280000  1.0 -0.4659535947
O  O20  1  0.98410000  0.31330000  0.15180000  1.0 -0.459856862
O  O21  1  0.73670000  0.22780000  0.06690000  1.0 -0.4918341157
O  O22  1  0.75160000  0.35359000  0.06119000  1.0 -0.4446831765
O  O23  1  0.88620000  0.30340000  0.17620000  1.0 -0.4659535947
O  O24  1  0.83850000  0.18670000  0.17080000  1.0 -0.459856862
O  O25  1  0.76330000  0.83020000  0.49110000  1.0 -0.4918341157
O  O26  1  0.74840000  0.80959000  0.60199000  1.0 -0.4446831765
O  O27  1  0.61380000  0.79000000  0.41720000  1.0 -0.4659535947
O  O28  1  0.66150000  0.83230000  0.34820000  1.0 -0.459856862
O  O29  1  0.66090000  0.66980000  0.43310000  1.0 -0.4918341157
O  O30  1  0.79240000  0.69041000  0.43881000  1.0 -0.4446831765
O  O31  1  0.62720000  0.71000000  0.32380000  1.0 -0.4659535947
O  O32  1  0.51590000  0.66770000  0.32920000  1.0 -0.459856862
O  O33  1  0.22780000  0.06690000  0.73670000  1.0 -0.4918341157
O  O34  1  0.35359000  0.06119000  0.75160000  1.0 -0.4446831765
O  O35  1  0.30340000  0.17620000  0.88620000  1.0 -0.459856862
O  O36  1  0.18670000  0.17080000  0.83850000  1.0 -0.459856862
O  O37  1  0.27220000  0.00890000  0.83910000  1.0 -0.4918341157
O  O38  1  0.14641000  0.89801000  0.70760000  1.0 -0.4456612112
O  O39  1  0.19660000  0.08280000  0.87280000  1.0 -0.459856862
O  O40  1  0.31330000  0.15180000  0.98410000  1.0 -0.459856862
O  O41  1  0.66980000  0.43310000  0.66090000  1.0 -0.4918341157
O  O42  1  0.69041000  0.43881000  0.79240000  1.0 -0.4446831765
O  O43  1  0.71000000  0.32380000  0.62720000  1.0 -0.459856862
O  O44  1  0.66770000  0.32920000  0.51590000  1.0 -0.459856862
O  O45  1  0.83020000  0.49110000  0.76330000  1.0 -0.4918341157
O  O46  1  0.80959000  0.60199000  0.74840000  1.0 -0.4446831765
O  O47  1  0.79000000  0.41720000  0.61380000  1.0 -0.459856862
O  O48  1  0.83230000  0.34820000  0.66150000  1.0 -0.459856862
O  O49  1  0.28840000  0.53840000  0.75000000  1.0 -0.3499548129
O  O50  1  0.21160000  0.96160000  0.25000000  1.0 -0.3499548129
O  O51  1  0.96160000  0.25000000  0.21160000  1.0 -0.3499548129
O  O52  1  0.53840000  0.75000000  0.28840000  1.0 -0.3499548129
O  O53  1  0.25000000  0.21160000  0.96160000  1.0 -0.3499548129
O  O54  1  0.75000000  0.28840000  0.53840000  1.0 -0.3499548129
