# DDEC6 charges by PACMAN v1.1 (https://github.com/mtap-research/PACMAN-charge/)
data_QEZZED_ASR_pacman
_symmetry_space_group_name_H-M   'P 1'
_cell_length_a   23.66120000
_cell_length_b   23.66120000
_cell_length_c   28.68590000
_cell_angle_alpha   90.00000000
_cell_angle_beta   90.00000000
_cell_angle_gamma   120.00000000
_symmetry_Int_Tables_number   1
_chemical_formula_structural   Ni6H60C60N3O25
_chemical_formula_sum   'Ni24 H240 C240 N12 O100'
_cell_volume   13908.25500613
_cell_formula_units_Z   4
loop_
 _symmetry_equiv_pos_site_id
 _symmetry_equiv_pos_as_xyz
  1  'x, y, z'
loop_
 _atom_site_type_symbol
 _atom_site_label
 _atom_site_symmetry_multiplicity
 _atom_site_fract_x
 _atom_site_fract_y
 _atom_site_fract_z
 _atom_site_occupancy
 _atom_site_charge
Ni  Ni1  1  0.00000000  0.53950000  0.46674000  1.0 0.7342376703
Ni  Ni2  1  0.53950000  0.00000000  0.46674000  1.0 0.7342376703
Ni  Ni3  1  0.46050000  0.46050000  0.46674000  1.0 0.7342376703
Ni  Ni4  1  0.00000000  0.46050000  0.96674000  1.0 0.7342376703
Ni  Ni5  1  0.46050000  0.00000000  0.96674000  1.0 0.7342376703
Ni  Ni6  1  0.53950000  0.53950000  0.96674000  1.0 0.7342376703
Ni  Ni7  1  0.46050000  0.46050000  0.03326000  1.0 0.7342376703
Ni  Ni8  1  0.53950000  0.00000000  0.03326000  1.0 0.7342376703
Ni  Ni9  1  0.00000000  0.53950000  0.03326000  1.0 0.7342376703
Ni  Ni10  1  0.53950000  0.53950000  0.53326000  1.0 0.7342376703
Ni  Ni11  1  0.46050000  0.00000000  0.53326000  1.0 0.7342376703
Ni  Ni12  1  0.00000000  0.46050000  0.53326000  1.0 0.7342376703
Ni  Ni13  1  0.64542000  0.24045000  0.25000000  1.0 1.0725329711
Ni  Ni14  1  0.59503000  0.35458000  0.25000000  1.0 1.0725329711
Ni  Ni15  1  0.75955000  0.40497000  0.25000000  1.0 1.0725329711
Ni  Ni16  1  0.35458000  0.75955000  0.75000000  1.0 1.0725329711
Ni  Ni17  1  0.40497000  0.64542000  0.75000000  1.0 1.0725329711
Ni  Ni18  1  0.24045000  0.59503000  0.75000000  1.0 1.0725329711
Ni  Ni19  1  0.40497000  0.75955000  0.25000000  1.0 1.0725329711
Ni  Ni20  1  0.24045000  0.64542000  0.25000000  1.0 1.0725329711
Ni  Ni21  1  0.35458000  0.59503000  0.25000000  1.0 1.0725329711
Ni  Ni22  1  0.59503000  0.24045000  0.75000000  1.0 1.0725329711
Ni  Ni23  1  0.75955000  0.35458000  0.75000000  1.0 1.0725329711
Ni  Ni24  1  0.64542000  0.40497000  0.75000000  1.0 1.0725329711
H  H1  1  0.85244000  0.39316000  0.37305000  1.0 0.1468988465
H  H2  1  0.85869000  0.27721000  0.47331000  1.0 0.1266856182
H  H3  1  0.77502000  0.18577000  0.43607000  1.0 0.1078922469
H  H4  1  0.73263000  0.19807000  0.36664000  1.0 0.1210477992
H  H5  1  0.05708000  0.66777000  0.37309000  1.0 0.062277905
H  H6  1  0.02528000  0.59244000  0.35917000  1.0 0.0826674448
H  H7  1  0.08447000  0.62426000  0.39552000  1.0 0.1026405388
H  H8  1  0.08872000  0.67879000  0.43529000  1.0 0.1026405388
H  H9  1  0.05986000  0.68589000  0.38658000  1.0 0.0720185855
H  H10  1  0.08474000  0.63454000  0.39182000  1.0 0.1078922469
H  H11  1  0.54072000  0.14756000  0.37305000  1.0 0.1468988465
H  H12  1  0.41852000  0.14131000  0.47331000  1.0 0.1266856182
H  H13  1  0.41075000  0.22498000  0.43607000  1.0 0.1078922469
H  H14  1  0.46544000  0.26737000  0.36664000  1.0 0.1210477992
H  H15  1  0.61069000  0.94292000  0.37309000  1.0 0.062277905
H  H16  1  0.56716000  0.97472000  0.35917000  1.0 0.0826674448
H  H17  1  0.53979000  0.91553000  0.39552000  1.0 0.1026405388
H  H18  1  0.59007000  0.91128000  0.43529000  1.0 0.1026405388
H  H19  1  0.62603000  0.94014000  0.38658000  1.0 0.0720185855
H  H20  1  0.54980000  0.91526000  0.39182000  1.0 0.1078922469
H  H21  1  0.60684000  0.45928000  0.37305000  1.0 0.1468988465
H  H22  1  0.72279000  0.58148000  0.47331000  1.0 0.1266856182
H  H23  1  0.81423000  0.58925000  0.43607000  1.0 0.1078922469
H  H24  1  0.80193000  0.53456000  0.36664000  1.0 0.1210477992
H  H25  1  0.33223000  0.38931000  0.37309000  1.0 0.062277905
H  H26  1  0.40756000  0.43284000  0.35917000  1.0 0.0826674448
H  H27  1  0.37574000  0.46021000  0.39552000  1.0 0.1026405388
H  H28  1  0.32121000  0.40993000  0.43529000  1.0 0.1026405388
H  H29  1  0.31411000  0.37397000  0.38658000  1.0 0.0720185855
H  H30  1  0.36546000  0.45020000  0.39182000  1.0 0.1078922469
H  H31  1  0.14756000  0.60684000  0.87305000  1.0 0.1468988465
H  H32  1  0.14131000  0.72279000  0.97331000  1.0 0.1266856182
H  H33  1  0.22498000  0.81423000  0.93607000  1.0 0.1078922469
H  H34  1  0.26737000  0.80193000  0.86664000  1.0 0.1210477992
H  H35  1  0.94292000  0.33223000  0.87309000  1.0 0.062277905
H  H36  1  0.97472000  0.40756000  0.85917000  1.0 0.0826674448
H  H37  1  0.91553000  0.37574000  0.89552000  1.0 0.1026405388
H  H38  1  0.91128000  0.32121000  0.93529000  1.0 0.1026405388
H  H39  1  0.94014000  0.31411000  0.88658000  1.0 0.0720185855
H  H40  1  0.91526000  0.36546000  0.89182000  1.0 0.1078922469
H  H41  1  0.45928000  0.85244000  0.87305000  1.0 0.1468988465
H  H42  1  0.58148000  0.85869000  0.97331000  1.0 0.1266856182
H  H43  1  0.58925000  0.77502000  0.93607000  1.0 0.1078922469
H  H44  1  0.53456000  0.73263000  0.86664000  1.0 0.1210477992
H  H45  1  0.38931000  0.05708000  0.87309000  1.0 0.062277905
H  H46  1  0.43284000  0.02528000  0.85917000  1.0 0.0826674448
H  H47  1  0.46021000  0.08447000  0.89552000  1.0 0.1026405388
H  H48  1  0.40993000  0.08872000  0.93529000  1.0 0.1026405388
H  H49  1  0.37397000  0.05986000  0.88658000  1.0 0.0720185855
H  H50  1  0.45020000  0.08474000  0.89182000  1.0 0.1078922469
H  H51  1  0.39316000  0.54072000  0.87305000  1.0 0.1468988465
H  H52  1  0.27721000  0.41852000  0.97331000  1.0 0.1266856182
H  H53  1  0.18577000  0.41075000  0.93607000  1.0 0.1078922469
H  H54  1  0.19807000  0.46544000  0.86664000  1.0 0.1210477992
H  H55  1  0.66777000  0.61069000  0.87309000  1.0 0.062277905
H  H56  1  0.59244000  0.56716000  0.85917000  1.0 0.0826674448
H  H57  1  0.62426000  0.53979000  0.89552000  1.0 0.1026405388
H  H58  1  0.67879000  0.59007000  0.93529000  1.0 0.1026405388
H  H59  1  0.68589000  0.62603000  0.88658000  1.0 0.0720185855
H  H60  1  0.63454000  0.54980000  0.89182000  1.0 0.1078922469
H  H61  1  0.45928000  0.60684000  0.12695000  1.0 0.1468988465
H  H62  1  0.58148000  0.72279000  0.02669000  1.0 0.1266856182
H  H63  1  0.58925000  0.81423000  0.06393000  1.0 0.1078922469
H  H64  1  0.53456000  0.80193000  0.13336000  1.0 0.1210477992
H  H65  1  0.38931000  0.33223000  0.12691000  1.0 0.062277905
H  H66  1  0.43284000  0.40756000  0.14083000  1.0 0.0826674448
H  H67  1  0.46021000  0.37574000  0.10448000  1.0 0.1026405388
H  H68  1  0.40993000  0.32121000  0.06471000  1.0 0.1026405388
H  H69  1  0.37397000  0.31411000  0.11342000  1.0 0.0720185855
H  H70  1  0.45020000  0.36546000  0.10818000  1.0 0.1078922469
H  H71  1  0.39316000  0.85244000  0.12695000  1.0 0.1468988465
H  H72  1  0.27721000  0.85869000  0.02669000  1.0 0.1266856182
H  H73  1  0.18577000  0.77502000  0.06393000  1.0 0.1078922469
H  H74  1  0.19807000  0.73263000  0.13336000  1.0 0.1210477992
H  H75  1  0.66777000  0.05708000  0.12691000  1.0 0.062277905
H  H76  1  0.59244000  0.02528000  0.14083000  1.0 0.0826674448
H  H77  1  0.62426000  0.08447000  0.10448000  1.0 0.1026405388
H  H78  1  0.67879000  0.08872000  0.06471000  1.0 0.1026405388
H  H79  1  0.68589000  0.05986000  0.11342000  1.0 0.0720185855
H  H80  1  0.63454000  0.08474000  0.10818000  1.0 0.1078922469
H  H81  1  0.14756000  0.54072000  0.12695000  1.0 0.1468988465
H  H82  1  0.14131000  0.41852000  0.02669000  1.0 0.1266856182
H  H83  1  0.22498000  0.41075000  0.06393000  1.0 0.1078922469
H  H84  1  0.26737000  0.46544000  0.13336000  1.0 0.1210477992
H  H85  1  0.94292000  0.61069000  0.12691000  1.0 0.062277905
H  H86  1  0.97472000  0.56716000  0.14083000  1.0 0.0826674448
H  H87  1  0.91553000  0.53979000  0.10448000  1.0 0.1026405388
H  H88  1  0.91128000  0.59007000  0.06471000  1.0 0.1026405388
H  H89  1  0.94014000  0.62603000  0.11342000  1.0 0.0720185855
H  H90  1  0.91526000  0.54980000  0.10818000  1.0 0.1078922469
H  H91  1  0.54072000  0.39316000  0.62695000  1.0 0.1468988465
H  H92  1  0.41852000  0.27721000  0.52669000  1.0 0.1266856182
H  H93  1  0.41075000  0.18577000  0.56393000  1.0 0.1078922469
H  H94  1  0.46544000  0.19807000  0.63336000  1.0 0.1210477992
H  H95  1  0.61069000  0.66777000  0.62691000  1.0 0.062277905
H  H96  1  0.56716000  0.59244000  0.64083000  1.0 0.0826674448
H  H97  1  0.53979000  0.62426000  0.60448000  1.0 0.1026405388
H  H98  1  0.59007000  0.67879000  0.56471000  1.0 0.1026405388
H  H99  1  0.62603000  0.68589000  0.61342000  1.0 0.0720185855
H  H100  1  0.54980000  0.63454000  0.60818000  1.0 0.1078922469
H  H101  1  0.60684000  0.14756000  0.62695000  1.0 0.1468988465
H  H102  1  0.72279000  0.14131000  0.52669000  1.0 0.1266856182
H  H103  1  0.81423000  0.22498000  0.56393000  1.0 0.1078922469
H  H104  1  0.80193000  0.26737000  0.63336000  1.0 0.1210477992
H  H105  1  0.33223000  0.94292000  0.62691000  1.0 0.062277905
H  H106  1  0.40756000  0.97472000  0.64083000  1.0 0.0826674448
H  H107  1  0.37574000  0.91553000  0.60448000  1.0 0.1026405388
H  H108  1  0.32121000  0.91128000  0.56471000  1.0 0.1026405388
H  H109  1  0.31411000  0.94014000  0.61342000  1.0 0.0720185855
H  H110  1  0.36546000  0.91526000  0.60818000  1.0 0.1078922469
H  H111  1  0.85244000  0.45928000  0.62695000  1.0 0.1468988465
H  H112  1  0.85869000  0.58148000  0.52669000  1.0 0.1266856182
H  H113  1  0.77502000  0.58925000  0.56393000  1.0 0.1078922469
H  H114  1  0.73263000  0.53456000  0.63336000  1.0 0.1210477992
H  H115  1  0.05708000  0.38931000  0.62691000  1.0 0.062277905
H  H116  1  0.02528000  0.43284000  0.64083000  1.0 0.0826674448
H  H117  1  0.08447000  0.46021000  0.60448000  1.0 0.1026405388
H  H118  1  0.08872000  0.40993000  0.56471000  1.0 0.1026405388
H  H119  1  0.05986000  0.37397000  0.61342000  1.0 0.0720185855
H  H120  1  0.08474000  0.45020000  0.60818000  1.0 0.1078922469
H  H121  1  0.14756000  0.60684000  0.62695000  1.0 0.1468988465
H  H122  1  0.14131000  0.72279000  0.52669000  1.0 0.1266856182
H  H123  1  0.22498000  0.81423000  0.56393000  1.0 0.1078922469
H  H124  1  0.26737000  0.80193000  0.63336000  1.0 0.1210477992
H  H125  1  0.94292000  0.33223000  0.62691000  1.0 0.062277905
H  H126  1  0.97472000  0.40756000  0.64083000  1.0 0.0826674448
H  H127  1  0.91553000  0.37574000  0.60448000  1.0 0.1026405388
H  H128  1  0.91128000  0.32121000  0.56471000  1.0 0.1026405388
H  H129  1  0.94014000  0.31411000  0.61342000  1.0 0.0720185855
H  H130  1  0.91526000  0.36546000  0.60818000  1.0 0.1078922469
H  H131  1  0.45928000  0.85244000  0.62695000  1.0 0.1468988465
H  H132  1  0.58148000  0.85869000  0.52669000  1.0 0.1266856182
H  H133  1  0.58925000  0.77502000  0.56393000  1.0 0.1078922469
H  H134  1  0.53456000  0.73263000  0.63336000  1.0 0.1210477992
H  H135  1  0.38931000  0.05708000  0.62691000  1.0 0.062277905
H  H136  1  0.43284000  0.02528000  0.64083000  1.0 0.0826674448
H  H137  1  0.46021000  0.08447000  0.60448000  1.0 0.1026405388
H  H138  1  0.40993000  0.08872000  0.56471000  1.0 0.1026405388
H  H139  1  0.37397000  0.05986000  0.61342000  1.0 0.0720185855
H  H140  1  0.45020000  0.08474000  0.60818000  1.0 0.1078922469
H  H141  1  0.39316000  0.54072000  0.62695000  1.0 0.1468988465
H  H142  1  0.27721000  0.41852000  0.52669000  1.0 0.1266856182
H  H143  1  0.18577000  0.41075000  0.56393000  1.0 0.1078922469
H  H144  1  0.19807000  0.46544000  0.63336000  1.0 0.1210477992
H  H145  1  0.66777000  0.61069000  0.62691000  1.0 0.062277905
H  H146  1  0.59244000  0.56716000  0.64083000  1.0 0.0826674448
H  H147  1  0.62426000  0.53979000  0.60448000  1.0 0.1026405388
H  H148  1  0.67879000  0.59007000  0.56471000  1.0 0.1026405388
H  H149  1  0.68589000  0.62603000  0.61342000  1.0 0.0720185855
H  H150  1  0.63454000  0.54980000  0.60818000  1.0 0.1078922469
H  H151  1  0.85244000  0.39316000  0.12695000  1.0 0.1468988465
H  H152  1  0.85869000  0.27721000  0.02669000  1.0 0.1266856182
H  H153  1  0.77502000  0.18577000  0.06393000  1.0 0.1078922469
H  H154  1  0.73263000  0.19807000  0.13336000  1.0 0.1210477992
H  H155  1  0.05708000  0.66777000  0.12691000  1.0 0.062277905
H  H156  1  0.02528000  0.59244000  0.14083000  1.0 0.0826674448
H  H157  1  0.08447000  0.62426000  0.10448000  1.0 0.1026405388
H  H158  1  0.08872000  0.67879000  0.06471000  1.0 0.1026405388
H  H159  1  0.05986000  0.68589000  0.11342000  1.0 0.0720185855
H  H160  1  0.08474000  0.63454000  0.10818000  1.0 0.1078922469
H  H161  1  0.54072000  0.14756000  0.12695000  1.0 0.1468988465
H  H162  1  0.41852000  0.14131000  0.02669000  1.0 0.1266856182
H  H163  1  0.41075000  0.22498000  0.06393000  1.0 0.1078922469
H  H164  1  0.46544000  0.26737000  0.13336000  1.0 0.1210477992
H  H165  1  0.61069000  0.94292000  0.12691000  1.0 0.062277905
H  H166  1  0.56716000  0.97472000  0.14083000  1.0 0.0826674448
H  H167  1  0.53979000  0.91553000  0.10448000  1.0 0.1026405388
H  H168  1  0.59007000  0.91128000  0.06471000  1.0 0.1026405388
H  H169  1  0.62603000  0.94014000  0.11342000  1.0 0.0720185855
H  H170  1  0.54980000  0.91526000  0.10818000  1.0 0.1078922469
H  H171  1  0.60684000  0.45928000  0.12695000  1.0 0.1468988465
H  H172  1  0.72279000  0.58148000  0.02669000  1.0 0.1266856182
H  H173  1  0.81423000  0.58925000  0.06393000  1.0 0.1078922469
H  H174  1  0.80193000  0.53456000  0.13336000  1.0 0.1210477992
H  H175  1  0.33223000  0.38931000  0.12691000  1.0 0.062277905
H  H176  1  0.40756000  0.43284000  0.14083000  1.0 0.0826674448
H  H177  1  0.37574000  0.46021000  0.10448000  1.0 0.1026405388
H  H178  1  0.32121000  0.40993000  0.06471000  1.0 0.1026405388
H  H179  1  0.31411000  0.37397000  0.11342000  1.0 0.0720185855
H  H180  1  0.36546000  0.45020000  0.10818000  1.0 0.1078922469
H  H181  1  0.54072000  0.39316000  0.87305000  1.0 0.1468988465
H  H182  1  0.41852000  0.27721000  0.97331000  1.0 0.1266856182
H  H183  1  0.41075000  0.18577000  0.93607000  1.0 0.1078922469
H  H184  1  0.46544000  0.19807000  0.86664000  1.0 0.1210477992
H  H185  1  0.61069000  0.66777000  0.87309000  1.0 0.062277905
H  H186  1  0.56716000  0.59244000  0.85917000  1.0 0.0826674448
H  H187  1  0.53979000  0.62426000  0.89552000  1.0 0.1026405388
H  H188  1  0.59007000  0.67879000  0.93529000  1.0 0.1026405388
H  H189  1  0.62603000  0.68589000  0.88658000  1.0 0.0720185855
H  H190  1  0.54980000  0.63454000  0.89182000  1.0 0.1078922469
H  H191  1  0.60684000  0.14756000  0.87305000  1.0 0.1468988465
H  H192  1  0.72279000  0.14131000  0.97331000  1.0 0.1266856182
H  H193  1  0.81423000  0.22498000  0.93607000  1.0 0.1078922469
H  H194  1  0.80193000  0.26737000  0.86664000  1.0 0.1210477992
H  H195  1  0.33223000  0.94292000  0.87309000  1.0 0.062277905
H  H196  1  0.40756000  0.97472000  0.85917000  1.0 0.0826674448
H  H197  1  0.37574000  0.91553000  0.89552000  1.0 0.1026405388
H  H198  1  0.32121000  0.91128000  0.93529000  1.0 0.1026405388
H  H199  1  0.31411000  0.94014000  0.88658000  1.0 0.0720185855
H  H200  1  0.36546000  0.91526000  0.89182000  1.0 0.1078922469
H  H201  1  0.85244000  0.45928000  0.87305000  1.0 0.1468988465
H  H202  1  0.85869000  0.58148000  0.97331000  1.0 0.1266856182
H  H203  1  0.77502000  0.58925000  0.93607000  1.0 0.1078922469
H  H204  1  0.73263000  0.53456000  0.86664000  1.0 0.1210477992
H  H205  1  0.05708000  0.38931000  0.87309000  1.0 0.062277905
H  H206  1  0.02528000  0.43284000  0.85917000  1.0 0.0826674448
H  H207  1  0.08447000  0.46021000  0.89552000  1.0 0.1026405388
H  H208  1  0.08872000  0.40993000  0.93529000  1.0 0.1026405388
H  H209  1  0.05986000  0.37397000  0.88658000  1.0 0.0720185855
H  H210  1  0.08474000  0.45020000  0.89182000  1.0 0.1078922469
H  H211  1  0.45928000  0.60684000  0.37305000  1.0 0.1468988465
H  H212  1  0.58148000  0.72279000  0.47331000  1.0 0.1266856182
H  H213  1  0.58925000  0.81423000  0.43607000  1.0 0.1078922469
H  H214  1  0.53456000  0.80193000  0.36664000  1.0 0.1210477992
H  H215  1  0.38931000  0.33223000  0.37309000  1.0 0.062277905
H  H216  1  0.43284000  0.40756000  0.35917000  1.0 0.0826674448
H  H217  1  0.46021000  0.37574000  0.39552000  1.0 0.1026405388
H  H218  1  0.40993000  0.32121000  0.43529000  1.0 0.1026405388
H  H219  1  0.37397000  0.31411000  0.38658000  1.0 0.0720185855
H  H220  1  0.45020000  0.36546000  0.39182000  1.0 0.1078922469
H  H221  1  0.39316000  0.85244000  0.37305000  1.0 0.1468988465
H  H222  1  0.27721000  0.85869000  0.47331000  1.0 0.1266856182
H  H223  1  0.18577000  0.77502000  0.43607000  1.0 0.1078922469
H  H224  1  0.19807000  0.73263000  0.36664000  1.0 0.1210477992
H  H225  1  0.66777000  0.05708000  0.37309000  1.0 0.062277905
H  H226  1  0.59244000  0.02528000  0.35917000  1.0 0.0826674448
H  H227  1  0.62426000  0.08447000  0.39552000  1.0 0.1026405388
H  H228  1  0.67879000  0.08872000  0.43529000  1.0 0.1026405388
H  H229  1  0.68589000  0.05986000  0.38658000  1.0 0.0720185855
H  H230  1  0.63454000  0.08474000  0.39182000  1.0 0.1078922469
H  H231  1  0.14756000  0.54072000  0.37305000  1.0 0.1468988465
H  H232  1  0.14131000  0.41852000  0.47331000  1.0 0.1266856182
H  H233  1  0.22498000  0.41075000  0.43607000  1.0 0.1078922469
H  H234  1  0.26737000  0.46544000  0.36664000  1.0 0.1210477992
H  H235  1  0.94292000  0.61069000  0.37309000  1.0 0.062277905
H  H236  1  0.97472000  0.56716000  0.35917000  1.0 0.0826674448
H  H237  1  0.91553000  0.53979000  0.39552000  1.0 0.1026405388
H  H238  1  0.91128000  0.59007000  0.43529000  1.0 0.1026405388
H  H239  1  0.94014000  0.62603000  0.38658000  1.0 0.0720185855
H  H240  1  0.91526000  0.54980000  0.39182000  1.0 0.1078922469
C  C1  1  0.91160000  0.40330000  0.45361000  1.0 0.5438195461
C  C2  1  0.83590000  0.35100000  0.38627000  1.0 -0.1198594278
C  C3  1  0.86050000  0.34410000  0.42856000  1.0 -0.0048098393
C  C4  1  0.83960000  0.28250000  0.44570000  1.0 -0.1059683021
C  C5  1  0.79080000  0.22800000  0.42320000  1.0 -0.1059683021
C  C6  1  0.76560000  0.23550000  0.38230000  1.0 -0.1030999813
C  C7  1  0.78750000  0.29700000  0.36318000  1.0 -0.0048098393
C  C8  1  0.75790000  0.30510000  0.31878000  1.0 0.5861597055
C  C9  1  0.04520000  0.62420000  0.38450000  1.0 -0.1655457498
C  C10  1  0.06320000  0.65530000  0.40780000  1.0 -0.2145775879
C  C11  1  0.49170000  0.08840000  0.45361000  1.0 0.5438195461
C  C12  1  0.51510000  0.16410000  0.38627000  1.0 -0.1198594278
C  C13  1  0.48360000  0.13950000  0.42856000  1.0 -0.0048098393
C  C14  1  0.44290000  0.16040000  0.44570000  1.0 -0.1059683021
C  C15  1  0.43720000  0.20920000  0.42320000  1.0 -0.1059683021
C  C16  1  0.46990000  0.23440000  0.38230000  1.0 -0.1030999813
C  C17  1  0.50950000  0.21250000  0.36318000  1.0 -0.0048098393
C  C18  1  0.54720000  0.24210000  0.31878000  1.0 0.5861597055
C  C19  1  0.57900000  0.95480000  0.38450000  1.0 -0.1655457498
C  C20  1  0.59210000  0.93680000  0.40780000  1.0 -0.2145775879
C  C21  1  0.59670000  0.50830000  0.45361000  1.0 0.5438195461
C  C22  1  0.64900000  0.48490000  0.38627000  1.0 -0.1198594278
C  C23  1  0.65590000  0.51640000  0.42856000  1.0 -0.0048098393
C  C24  1  0.71750000  0.55710000  0.44570000  1.0 -0.1059683021
C  C25  1  0.77200000  0.56280000  0.42320000  1.0 -0.1059683021
C  C26  1  0.76450000  0.53010000  0.38230000  1.0 -0.1030999813
C  C27  1  0.70300000  0.49050000  0.36318000  1.0 -0.0048098393
C  C28  1  0.69490000  0.45280000  0.31878000  1.0 0.5861597055
C  C29  1  0.37580000  0.42100000  0.38450000  1.0 -0.1655457498
C  C30  1  0.34470000  0.40790000  0.40780000  1.0 -0.2145775879
C  C31  1  0.08840000  0.59670000  0.95361000  1.0 0.5438195461
C  C32  1  0.16410000  0.64900000  0.88627000  1.0 -0.1198594278
C  C33  1  0.13950000  0.65590000  0.92856000  1.0 -0.0048098393
C  C34  1  0.16040000  0.71750000  0.94570000  1.0 -0.1059683021
C  C35  1  0.20920000  0.77200000  0.92320000  1.0 -0.1059683021
C  C36  1  0.23440000  0.76450000  0.88230000  1.0 -0.1030999813
C  C37  1  0.21250000  0.70300000  0.86318000  1.0 -0.0048098393
C  C38  1  0.24210000  0.69490000  0.81878000  1.0 0.5861597055
C  C39  1  0.95480000  0.37580000  0.88450000  1.0 -0.1655457498
C  C40  1  0.93680000  0.34470000  0.90780000  1.0 -0.2145775879
C  C41  1  0.50830000  0.91160000  0.95361000  1.0 0.5438195461
C  C42  1  0.48490000  0.83590000  0.88627000  1.0 -0.1198594278
C  C43  1  0.51640000  0.86050000  0.92856000  1.0 -0.0048098393
C  C44  1  0.55710000  0.83960000  0.94570000  1.0 -0.1059683021
C  C45  1  0.56280000  0.79080000  0.92320000  1.0 -0.1059683021
C  C46  1  0.53010000  0.76560000  0.88230000  1.0 -0.1030999813
C  C47  1  0.49050000  0.78750000  0.86318000  1.0 -0.0048098393
C  C48  1  0.45280000  0.75790000  0.81878000  1.0 0.5861597055
C  C49  1  0.42100000  0.04520000  0.88450000  1.0 -0.1655457498
C  C50  1  0.40790000  0.06320000  0.90780000  1.0 -0.2145775879
C  C51  1  0.40330000  0.49170000  0.95361000  1.0 0.5438195461
C  C52  1  0.35100000  0.51510000  0.88627000  1.0 -0.1198594278
C  C53  1  0.34410000  0.48360000  0.92856000  1.0 -0.0048098393
C  C54  1  0.28250000  0.44290000  0.94570000  1.0 -0.1059683021
C  C55  1  0.22800000  0.43720000  0.92320000  1.0 -0.1059683021
C  C56  1  0.23550000  0.46990000  0.88230000  1.0 -0.1030999813
C  C57  1  0.29700000  0.50950000  0.86318000  1.0 -0.0048098393
C  C58  1  0.30510000  0.54720000  0.81878000  1.0 0.5861597055
C  C59  1  0.62420000  0.57900000  0.88450000  1.0 -0.1655457498
C  C60  1  0.65530000  0.59210000  0.90780000  1.0 -0.2145775879
C  C61  1  0.50830000  0.59670000  0.04639000  1.0 0.5438195461
C  C62  1  0.48490000  0.64900000  0.11373000  1.0 -0.1198594278
C  C63  1  0.51640000  0.65590000  0.07144000  1.0 -0.0048098393
C  C64  1  0.55710000  0.71750000  0.05430000  1.0 -0.1059683021
C  C65  1  0.56280000  0.77200000  0.07680000  1.0 -0.1059683021
C  C66  1  0.53010000  0.76450000  0.11770000  1.0 -0.1030999813
C  C67  1  0.49050000  0.70300000  0.13682000  1.0 -0.0048098393
C  C68  1  0.45280000  0.69490000  0.18122000  1.0 0.5861597055
C  C69  1  0.42100000  0.37580000  0.11550000  1.0 -0.1655457498
C  C70  1  0.40790000  0.34470000  0.09220000  1.0 -0.2145775879
C  C71  1  0.40330000  0.91160000  0.04639000  1.0 0.5438195461
C  C72  1  0.35100000  0.83590000  0.11373000  1.0 -0.1198594278
C  C73  1  0.34410000  0.86050000  0.07144000  1.0 -0.0048098393
C  C74  1  0.28250000  0.83960000  0.05430000  1.0 -0.1059683021
C  C75  1  0.22800000  0.79080000  0.07680000  1.0 -0.1059683021
C  C76  1  0.23550000  0.76560000  0.11770000  1.0 -0.1030999813
C  C77  1  0.29700000  0.78750000  0.13682000  1.0 -0.0048098393
C  C78  1  0.30510000  0.75790000  0.18122000  1.0 0.5861597055
C  C79  1  0.62420000  0.04520000  0.11550000  1.0 -0.1655457498
C  C80  1  0.65530000  0.06320000  0.09220000  1.0 -0.2145775879
C  C81  1  0.08840000  0.49170000  0.04639000  1.0 0.5438195461
C  C82  1  0.16410000  0.51510000  0.11373000  1.0 -0.1198594278
C  C83  1  0.13950000  0.48360000  0.07144000  1.0 -0.0048098393
C  C84  1  0.16040000  0.44290000  0.05430000  1.0 -0.1059683021
C  C85  1  0.20920000  0.43720000  0.07680000  1.0 -0.1059683021
C  C86  1  0.23440000  0.46990000  0.11770000  1.0 -0.1030999813
C  C87  1  0.21250000  0.50950000  0.13682000  1.0 -0.0048098393
C  C88  1  0.24210000  0.54720000  0.18122000  1.0 0.5861597055
C  C89  1  0.95480000  0.57900000  0.11550000  1.0 -0.1655457498
C  C90  1  0.93680000  0.59210000  0.09220000  1.0 -0.2145775879
C  C91  1  0.49170000  0.40330000  0.54639000  1.0 0.5438195461
C  C92  1  0.51510000  0.35100000  0.61373000  1.0 -0.1198594278
C  C93  1  0.48360000  0.34410000  0.57144000  1.0 -0.0048098393
C  C94  1  0.44290000  0.28250000  0.55430000  1.0 -0.1059683021
C  C95  1  0.43720000  0.22800000  0.57680000  1.0 -0.1059683021
C  C96  1  0.46990000  0.23550000  0.61770000  1.0 -0.1030999813
C  C97  1  0.50950000  0.29700000  0.63682000  1.0 -0.0048098393
C  C98  1  0.54720000  0.30510000  0.68122000  1.0 0.5861597055
C  C99  1  0.57900000  0.62420000  0.61550000  1.0 -0.1655457498
C  C100  1  0.59210000  0.65530000  0.59220000  1.0 -0.2145775879
C  C101  1  0.59670000  0.08840000  0.54639000  1.0 0.5438195461
C  C102  1  0.64900000  0.16410000  0.61373000  1.0 -0.1198594278
C  C103  1  0.65590000  0.13950000  0.57144000  1.0 -0.0048098393
C  C104  1  0.71750000  0.16040000  0.55430000  1.0 -0.1059683021
C  C105  1  0.77200000  0.20920000  0.57680000  1.0 -0.1059683021
C  C106  1  0.76450000  0.23440000  0.61770000  1.0 -0.1030999813
C  C107  1  0.70300000  0.21250000  0.63682000  1.0 -0.0048098393
C  C108  1  0.69490000  0.24210000  0.68122000  1.0 0.5861597055
C  C109  1  0.37580000  0.95480000  0.61550000  1.0 -0.1655457498
C  C110  1  0.34470000  0.93680000  0.59220000  1.0 -0.2145775879
C  C111  1  0.91160000  0.50830000  0.54639000  1.0 0.5438195461
C  C112  1  0.83590000  0.48490000  0.61373000  1.0 -0.1198594278
C  C113  1  0.86050000  0.51640000  0.57144000  1.0 -0.0048098393
C  C114  1  0.83960000  0.55710000  0.55430000  1.0 -0.1059683021
C  C115  1  0.79080000  0.56280000  0.57680000  1.0 -0.1059683021
C  C116  1  0.76560000  0.53010000  0.61770000  1.0 -0.1030999813
C  C117  1  0.78750000  0.49050000  0.63682000  1.0 -0.0048098393
C  C118  1  0.75790000  0.45280000  0.68122000  1.0 0.5861597055
C  C119  1  0.04520000  0.42100000  0.61550000  1.0 -0.1655457498
C  C120  1  0.06320000  0.40790000  0.59220000  1.0 -0.2145775879
C  C121  1  0.08840000  0.59670000  0.54639000  1.0 0.5438195461
C  C122  1  0.16410000  0.64900000  0.61373000  1.0 -0.1198594278
C  C123  1  0.13950000  0.65590000  0.57144000  1.0 -0.0048098393
C  C124  1  0.16040000  0.71750000  0.55430000  1.0 -0.1059683021
C  C125  1  0.20920000  0.77200000  0.57680000  1.0 -0.1059683021
C  C126  1  0.23440000  0.76450000  0.61770000  1.0 -0.1030999813
C  C127  1  0.21250000  0.70300000  0.63682000  1.0 -0.0048098393
C  C128  1  0.24210000  0.69490000  0.68122000  1.0 0.5861597055
C  C129  1  0.95480000  0.37580000  0.61550000  1.0 -0.1655457498
C  C130  1  0.93680000  0.34470000  0.59220000  1.0 -0.2145775879
C  C131  1  0.50830000  0.91160000  0.54639000  1.0 0.5438195461
C  C132  1  0.48490000  0.83590000  0.61373000  1.0 -0.1198594278
C  C133  1  0.51640000  0.86050000  0.57144000  1.0 -0.0048098393
C  C134  1  0.55710000  0.83960000  0.55430000  1.0 -0.1059683021
C  C135  1  0.56280000  0.79080000  0.57680000  1.0 -0.1059683021
C  C136  1  0.53010000  0.76560000  0.61770000  1.0 -0.1030999813
C  C137  1  0.49050000  0.78750000  0.63682000  1.0 -0.0048098393
C  C138  1  0.45280000  0.75790000  0.68122000  1.0 0.5861597055
C  C139  1  0.42100000  0.04520000  0.61550000  1.0 -0.1655457498
C  C140  1  0.40790000  0.06320000  0.59220000  1.0 -0.2145775879
C  C141  1  0.40330000  0.49170000  0.54639000  1.0 0.5438195461
C  C142  1  0.35100000  0.51510000  0.61373000  1.0 -0.1198594278
C  C143  1  0.34410000  0.48360000  0.57144000  1.0 -0.0048098393
C  C144  1  0.28250000  0.44290000  0.55430000  1.0 -0.1059683021
C  C145  1  0.22800000  0.43720000  0.57680000  1.0 -0.1059683021
C  C146  1  0.23550000  0.46990000  0.61770000  1.0 -0.1030999813
C  C147  1  0.29700000  0.50950000  0.63682000  1.0 -0.0048098393
C  C148  1  0.30510000  0.54720000  0.68122000  1.0 0.5861597055
C  C149  1  0.62420000  0.57900000  0.61550000  1.0 -0.1655457498
C  C150  1  0.65530000  0.59210000  0.59220000  1.0 -0.2145775879
C  C151  1  0.91160000  0.40330000  0.04639000  1.0 0.5438195461
C  C152  1  0.83590000  0.35100000  0.11373000  1.0 -0.1198594278
C  C153  1  0.86050000  0.34410000  0.07144000  1.0 -0.0048098393
C  C154  1  0.83960000  0.28250000  0.05430000  1.0 -0.1059683021
C  C155  1  0.79080000  0.22800000  0.07680000  1.0 -0.1059683021
C  C156  1  0.76560000  0.23550000  0.11770000  1.0 -0.1030999813
C  C157  1  0.78750000  0.29700000  0.13682000  1.0 -0.0048098393
C  C158  1  0.75790000  0.30510000  0.18122000  1.0 0.5861597055
C  C159  1  0.04520000  0.62420000  0.11550000  1.0 -0.1655457498
C  C160  1  0.06320000  0.65530000  0.09220000  1.0 -0.2145775879
C  C161  1  0.49170000  0.08840000  0.04639000  1.0 0.5438195461
C  C162  1  0.51510000  0.16410000  0.11373000  1.0 -0.1198594278
C  C163  1  0.48360000  0.13950000  0.07144000  1.0 -0.0048098393
C  C164  1  0.44290000  0.16040000  0.05430000  1.0 -0.1059683021
C  C165  1  0.43720000  0.20920000  0.07680000  1.0 -0.1059683021
C  C166  1  0.46990000  0.23440000  0.11770000  1.0 -0.1030999813
C  C167  1  0.50950000  0.21250000  0.13682000  1.0 -0.0048098393
C  C168  1  0.54720000  0.24210000  0.18122000  1.0 0.5861597055
C  C169  1  0.57900000  0.95480000  0.11550000  1.0 -0.1655457498
C  C170  1  0.59210000  0.93680000  0.09220000  1.0 -0.2145775879
C  C171  1  0.59670000  0.50830000  0.04639000  1.0 0.5438195461
C  C172  1  0.64900000  0.48490000  0.11373000  1.0 -0.1198594278
C  C173  1  0.65590000  0.51640000  0.07144000  1.0 -0.0048098393
C  C174  1  0.71750000  0.55710000  0.05430000  1.0 -0.1059683021
C  C175  1  0.77200000  0.56280000  0.07680000  1.0 -0.1059683021
C  C176  1  0.76450000  0.53010000  0.11770000  1.0 -0.1030999813
C  C177  1  0.70300000  0.49050000  0.13682000  1.0 -0.0048098393
C  C178  1  0.69490000  0.45280000  0.18122000  1.0 0.5861597055
C  C179  1  0.37580000  0.42100000  0.11550000  1.0 -0.1655457498
C  C180  1  0.34470000  0.40790000  0.09220000  1.0 -0.2145775879
C  C181  1  0.49170000  0.40330000  0.95361000  1.0 0.5438195461
C  C182  1  0.51510000  0.35100000  0.88627000  1.0 -0.1198594278
C  C183  1  0.48360000  0.34410000  0.92856000  1.0 -0.0048098393
C  C184  1  0.44290000  0.28250000  0.94570000  1.0 -0.1059683021
C  C185  1  0.43720000  0.22800000  0.92320000  1.0 -0.1059683021
C  C186  1  0.46990000  0.23550000  0.88230000  1.0 -0.1030999813
C  C187  1  0.50950000  0.29700000  0.86318000  1.0 -0.0048098393
C  C188  1  0.54720000  0.30510000  0.81878000  1.0 0.5861597055
C  C189  1  0.57900000  0.62420000  0.88450000  1.0 -0.1655457498
C  C190  1  0.59210000  0.65530000  0.90780000  1.0 -0.2145775879
C  C191  1  0.59670000  0.08840000  0.95361000  1.0 0.5438195461
C  C192  1  0.64900000  0.16410000  0.88627000  1.0 -0.1198594278
C  C193  1  0.65590000  0.13950000  0.92856000  1.0 -0.0048098393
C  C194  1  0.71750000  0.16040000  0.94570000  1.0 -0.1059683021
C  C195  1  0.77200000  0.20920000  0.92320000  1.0 -0.1059683021
C  C196  1  0.76450000  0.23440000  0.88230000  1.0 -0.1030999813
C  C197  1  0.70300000  0.21250000  0.86318000  1.0 -0.0048098393
C  C198  1  0.69490000  0.24210000  0.81878000  1.0 0.5861597055
C  C199  1  0.37580000  0.95480000  0.88450000  1.0 -0.1655457498
C  C200  1  0.34470000  0.93680000  0.90780000  1.0 -0.2145775879
C  C201  1  0.91160000  0.50830000  0.95361000  1.0 0.5438195461
C  C202  1  0.83590000  0.48490000  0.88627000  1.0 -0.1198594278
C  C203  1  0.86050000  0.51640000  0.92856000  1.0 -0.0048098393
C  C204  1  0.83960000  0.55710000  0.94570000  1.0 -0.1059683021
C  C205  1  0.79080000  0.56280000  0.92320000  1.0 -0.1059683021
C  C206  1  0.76560000  0.53010000  0.88230000  1.0 -0.1030999813
C  C207  1  0.78750000  0.49050000  0.86318000  1.0 -0.0048098393
C  C208  1  0.75790000  0.45280000  0.81878000  1.0 0.5861597055
C  C209  1  0.04520000  0.42100000  0.88450000  1.0 -0.1655457498
C  C210  1  0.06320000  0.40790000  0.90780000  1.0 -0.2145775879
C  C211  1  0.50830000  0.59670000  0.45361000  1.0 0.5438195461
C  C212  1  0.48490000  0.64900000  0.38627000  1.0 -0.1198594278
C  C213  1  0.51640000  0.65590000  0.42856000  1.0 -0.0048098393
C  C214  1  0.55710000  0.71750000  0.44570000  1.0 -0.1059683021
C  C215  1  0.56280000  0.77200000  0.42320000  1.0 -0.1059683021
C  C216  1  0.53010000  0.76450000  0.38230000  1.0 -0.1030999813
C  C217  1  0.49050000  0.70300000  0.36318000  1.0 -0.0048098393
C  C218  1  0.45280000  0.69490000  0.31878000  1.0 0.5861597055
C  C219  1  0.42100000  0.37580000  0.38450000  1.0 -0.1655457498
C  C220  1  0.40790000  0.34470000  0.40780000  1.0 -0.2145775879
C  C221  1  0.40330000  0.91160000  0.45361000  1.0 0.5438195461
C  C222  1  0.35100000  0.83590000  0.38627000  1.0 -0.1198594278
C  C223  1  0.34410000  0.86050000  0.42856000  1.0 -0.0048098393
C  C224  1  0.28250000  0.83960000  0.44570000  1.0 -0.1059683021
C  C225  1  0.22800000  0.79080000  0.42320000  1.0 -0.1059683021
C  C226  1  0.23550000  0.76560000  0.38230000  1.0 -0.1030999813
C  C227  1  0.29700000  0.78750000  0.36318000  1.0 -0.0048098393
C  C228  1  0.30510000  0.75790000  0.31878000  1.0 0.5861597055
C  C229  1  0.62420000  0.04520000  0.38450000  1.0 -0.1655457498
C  C230  1  0.65530000  0.06320000  0.40780000  1.0 -0.2145775879
C  C231  1  0.08840000  0.49170000  0.45361000  1.0 0.5438195461
C  C232  1  0.16410000  0.51510000  0.38627000  1.0 -0.1198594278
C  C233  1  0.13950000  0.48360000  0.42856000  1.0 -0.0048098393
C  C234  1  0.16040000  0.44290000  0.44570000  1.0 -0.1059683021
C  C235  1  0.20920000  0.43720000  0.42320000  1.0 -0.1059683021
C  C236  1  0.23440000  0.46990000  0.38230000  1.0 -0.1030999813
C  C237  1  0.21250000  0.50950000  0.36318000  1.0 -0.0048098393
C  C238  1  0.24210000  0.54720000  0.31878000  1.0 0.5861597055
C  C239  1  0.95480000  0.57900000  0.38450000  1.0 -0.1655457498
C  C240  1  0.93680000  0.59210000  0.40780000  1.0 -0.2145775879
N  N1  1  0.00000000  0.60690000  0.42190000  1.0 -0.0237346167
N  N2  1  0.60690000  0.00000000  0.42190000  1.0 -0.0237346167
N  N3  1  0.39310000  0.39310000  0.42190000  1.0 -0.0237346167
N  N4  1  0.00000000  0.39310000  0.92190000  1.0 -0.0254348318
N  N5  1  0.39310000  0.00000000  0.92190000  1.0 -0.0237346167
N  N6  1  0.60690000  0.60690000  0.92190000  1.0 -0.0254348318
N  N7  1  0.39310000  0.39310000  0.07810000  1.0 -0.0237346167
N  N8  1  0.60690000  0.00000000  0.07810000  1.0 -0.0237346167
N  N9  1  0.00000000  0.60690000  0.07810000  1.0 -0.0237346167
N  N10  1  0.60690000  0.60690000  0.57810000  1.0 -0.0237346167
N  N11  1  0.39310000  0.00000000  0.57810000  1.0 -0.0237346167
N  N12  1  0.00000000  0.39310000  0.57810000  1.0 -0.0237346167
O  O1  1  0.93158000  0.45793000  0.43550000  1.0 -0.5087774402
O  O2  1  0.93106000  0.39326000  0.49200000  1.0 -0.5200914225
O  O3  1  0.78328000  0.36178000  0.30306000  1.0 -0.5299403077
O  O4  1  0.71169000  0.25521000  0.30212000  1.0 -0.5200914225
O  O5  1  0.52635000  0.06842000  0.43550000  1.0 -0.5087774402
O  O6  1  0.46220000  0.06894000  0.49200000  1.0 -0.5200914225
O  O7  1  0.57850000  0.21672000  0.30306000  1.0 -0.5299403077
O  O8  1  0.54352000  0.28831000  0.30212000  1.0 -0.5200914225
O  O9  1  0.54207000  0.47365000  0.43550000  1.0 -0.5087774402
O  O10  1  0.60674000  0.53780000  0.49200000  1.0 -0.5200914225
O  O11  1  0.63822000  0.42150000  0.30306000  1.0 -0.5299403077
O  O12  1  0.74479000  0.45648000  0.30212000  1.0 -0.5200914225
O  O13  1  0.06842000  0.54207000  0.93550000  1.0 -0.5087774402
O  O14  1  0.06894000  0.60674000  0.99200000  1.0 -0.5200914225
O  O15  1  0.21672000  0.63822000  0.80306000  1.0 -0.5299403077
O  O16  1  0.28831000  0.74479000  0.80212000  1.0 -0.5200914225
O  O17  1  0.47365000  0.93158000  0.93550000  1.0 -0.5087774402
O  O18  1  0.53780000  0.93106000  0.99200000  1.0 -0.5200914225
O  O19  1  0.42150000  0.78328000  0.80306000  1.0 -0.5299403077
O  O20  1  0.45648000  0.71169000  0.80212000  1.0 -0.5200914225
O  O21  1  0.45793000  0.52635000  0.93550000  1.0 -0.5087774402
O  O22  1  0.39326000  0.46220000  0.99200000  1.0 -0.5200914225
O  O23  1  0.36178000  0.57850000  0.80306000  1.0 -0.5299403077
O  O24  1  0.25521000  0.54352000  0.80212000  1.0 -0.5200914225
O  O25  1  0.47365000  0.54207000  0.06450000  1.0 -0.5087774402
O  O26  1  0.53780000  0.60674000  0.00800000  1.0 -0.5200914225
O  O27  1  0.42150000  0.63822000  0.19694000  1.0 -0.5299403077
O  O28  1  0.45648000  0.74479000  0.19788000  1.0 -0.5200914225
O  O29  1  0.45793000  0.93158000  0.06450000  1.0 -0.5087774402
O  O30  1  0.39326000  0.93106000  0.00800000  1.0 -0.5200914225
O  O31  1  0.36178000  0.78328000  0.19694000  1.0 -0.5299403077
O  O32  1  0.25521000  0.71169000  0.19788000  1.0 -0.5200914225
O  O33  1  0.06842000  0.52635000  0.06450000  1.0 -0.5087774402
O  O34  1  0.06894000  0.46220000  0.00800000  1.0 -0.5200914225
O  O35  1  0.21672000  0.57850000  0.19694000  1.0 -0.5299403077
O  O36  1  0.28831000  0.54352000  0.19788000  1.0 -0.5200914225
O  O37  1  0.52635000  0.45793000  0.56450000  1.0 -0.5087774402
O  O38  1  0.46220000  0.39326000  0.50800000  1.0 -0.5200914225
O  O39  1  0.57850000  0.36178000  0.69694000  1.0 -0.5299403077
O  O40  1  0.54352000  0.25521000  0.69788000  1.0 -0.5200914225
O  O41  1  0.54207000  0.06842000  0.56450000  1.0 -0.5087774402
O  O42  1  0.60674000  0.06894000  0.50800000  1.0 -0.5200914225
O  O43  1  0.63822000  0.21672000  0.69694000  1.0 -0.5299403077
O  O44  1  0.74479000  0.28831000  0.69788000  1.0 -0.5200914225
O  O45  1  0.93158000  0.47365000  0.56450000  1.0 -0.5087774402
O  O46  1  0.93106000  0.53780000  0.50800000  1.0 -0.5200914225
O  O47  1  0.78328000  0.42150000  0.69694000  1.0 -0.5299403077
O  O48  1  0.71169000  0.45648000  0.69788000  1.0 -0.5200914225
O  O49  1  0.06842000  0.54207000  0.56450000  1.0 -0.5087774402
O  O50  1  0.06894000  0.60674000  0.50800000  1.0 -0.5200914225
O  O51  1  0.21672000  0.63822000  0.69694000  1.0 -0.5299403077
O  O52  1  0.28831000  0.74479000  0.69788000  1.0 -0.5200914225
O  O53  1  0.47365000  0.93158000  0.56450000  1.0 -0.5087774402
O  O54  1  0.53780000  0.93106000  0.50800000  1.0 -0.5200914225
O  O55  1  0.42150000  0.78328000  0.69694000  1.0 -0.5299403077
O  O56  1  0.45648000  0.71169000  0.69788000  1.0 -0.5200914225
O  O57  1  0.45793000  0.52635000  0.56450000  1.0 -0.5087774402
O  O58  1  0.39326000  0.46220000  0.50800000  1.0 -0.5200914225
O  O59  1  0.36178000  0.57850000  0.69694000  1.0 -0.5299403077
O  O60  1  0.25521000  0.54352000  0.69788000  1.0 -0.5200914225
O  O61  1  0.93158000  0.45793000  0.06450000  1.0 -0.5087774402
O  O62  1  0.93106000  0.39326000  0.00800000  1.0 -0.5200914225
O  O63  1  0.78328000  0.36178000  0.19694000  1.0 -0.5299403077
O  O64  1  0.71169000  0.25521000  0.19788000  1.0 -0.5200914225
O  O65  1  0.52635000  0.06842000  0.06450000  1.0 -0.5087774402
O  O66  1  0.46220000  0.06894000  0.00800000  1.0 -0.5200914225
O  O67  1  0.57850000  0.21672000  0.19694000  1.0 -0.5299403077
O  O68  1  0.54352000  0.28831000  0.19788000  1.0 -0.5200914225
O  O69  1  0.54207000  0.47365000  0.06450000  1.0 -0.5087774402
O  O70  1  0.60674000  0.53780000  0.00800000  1.0 -0.5200914225
O  O71  1  0.63822000  0.42150000  0.19694000  1.0 -0.5299403077
O  O72  1  0.74479000  0.45648000  0.19788000  1.0 -0.5200914225
O  O73  1  0.52635000  0.45793000  0.93550000  1.0 -0.5087774402
O  O74  1  0.46220000  0.39326000  0.99200000  1.0 -0.5200914225
O  O75  1  0.57850000  0.36178000  0.80306000  1.0 -0.5299403077
O  O76  1  0.54352000  0.25521000  0.80212000  1.0 -0.5200914225
O  O77  1  0.54207000  0.06842000  0.93550000  1.0 -0.5087774402
O  O78  1  0.60674000  0.06894000  0.99200000  1.0 -0.5200914225
O  O79  1  0.63822000  0.21672000  0.80306000  1.0 -0.5299403077
O  O80  1  0.74479000  0.28831000  0.80212000  1.0 -0.5200914225
O  O81  1  0.93158000  0.47365000  0.93550000  1.0 -0.5087774402
O  O82  1  0.93106000  0.53780000  0.99200000  1.0 -0.5200914225
O  O83  1  0.78328000  0.42150000  0.80306000  1.0 -0.5299403077
O  O84  1  0.71169000  0.45648000  0.80212000  1.0 -0.5200914225
O  O85  1  0.47365000  0.54207000  0.43550000  1.0 -0.5087774402
O  O86  1  0.53780000  0.60674000  0.49200000  1.0 -0.5200914225
O  O87  1  0.42150000  0.63822000  0.30306000  1.0 -0.5299403077
O  O88  1  0.45648000  0.74479000  0.30212000  1.0 -0.5200914225
O  O89  1  0.45793000  0.93158000  0.43550000  1.0 -0.5087774402
O  O90  1  0.39326000  0.93106000  0.49200000  1.0 -0.5200914225
O  O91  1  0.36178000  0.78328000  0.30306000  1.0 -0.5299403077
O  O92  1  0.25521000  0.71169000  0.30212000  1.0 -0.5200914225
O  O93  1  0.06842000  0.52635000  0.43550000  1.0 -0.5087774402
O  O94  1  0.06894000  0.46220000  0.49200000  1.0 -0.5200914225
O  O95  1  0.21672000  0.57850000  0.30306000  1.0 -0.5299403077
O  O96  1  0.28831000  0.54352000  0.30212000  1.0 -0.5200914225
O  O97  1  0.66666667  0.33333333  0.25000000  1.0 -0.9028663641
O  O98  1  0.33333333  0.66666667  0.75000000  1.0 -0.9028663641
O  O99  1  0.33333333  0.66666667  0.25000000  1.0 -0.9028663641
O  O100  1  0.66666667  0.33333333  0.75000000  1.0 -0.9028663641
