# DDEC6 charges by PACMAN v1.1 (https://github.com/mtap-research/PACMAN-charge/)
data_QEZZEC_FSR_pacman
_symmetry_space_group_name_H-M   'P 1'
_cell_length_a   14.26980000
_cell_length_b   14.26980000
_cell_length_c   10.06600000
_cell_angle_alpha   90.00000000
_cell_angle_beta   90.00000000
_cell_angle_gamma   120.00000000
_symmetry_Int_Tables_number   1
_chemical_formula_structural   Tb3S7O29
_chemical_formula_sum   'Tb6 S14 O58'
_cell_volume   1775.10206928
_cell_formula_units_Z   2
loop_
 _symmetry_equiv_pos_site_id
 _symmetry_equiv_pos_as_xyz
  1  'x, y, z'
loop_
 _atom_site_type_symbol
 _atom_site_label
 _atom_site_symmetry_multiplicity
 _atom_site_fract_x
 _atom_site_fract_y
 _atom_site_fract_z
 _atom_site_occupancy
 _atom_site_charge
Tb  Tb1  1  0.44103000  0.85659000  0.21953000  1.0 2.0196928833
Tb  Tb2  1  0.14341000  0.58444000  0.21953000  1.0 2.0196928833
Tb  Tb3  1  0.41556000  0.55897000  0.21953000  1.0 2.0196928833
Tb  Tb4  1  0.85659000  0.44103000  0.71953000  1.0 2.0196928833
Tb  Tb5  1  0.58444000  0.14341000  0.71953000  1.0 2.0196928833
Tb  Tb6  1  0.55897000  0.41556000  0.71953000  1.0 2.0196928833
S  S1  1  0.66197000  0.80623000  0.25639000  1.0 1.2911263956
S  S2  1  0.19377000  0.85574000  0.25639000  1.0 1.3085741653
S  S3  1  0.14426000  0.33803000  0.25639000  1.0 1.3085741653
S  S4  1  0.80623000  0.66197000  0.75639000  1.0 1.3085741653
S  S5  1  0.85574000  0.19377000  0.75639000  1.0 1.304684545
S  S6  1  0.33803000  0.14426000  0.75639000  1.0 1.3085741653
S  S7  1  0.51994000  0.99534000  0.46868000  1.0 1.440379168
S  S8  1  0.00466000  0.52460000  0.46868000  1.0 1.440379168
S  S9  1  0.47540000  0.48006000  0.46868000  1.0 1.440379168
S  S10  1  0.99534000  0.51994000  0.96868000  1.0 1.440379168
S  S11  1  0.52460000  0.00466000  0.96868000  1.0 1.440379168
S  S12  1  0.48006000  0.47540000  0.96868000  1.0 1.440379168
S  S13  1  0.33333333  0.66666667  0.00955000  1.0 1.4164861097
S  S14  1  0.66666667  0.33333333  0.50955000  1.0 1.4164861097
O  O1  1  0.70390000  0.82920000  0.12100000  1.0 -0.3289148257
O  O2  1  0.17080000  0.87470000  0.12100000  1.0 -0.3364189849
O  O3  1  0.12530000  0.29610000  0.12100000  1.0 -0.3364189849
O  O4  1  0.82920000  0.70390000  0.62100000  1.0 -0.3364189849
O  O5  1  0.87470000  0.17080000  0.62100000  1.0 -0.3364189849
O  O6  1  0.29610000  0.12530000  0.62100000  1.0 -0.3364189849
O  O7  1  0.59330000  0.68840000  0.27610000  1.0 -0.6335456715
O  O8  1  0.31160000  0.90490000  0.27610000  1.0 -0.6381901548
O  O9  1  0.09510000  0.40670000  0.27610000  1.0 -0.6381901548
O  O10  1  0.68840000  0.59330000  0.77610000  1.0 -0.6335456715
O  O11  1  0.90490000  0.31160000  0.77610000  1.0 -0.6335456715
O  O12  1  0.40670000  0.09510000  0.77610000  1.0 -0.6335456715
O  O13  1  0.59650000  0.85720000  0.28580000  1.0 -0.6864170537
O  O14  1  0.14280000  0.73930000  0.28580000  1.0 -0.6864170537
O  O15  1  0.26070000  0.40350000  0.28580000  1.0 -0.6864170537
O  O16  1  0.85720000  0.59650000  0.78580000  1.0 -0.6849164711
O  O17  1  0.73930000  0.14280000  0.78580000  1.0 -0.6864170537
O  O18  1  0.40350000  0.26070000  0.78580000  1.0 -0.6864170537
O  O19  1  0.75260000  0.84660000  0.35080000  1.0 -0.3931512034
O  O20  1  0.15340000  0.90600000  0.35080000  1.0 -0.3931512034
O  O21  1  0.09400000  0.24740000  0.35080000  1.0 -0.3931512034
O  O22  1  0.84660000  0.75260000  0.85080000  1.0 -0.3931512034
O  O23  1  0.90600000  0.15340000  0.85080000  1.0 -0.3931512034
O  O24  1  0.24740000  0.09400000  0.85080000  1.0 -0.3931512034
O  O25  1  0.54680000  0.03030000  0.32980000  1.0 -0.5836922473
O  O26  1  0.96970000  0.51650000  0.32980000  1.0 -0.5836922473
O  O27  1  0.48350000  0.45320000  0.32980000  1.0 -0.5836922473
O  O28  1  0.03030000  0.54680000  0.82980000  1.0 -0.5836922473
O  O29  1  0.51650000  0.96970000  0.82980000  1.0 -0.5836922473
O  O30  1  0.45320000  0.48350000  0.82980000  1.0 -0.5836922473
O  O31  1  0.61870000  0.02960000  0.55070000  1.0 -0.5371492015
O  O32  1  0.97040000  0.58910000  0.55070000  1.0 -0.5371492015
O  O33  1  0.41090000  0.38130000  0.55070000  1.0 -0.5371492015
O  O34  1  0.02960000  0.61870000  0.05070000  1.0 -0.5339157329
O  O35  1  0.58910000  0.97040000  0.05070000  1.0 -0.5371492015
O  O36  1  0.38130000  0.41090000  0.05070000  1.0 -0.5371492015
O  O37  1  0.45180000  0.87650000  0.46570000  1.0 -0.5037540541
O  O38  1  0.12350000  0.57530000  0.46570000  1.0 -0.5037540541
O  O39  1  0.42470000  0.54820000  0.46570000  1.0 -0.5037540541
O  O40  1  0.87650000  0.45180000  0.96570000  1.0 -0.5037540541
O  O41  1  0.57530000  0.12350000  0.96570000  1.0 -0.5052346931
O  O42  1  0.54820000  0.42470000  0.96570000  1.0 -0.5052346931
O  O43  1  0.46500000  0.04780000  0.53320000  1.0 -0.5641935116
O  O44  1  0.95220000  0.41720000  0.53320000  1.0 -0.5641935116
O  O45  1  0.58280000  0.53500000  0.53320000  1.0 -0.5641935116
O  O46  1  0.04780000  0.46500000  0.03320000  1.0 -0.5641935116
O  O47  1  0.41720000  0.95220000  0.03320000  1.0 -0.5641935116
O  O48  1  0.53500000  0.58280000  0.03320000  1.0 -0.5641935116
O  O49  1  0.44500000  0.72400000  0.06830000  1.0 -0.6689677086
O  O50  1  0.27600000  0.72100000  0.06830000  1.0 -0.6689677086
O  O51  1  0.27900000  0.55500000  0.06830000  1.0 -0.6689677086
O  O52  1  0.72400000  0.44500000  0.56830000  1.0 -0.6689677086
O  O53  1  0.72100000  0.27600000  0.56830000  1.0 -0.6689677086
O  O54  1  0.55500000  0.27900000  0.56830000  1.0 -0.6689677086
O  O55  1  0.33333333  0.66666667  0.86930000  1.0 -0.2558572338
O  O56  1  0.66666667  0.33333333  0.36930000  1.0 -0.2558572338
O  O57  1  0.33333333  0.66666667  0.30470000  1.0 -0.7340239034
O  O58  1  0.66666667  0.33333333  0.80470000  1.0 -0.7340239034
