# DDEC6 charges by PACMAN v1.1 (https://github.com/mtap-research/PACMAN-charge/)
data_QICFUH_ASR_pacman
_symmetry_space_group_name_H-M   'P 1'
_cell_length_a   22.05960000
_cell_length_b   22.05960000
_cell_length_c   22.05960000
_cell_angle_alpha   93.41410000
_cell_angle_beta   93.41410000
_cell_angle_gamma   93.41410000
_symmetry_Int_Tables_number   1
_chemical_formula_structural   Fe6H18C51N3O29
_chemical_formula_sum   'Fe24 H72 C204 N12 O116'
_cell_volume   10675.23617066
_cell_formula_units_Z   4
loop_
 _symmetry_equiv_pos_site_id
 _symmetry_equiv_pos_as_xyz
  1  'x, y, z'
loop_
 _atom_site_type_symbol
 _atom_site_label
 _atom_site_symmetry_multiplicity
 _atom_site_fract_x
 _atom_site_fract_y
 _atom_site_fract_z
 _atom_site_occupancy
 _atom_site_charge
Fe  Fe1  1  0.31120000  0.80889000  0.76329000  1.0 1.2611198583
Fe  Fe2  1  0.80889000  0.76329000  0.31120000  1.0 1.2693070845
Fe  Fe3  1  0.76329000  0.31120000  0.80889000  1.0 1.2611198583
Fe  Fe4  1  0.18880000  0.73671000  0.69111000  1.0 1.2611198583
Fe  Fe5  1  0.69111000  0.18880000  0.73671000  1.0 1.2611198583
Fe  Fe6  1  0.73671000  0.69111000  0.18880000  1.0 1.2611198583
Fe  Fe7  1  0.68880000  0.19111000  0.23671000  1.0 1.2611198583
Fe  Fe8  1  0.19111000  0.23671000  0.68880000  1.0 1.2611198583
Fe  Fe9  1  0.23671000  0.68880000  0.19111000  1.0 1.2611198583
Fe  Fe10  1  0.81120000  0.26329000  0.30889000  1.0 1.2693070845
Fe  Fe11  1  0.30889000  0.81120000  0.26329000  1.0 1.2490722591
Fe  Fe12  1  0.26329000  0.30889000  0.81120000  1.0 1.2611198583
Fe  Fe13  1  0.25000000  0.68357000  0.81643000  1.0 1.2490722591
Fe  Fe14  1  0.68357000  0.81643000  0.25000000  1.0 1.2490722591
Fe  Fe15  1  0.81643000  0.25000000  0.68357000  1.0 1.2490722591
Fe  Fe16  1  0.75000000  0.31643000  0.18357000  1.0 1.2490722591
Fe  Fe17  1  0.31643000  0.18357000  0.75000000  1.0 1.2490722591
Fe  Fe18  1  0.18357000  0.75000000  0.31643000  1.0 1.2490722591
Fe  Fe19  1  0.69030000  0.80970000  0.75000000  1.0 1.2693070845
Fe  Fe20  1  0.80970000  0.75000000  0.69030000  1.0 1.2693070845
Fe  Fe21  1  0.75000000  0.69030000  0.80970000  1.0 1.2693070845
Fe  Fe22  1  0.30970000  0.19030000  0.25000000  1.0 1.2693070845
Fe  Fe23  1  0.19030000  0.25000000  0.30970000  1.0 1.2693070845
Fe  Fe24  1  0.25000000  0.30970000  0.19030000  1.0 1.2693070845
H  H1  1  0.40894000  0.81122000  0.61163000  1.0 0.1415799862
H  H2  1  0.81122000  0.61163000  0.40894000  1.0 0.1415799862
H  H3  1  0.61163000  0.40894000  0.81122000  1.0 0.1415799862
H  H4  1  0.09106000  0.88837000  0.68878000  1.0 0.1415799862
H  H5  1  0.68878000  0.09106000  0.88837000  1.0 0.1415799862
H  H6  1  0.88837000  0.68878000  0.09106000  1.0 0.1415799862
H  H7  1  0.59106000  0.18878000  0.38837000  1.0 0.1415799862
H  H8  1  0.18878000  0.38837000  0.59106000  1.0 0.1415799862
H  H9  1  0.38837000  0.59106000  0.18878000  1.0 0.1415799862
H  H10  1  0.90894000  0.11163000  0.31122000  1.0 0.1415799862
H  H11  1  0.31122000  0.90894000  0.11163000  1.0 0.1415799862
H  H12  1  0.11163000  0.31122000  0.90894000  1.0 0.1415799862
H  H13  1  0.40798000  0.81604000  0.42820000  1.0 0.1325895266
H  H14  1  0.81604000  0.42820000  0.40798000  1.0 0.1325895266
H  H15  1  0.42820000  0.40798000  0.81604000  1.0 0.1325895266
H  H16  1  0.09202000  0.07180000  0.68396000  1.0 0.1325895266
H  H17  1  0.68396000  0.09202000  0.07180000  1.0 0.1325895266
H  H18  1  0.07180000  0.68396000  0.09202000  1.0 0.1325895266
H  H19  1  0.59202000  0.18396000  0.57180000  1.0 0.1325895266
H  H20  1  0.18396000  0.57180000  0.59202000  1.0 0.1325895266
H  H21  1  0.57180000  0.59202000  0.18396000  1.0 0.1325895266
H  H22  1  0.90798000  0.92820000  0.31604000  1.0 0.1325895266
H  H23  1  0.31604000  0.90798000  0.92820000  1.0 0.1325895266
H  H24  1  0.92820000  0.31604000  0.90798000  1.0 0.1325895266
H  H25  1  0.25262000  0.76887000  0.50785000  1.0 0.1415799862
H  H26  1  0.76887000  0.50785000  0.25262000  1.0 0.1415799862
H  H27  1  0.50785000  0.25262000  0.76887000  1.0 0.1415799862
H  H28  1  0.24738000  0.99215000  0.73113000  1.0 0.1415799862
H  H29  1  0.73113000  0.24738000  0.99215000  1.0 0.1415799862
H  H30  1  0.99215000  0.73113000  0.24738000  1.0 0.1415799862
H  H31  1  0.74738000  0.23113000  0.49215000  1.0 0.1415799862
H  H32  1  0.23113000  0.49215000  0.74738000  1.0 0.1415799862
H  H33  1  0.49215000  0.74738000  0.23113000  1.0 0.1415799862
H  H34  1  0.75262000  0.00785000  0.26887000  1.0 0.1415799862
H  H35  1  0.26887000  0.75262000  0.00785000  1.0 0.1415799862
H  H36  1  0.00785000  0.26887000  0.75262000  1.0 0.1415799862
H  H37  1  0.59139000  0.80927000  0.58485000  1.0 0.1415799862
H  H38  1  0.80927000  0.58485000  0.59139000  1.0 0.1415799862
H  H39  1  0.58485000  0.59139000  0.80927000  1.0 0.1415799862
H  H40  1  0.90861000  0.91515000  0.69073000  1.0 0.1415799862
H  H41  1  0.69073000  0.90861000  0.91515000  1.0 0.1415799862
H  H42  1  0.91515000  0.69073000  0.90861000  1.0 0.1415799862
H  H43  1  0.40861000  0.19073000  0.41515000  1.0 0.1415799862
H  H44  1  0.19073000  0.41515000  0.40861000  1.0 0.1415799862
H  H45  1  0.41515000  0.40861000  0.19073000  1.0 0.1415799862
H  H46  1  0.09139000  0.08485000  0.30927000  1.0 0.1415799862
H  H47  1  0.30927000  0.09139000  0.08485000  1.0 0.1415799862
H  H48  1  0.08485000  0.30927000  0.09139000  1.0 0.1415799862
H  H49  1  0.74552000  0.77762000  0.50011000  1.0 0.1415799862
H  H50  1  0.77762000  0.50011000  0.74552000  1.0 0.1415799862
H  H51  1  0.50011000  0.74552000  0.77762000  1.0 0.1415799862
H  H52  1  0.75448000  0.99989000  0.72238000  1.0 0.1415799862
H  H53  1  0.72238000  0.75448000  0.99989000  1.0 0.1415799862
H  H54  1  0.99989000  0.72238000  0.75448000  1.0 0.1415799862
H  H55  1  0.25448000  0.22238000  0.49989000  1.0 0.1415799862
H  H56  1  0.22238000  0.49989000  0.25448000  1.0 0.1415799862
H  H57  1  0.49989000  0.25448000  0.22238000  1.0 0.1415799862
H  H58  1  0.24552000  0.00011000  0.27762000  1.0 0.1415799862
H  H59  1  0.27762000  0.24552000  0.00011000  1.0 0.1415799862
H  H60  1  0.00011000  0.27762000  0.24552000  1.0 0.1415799862
H  H61  1  0.59374000  0.81838000  0.40203000  1.0 0.1415799862
H  H62  1  0.81838000  0.40203000  0.59374000  1.0 0.1415799862
H  H63  1  0.40203000  0.59374000  0.81838000  1.0 0.1415799862
H  H64  1  0.90626000  0.09797000  0.68162000  1.0 0.1415799862
H  H65  1  0.68162000  0.90626000  0.09797000  1.0 0.1415799862
H  H66  1  0.09797000  0.68162000  0.90626000  1.0 0.1415799862
H  H67  1  0.40626000  0.18162000  0.59797000  1.0 0.1415799862
H  H68  1  0.18162000  0.59797000  0.40626000  1.0 0.1415799862
H  H69  1  0.59797000  0.40626000  0.18162000  1.0 0.1415799862
H  H70  1  0.09374000  0.90203000  0.31838000  1.0 0.1415799862
H  H71  1  0.31838000  0.09374000  0.90203000  1.0 0.1415799862
H  H72  1  0.90203000  0.31838000  0.09374000  1.0 0.1415799862
C  C1  1  0.29650000  0.78040000  0.62690000  1.0 0.6088440668
C  C2  1  0.78040000  0.62690000  0.29650000  1.0 0.6088440668
C  C3  1  0.62690000  0.29650000  0.78040000  1.0 0.6088440668
C  C4  1  0.20350000  0.87310000  0.71960000  1.0 0.6088440668
C  C5  1  0.71960000  0.20350000  0.87310000  1.0 0.6088440668
C  C6  1  0.87310000  0.71960000  0.20350000  1.0 0.6088440668
C  C7  1  0.70350000  0.21960000  0.37310000  1.0 0.6088440668
C  C8  1  0.21960000  0.37310000  0.70350000  1.0 0.6088440668
C  C9  1  0.37310000  0.70350000  0.21960000  1.0 0.6088440668
C  C10  1  0.79650000  0.12690000  0.28040000  1.0 0.6088440668
C  C11  1  0.28040000  0.79650000  0.12690000  1.0 0.6088440668
C  C12  1  0.12690000  0.28040000  0.79650000  1.0 0.6088440668
C  C13  1  0.32594000  0.78842000  0.56799000  1.0 -0.0156407213
C  C14  1  0.78842000  0.56799000  0.32594000  1.0 -0.0156407213
C  C15  1  0.56799000  0.32594000  0.78842000  1.0 -0.0156407213
C  C16  1  0.17406000  0.93201000  0.71158000  1.0 -0.0156407213
C  C17  1  0.71158000  0.17406000  0.93201000  1.0 -0.0156407213
C  C18  1  0.93201000  0.71158000  0.17406000  1.0 -0.0156407213
C  C19  1  0.67406000  0.21158000  0.43201000  1.0 -0.0156407213
C  C20  1  0.21158000  0.43201000  0.67406000  1.0 -0.0156407213
C  C21  1  0.43201000  0.67406000  0.21158000  1.0 -0.0156407213
C  C22  1  0.82594000  0.06799000  0.28842000  1.0 -0.0156407213
C  C23  1  0.28842000  0.82594000  0.06799000  1.0 -0.0156407213
C  C24  1  0.06799000  0.28842000  0.82594000  1.0 -0.0156407213
C  C25  1  0.38768000  0.80612000  0.57276000  1.0 -0.0887147912
C  C26  1  0.80612000  0.57276000  0.38768000  1.0 -0.0887147912
C  C27  1  0.57276000  0.38768000  0.80612000  1.0 -0.0887147912
C  C28  1  0.11232000  0.92724000  0.69388000  1.0 -0.0887147912
C  C29  1  0.69388000  0.11232000  0.92724000  1.0 -0.0887147912
C  C30  1  0.92724000  0.69388000  0.11232000  1.0 -0.0887147912
C  C31  1  0.61232000  0.19388000  0.42724000  1.0 -0.0887147912
C  C32  1  0.19388000  0.42724000  0.61232000  1.0 -0.0887147912
C  C33  1  0.42724000  0.61232000  0.19388000  1.0 -0.0887147912
C  C34  1  0.88768000  0.07276000  0.30612000  1.0 -0.0887147912
C  C35  1  0.30612000  0.88768000  0.07276000  1.0 -0.0887147912
C  C36  1  0.07276000  0.30612000  0.88768000  1.0 -0.0887147912
C  C37  1  0.41819000  0.81648000  0.52067000  1.0 0.002420673
C  C38  1  0.81648000  0.52067000  0.41819000  1.0 0.002420673
C  C39  1  0.52067000  0.41819000  0.81648000  1.0 0.002420673
C  C40  1  0.08181000  0.97933000  0.68352000  1.0 0.002420673
C  C41  1  0.68352000  0.08181000  0.97933000  1.0 0.002420673
C  C42  1  0.97933000  0.68352000  0.08181000  1.0 0.002420673
C  C43  1  0.58181000  0.18352000  0.47933000  1.0 0.002420673
C  C44  1  0.18352000  0.47933000  0.58181000  1.0 0.002420673
C  C45  1  0.47933000  0.58181000  0.18352000  1.0 0.002420673
C  C46  1  0.91819000  0.02067000  0.31648000  1.0 0.002420673
C  C47  1  0.31648000  0.91819000  0.02067000  1.0 0.002420673
C  C48  1  0.02067000  0.31648000  0.91819000  1.0 0.002420673
C  C49  1  0.38712000  0.80896000  0.46380000  1.0 -0.0841695431
C  C50  1  0.80896000  0.46380000  0.38712000  1.0 -0.0887147912
C  C51  1  0.46380000  0.38712000  0.80896000  1.0 -0.0841695431
C  C52  1  0.11288000  0.03620000  0.69104000  1.0 -0.0841695431
C  C53  1  0.69104000  0.11288000  0.03620000  1.0 -0.0887147912
C  C54  1  0.03620000  0.69104000  0.11288000  1.0 -0.0887147912
C  C55  1  0.61288000  0.19104000  0.53620000  1.0 -0.0887147912
C  C56  1  0.19104000  0.53620000  0.61288000  1.0 -0.0841695431
C  C57  1  0.53620000  0.61288000  0.19104000  1.0 -0.0841695431
C  C58  1  0.88712000  0.96380000  0.30896000  1.0 -0.0887147912
C  C59  1  0.30896000  0.88712000  0.96380000  1.0 -0.0841695431
C  C60  1  0.96380000  0.30896000  0.88712000  1.0 -0.0841695431
C  C61  1  0.32537000  0.79128000  0.45902000  1.0 -0.0265135018
C  C62  1  0.79128000  0.45902000  0.32537000  1.0 -0.0265135018
C  C63  1  0.45902000  0.32537000  0.79128000  1.0 -0.0265135018
C  C64  1  0.17463000  0.04098000  0.70872000  1.0 -0.0265135018
C  C65  1  0.70872000  0.17463000  0.04098000  1.0 -0.0265135018
C  C66  1  0.04098000  0.70872000  0.17463000  1.0 -0.0265135018
C  C67  1  0.67463000  0.20872000  0.54098000  1.0 -0.0265135018
C  C68  1  0.20872000  0.54098000  0.67463000  1.0 -0.0265135018
C  C69  1  0.54098000  0.67463000  0.20872000  1.0 -0.0265135018
C  C70  1  0.82537000  0.95902000  0.29128000  1.0 -0.0265135018
C  C71  1  0.29128000  0.82537000  0.95902000  1.0 -0.0265135018
C  C72  1  0.95902000  0.29128000  0.82537000  1.0 -0.0265135018
C  C73  1  0.29480000  0.78098000  0.51111000  1.0 -0.0887147912
C  C74  1  0.78098000  0.51111000  0.29480000  1.0 -0.0887147912
C  C75  1  0.51111000  0.29480000  0.78098000  1.0 -0.0887147912
C  C76  1  0.20520000  0.98889000  0.71902000  1.0 -0.0887147912
C  C77  1  0.71902000  0.20520000  0.98889000  1.0 -0.0887147912
C  C78  1  0.98889000  0.71902000  0.20520000  1.0 -0.0887147912
C  C79  1  0.70520000  0.21902000  0.48889000  1.0 -0.0887147912
C  C80  1  0.21902000  0.48889000  0.70520000  1.0 -0.0887147912
C  C81  1  0.48889000  0.70520000  0.21902000  1.0 -0.0887147912
C  C82  1  0.79480000  0.01111000  0.28098000  1.0 -0.0887147912
C  C83  1  0.28098000  0.79480000  0.01111000  1.0 -0.0887147912
C  C84  1  0.01111000  0.28098000  0.79480000  1.0 -0.0887147912
C  C85  1  0.29480000  0.78630000  0.39680000  1.0 0.6088440668
C  C86  1  0.78630000  0.39680000  0.29480000  1.0 0.6088440668
C  C87  1  0.39680000  0.29480000  0.78630000  1.0 0.6088440668
C  C88  1  0.20520000  0.10320000  0.71370000  1.0 0.6088440668
C  C89  1  0.71370000  0.20520000  0.10320000  1.0 0.6088440668
C  C90  1  0.10320000  0.71370000  0.20520000  1.0 0.6088440668
C  C91  1  0.70520000  0.21370000  0.60320000  1.0 0.6088440668
C  C92  1  0.21370000  0.60320000  0.70520000  1.0 0.6088440668
C  C93  1  0.60320000  0.70520000  0.21370000  1.0 0.6088440668
C  C94  1  0.79480000  0.89680000  0.28630000  1.0 0.6088440668
C  C95  1  0.28630000  0.79480000  0.89680000  1.0 0.6088440668
C  C96  1  0.89680000  0.28630000  0.79480000  1.0 0.6088440668
C  C97  1  0.58301000  0.81607000  0.49303000  1.0 0.2385316318
C  C98  1  0.81607000  0.49303000  0.58301000  1.0 0.2385316318
C  C99  1  0.49303000  0.58301000  0.81607000  1.0 0.2385316318
C  C100  1  0.91699000  0.00697000  0.68393000  1.0 0.2385316318
C  C101  1  0.68393000  0.91699000  0.00697000  1.0 0.2385316318
C  C102  1  0.00697000  0.68393000  0.91699000  1.0 0.2385316318
C  C103  1  0.41699000  0.18393000  0.50697000  1.0 0.2385316318
C  C104  1  0.18393000  0.50697000  0.41699000  1.0 0.2385316318
C  C105  1  0.50697000  0.41699000  0.18393000  1.0 0.2385316318
C  C106  1  0.08301000  0.99303000  0.31607000  1.0 0.2385316318
C  C107  1  0.31607000  0.08301000  0.99303000  1.0 0.2385316318
C  C108  1  0.99303000  0.31607000  0.08301000  1.0 0.2385316318
C  C109  1  0.61261000  0.80618000  0.54865000  1.0 -0.1454636379
C  C110  1  0.80618000  0.54865000  0.61261000  1.0 -0.143315114
C  C111  1  0.54865000  0.61261000  0.80618000  1.0 -0.143315114
C  C112  1  0.88739000  0.95135000  0.69382000  1.0 -0.143315114
C  C113  1  0.69382000  0.88739000  0.95135000  1.0 -0.1454636379
C  C114  1  0.95135000  0.69382000  0.88739000  1.0 -0.143315114
C  C115  1  0.38739000  0.19382000  0.45135000  1.0 -0.1454636379
C  C116  1  0.19382000  0.45135000  0.38739000  1.0 -0.143315114
C  C117  1  0.45135000  0.38739000  0.19382000  1.0 -0.143315114
C  C118  1  0.11261000  0.04865000  0.30618000  1.0 -0.143315114
C  C119  1  0.30618000  0.11261000  0.04865000  1.0 -0.143315114
C  C120  1  0.04865000  0.30618000  0.11261000  1.0 -0.143315114
C  C121  1  0.67313000  0.79189000  0.55129000  1.0 -0.004286972
C  C122  1  0.79189000  0.55129000  0.67313000  1.0 -0.004286972
C  C123  1  0.55129000  0.67313000  0.79189000  1.0 -0.004286972
C  C124  1  0.82687000  0.94871000  0.70811000  1.0 -0.004286972
C  C125  1  0.70811000  0.82687000  0.94871000  1.0 -0.004286972
C  C126  1  0.94871000  0.70811000  0.82687000  1.0 -0.004286972
C  C127  1  0.32687000  0.20811000  0.44871000  1.0 -0.004286972
C  C128  1  0.20811000  0.44871000  0.32687000  1.0 -0.004286972
C  C129  1  0.44871000  0.32687000  0.20811000  1.0 -0.004286972
C  C130  1  0.17313000  0.05129000  0.29189000  1.0 -0.004286972
C  C131  1  0.29189000  0.17313000  0.05129000  1.0 -0.004286972
C  C132  1  0.05129000  0.29189000  0.17313000  1.0 -0.0052988873
C  C133  1  0.70412000  0.78742000  0.49831000  1.0 -0.0887147912
C  C134  1  0.78742000  0.49831000  0.70412000  1.0 -0.0887147912
C  C135  1  0.49831000  0.70412000  0.78742000  1.0 -0.0887147912
C  C136  1  0.79588000  0.00169000  0.71258000  1.0 -0.0887147912
C  C137  1  0.71258000  0.79588000  0.00169000  1.0 -0.0887147912
C  C138  1  0.00169000  0.71258000  0.79588000  1.0 -0.0887147912
C  C139  1  0.29588000  0.21258000  0.50169000  1.0 -0.0887147912
C  C140  1  0.21258000  0.50169000  0.29588000  1.0 -0.0887147912
C  C141  1  0.50169000  0.29588000  0.21258000  1.0 -0.0887147912
C  C142  1  0.20412000  0.99831000  0.28742000  1.0 -0.0887147912
C  C143  1  0.28742000  0.20412000  0.99831000  1.0 -0.0887147912
C  C144  1  0.99831000  0.28742000  0.20412000  1.0 -0.0887147912
C  C145  1  0.67453000  0.79730000  0.44269000  1.0 -0.0265135018
C  C146  1  0.79730000  0.44269000  0.67453000  1.0 -0.0265135018
C  C147  1  0.44269000  0.67453000  0.79730000  1.0 -0.0265135018
C  C148  1  0.82547000  0.05731000  0.70270000  1.0 -0.0265135018
C  C149  1  0.70270000  0.82547000  0.05731000  1.0 -0.0265135018
C  C150  1  0.05731000  0.70270000  0.82547000  1.0 -0.0265135018
C  C151  1  0.32547000  0.20270000  0.55731000  1.0 -0.0265135018
C  C152  1  0.20270000  0.55731000  0.32547000  1.0 -0.0265135018
C  C153  1  0.55731000  0.32547000  0.20270000  1.0 -0.0265135018
C  C154  1  0.17453000  0.94269000  0.29730000  1.0 -0.0265135018
C  C155  1  0.29730000  0.17453000  0.94269000  1.0 -0.0265135018
C  C156  1  0.94269000  0.29730000  0.17453000  1.0 -0.0265135018
C  C157  1  0.61396000  0.81164000  0.44005000  1.0 -0.143315114
C  C158  1  0.81164000  0.44005000  0.61396000  1.0 -0.143315114
C  C159  1  0.44005000  0.61396000  0.81164000  1.0 -0.143315114
C  C160  1  0.88604000  0.05995000  0.68836000  1.0 -0.143315114
C  C161  1  0.68836000  0.88604000  0.05995000  1.0 -0.143315114
C  C162  1  0.05995000  0.68836000  0.88604000  1.0 -0.143315114
C  C163  1  0.38604000  0.18836000  0.55995000  1.0 -0.143315114
C  C164  1  0.18836000  0.55995000  0.38604000  1.0 -0.143315114
C  C165  1  0.55995000  0.38604000  0.18836000  1.0 -0.143315114
C  C166  1  0.11396000  0.94005000  0.31164000  1.0 -0.143315114
C  C167  1  0.31164000  0.11396000  0.94005000  1.0 -0.143315114
C  C168  1  0.94005000  0.31164000  0.11396000  1.0 -0.143315114
C  C169  1  0.70150000  0.78360000  0.61410000  1.0 0.6088440668
C  C170  1  0.78360000  0.61410000  0.70150000  1.0 0.6088440668
C  C171  1  0.61410000  0.70150000  0.78360000  1.0 0.6088440668
C  C172  1  0.79850000  0.88590000  0.71640000  1.0 0.6088440668
C  C173  1  0.71640000  0.79850000  0.88590000  1.0 0.6088440668
C  C174  1  0.88590000  0.71640000  0.79850000  1.0 0.6088440668
C  C175  1  0.29850000  0.21640000  0.38590000  1.0 0.6088440668
C  C176  1  0.21640000  0.38590000  0.29850000  1.0 0.6088440668
C  C177  1  0.38590000  0.29850000  0.21640000  1.0 0.6088440668
C  C178  1  0.20150000  0.11410000  0.28360000  1.0 0.6088440668
C  C179  1  0.28360000  0.20150000  0.11410000  1.0 0.6088440668
C  C180  1  0.11410000  0.28360000  0.20150000  1.0 0.6088440668
C  C181  1  0.70490000  0.79640000  0.38490000  1.0 0.6088440668
C  C182  1  0.79640000  0.38490000  0.70490000  1.0 0.6088440668
C  C183  1  0.38490000  0.70490000  0.79640000  1.0 0.6088440668
C  C184  1  0.79510000  0.11510000  0.70360000  1.0 0.6088440668
C  C185  1  0.70360000  0.79510000  0.11510000  1.0 0.6088440668
C  C186  1  0.11510000  0.70360000  0.79510000  1.0 0.6088440668
C  C187  1  0.29510000  0.20360000  0.61510000  1.0 0.6088440668
C  C188  1  0.20360000  0.61510000  0.29510000  1.0 0.6088440668
C  C189  1  0.61510000  0.29510000  0.20360000  1.0 0.6088440668
C  C190  1  0.20490000  0.88490000  0.29640000  1.0 0.6088440668
C  C191  1  0.29640000  0.20490000  0.88490000  1.0 0.6088440668
C  C192  1  0.88490000  0.29640000  0.20490000  1.0 0.6088440668
C  C193  1  0.48340000  0.83660000  0.52990000  1.0 0.4389877519
C  C194  1  0.83660000  0.52990000  0.48340000  1.0 0.4389877519
C  C195  1  0.52990000  0.48340000  0.83660000  1.0 0.4389877519
C  C196  1  0.01660000  0.97010000  0.66340000  1.0 0.4389877519
C  C197  1  0.66340000  0.01660000  0.97010000  1.0 0.4389877519
C  C198  1  0.97010000  0.66340000  0.01660000  1.0 0.4389877519
C  C199  1  0.51660000  0.16340000  0.47010000  1.0 0.4389877519
C  C200  1  0.16340000  0.47010000  0.51660000  1.0 0.4389877519
C  C201  1  0.47010000  0.51660000  0.16340000  1.0 0.4389877519
C  C202  1  0.98340000  0.02990000  0.33660000  1.0 0.4389877519
C  C203  1  0.33660000  0.98340000  0.02990000  1.0 0.4389877519
C  C204  1  0.02990000  0.33660000  0.98340000  1.0 0.4389877519
N  N1  1  0.51730000  0.81410000  0.48580000  1.0 -0.4288525158
N  N2  1  0.81410000  0.48580000  0.51730000  1.0 -0.4288525158
N  N3  1  0.48580000  0.51730000  0.81410000  1.0 -0.4288525158
N  N4  1  0.98270000  0.01420000  0.68590000  1.0 -0.4288525158
N  N5  1  0.68590000  0.98270000  0.01420000  1.0 -0.4288525158
N  N6  1  0.01420000  0.68590000  0.98270000  1.0 -0.4288525158
N  N7  1  0.48270000  0.18590000  0.51420000  1.0 -0.4288525158
N  N8  1  0.18590000  0.51420000  0.48270000  1.0 -0.4288525158
N  N9  1  0.51420000  0.48270000  0.18590000  1.0 -0.4288525158
N  N10  1  0.01730000  0.98580000  0.31410000  1.0 -0.4288525158
N  N11  1  0.31410000  0.01730000  0.98580000  1.0 -0.4288525158
N  N12  1  0.98580000  0.31410000  0.01730000  1.0 -0.4288525158
O  O1  1  0.75000000  0.75000000  0.75000000  1.0 -0.9267901673
O  O2  1  0.25000000  0.25000000  0.25000000  1.0 -0.9267901673
O  O3  1  0.25000000  0.74304000  0.75696000  1.0 -0.9267901673
O  O4  1  0.74304000  0.75696000  0.25000000  1.0 -0.9267901673
O  O5  1  0.75696000  0.25000000  0.74304000  1.0 -0.9240952704
O  O6  1  0.75000000  0.25696000  0.24304000  1.0 -0.9240952704
O  O7  1  0.25696000  0.24304000  0.75000000  1.0 -0.9240952704
O  O8  1  0.24304000  0.75000000  0.25696000  1.0 -0.9267901673
O  O9  1  0.50590000  0.86380000  0.57830000  1.0 -0.4580134525
O  O10  1  0.86380000  0.57830000  0.50590000  1.0 -0.4580134525
O  O11  1  0.57830000  0.50590000  0.86380000  1.0 -0.4580134525
O  O12  1  0.99410000  0.92170000  0.63620000  1.0 -0.4580134525
O  O13  1  0.63620000  0.99410000  0.92170000  1.0 -0.4580134525
O  O14  1  0.92170000  0.63620000  0.99410000  1.0 -0.4580134525
O  O15  1  0.49410000  0.13620000  0.42170000  1.0 -0.4533343985
O  O16  1  0.13620000  0.42170000  0.49410000  1.0 -0.4580134525
O  O17  1  0.42170000  0.49410000  0.13620000  1.0 -0.4580134525
O  O18  1  0.00590000  0.07830000  0.36380000  1.0 -0.4580134525
O  O19  1  0.36380000  0.00590000  0.07830000  1.0 -0.4580134525
O  O20  1  0.07830000  0.36380000  0.00590000  1.0 -0.4580134525
O  O21  1  0.24586000  0.74774000  0.62308000  1.0 -0.5487761637
O  O22  1  0.74774000  0.62308000  0.24586000  1.0 -0.5487761637
O  O23  1  0.62308000  0.24586000  0.74774000  1.0 -0.5487761637
O  O24  1  0.25414000  0.87692000  0.75226000  1.0 -0.5487761637
O  O25  1  0.75226000  0.25414000  0.87692000  1.0 -0.5487761637
O  O26  1  0.87692000  0.75226000  0.25414000  1.0 -0.5487761637
O  O27  1  0.75414000  0.25226000  0.37692000  1.0 -0.5487761637
O  O28  1  0.25226000  0.37692000  0.75414000  1.0 -0.5487761637
O  O29  1  0.37692000  0.75414000  0.25226000  1.0 -0.5487761637
O  O30  1  0.74586000  0.12308000  0.24774000  1.0 -0.5487761637
O  O31  1  0.24774000  0.74586000  0.12308000  1.0 -0.5487761637
O  O32  1  0.12308000  0.24774000  0.74586000  1.0 -0.5487761637
O  O33  1  0.32220000  0.80517000  0.67336000  1.0 -0.511693787
O  O34  1  0.80517000  0.67336000  0.32220000  1.0 -0.511693787
O  O35  1  0.67336000  0.32220000  0.80517000  1.0 -0.511693787
O  O36  1  0.17780000  0.82664000  0.69483000  1.0 -0.511693787
O  O37  1  0.69483000  0.17780000  0.82664000  1.0 -0.511693787
O  O38  1  0.82664000  0.69483000  0.17780000  1.0 -0.511693787
O  O39  1  0.67780000  0.19483000  0.32664000  1.0 -0.511693787
O  O40  1  0.19483000  0.32664000  0.67780000  1.0 -0.511693787
O  O41  1  0.32664000  0.67780000  0.19483000  1.0 -0.511693787
O  O42  1  0.82220000  0.17336000  0.30517000  1.0 -0.511693787
O  O43  1  0.30517000  0.82220000  0.17336000  1.0 -0.511693787
O  O44  1  0.17336000  0.30517000  0.82220000  1.0 -0.511693787
O  O45  1  0.24136000  0.75998000  0.39109000  1.0 -0.5438711618
O  O46  1  0.75998000  0.39109000  0.24136000  1.0 -0.5438711618
O  O47  1  0.39109000  0.24136000  0.75998000  1.0 -0.5438711618
O  O48  1  0.25864000  0.10891000  0.74002000  1.0 -0.5438711618
O  O49  1  0.74002000  0.25864000  0.10891000  1.0 -0.5438711618
O  O50  1  0.10891000  0.74002000  0.25864000  1.0 -0.5438711618
O  O51  1  0.75864000  0.24002000  0.60891000  1.0 -0.5438711618
O  O52  1  0.24002000  0.60891000  0.75864000  1.0 -0.5438711618
O  O53  1  0.60891000  0.75864000  0.24002000  1.0 -0.5438711618
O  O54  1  0.74136000  0.89109000  0.25998000  1.0 -0.5438711618
O  O55  1  0.25998000  0.74136000  0.89109000  1.0 -0.5438711618
O  O56  1  0.89109000  0.25998000  0.74136000  1.0 -0.5438711618
O  O57  1  0.32239000  0.80688000  0.35496000  1.0 -0.511693787
O  O58  1  0.80688000  0.35496000  0.32239000  1.0 -0.511693787
O  O59  1  0.35496000  0.32239000  0.80688000  1.0 -0.511693787
O  O60  1  0.17761000  0.14504000  0.69312000  1.0 -0.511693787
O  O61  1  0.69312000  0.17761000  0.14504000  1.0 -0.511693787
O  O62  1  0.14504000  0.69312000  0.17761000  1.0 -0.511693787
O  O63  1  0.67761000  0.19312000  0.64504000  1.0 -0.511693787
O  O64  1  0.19312000  0.64504000  0.67761000  1.0 -0.511693787
O  O65  1  0.64504000  0.67761000  0.19312000  1.0 -0.511693787
O  O66  1  0.82239000  0.85496000  0.30688000  1.0 -0.5151985063
O  O67  1  0.30688000  0.82239000  0.85496000  1.0 -0.511693787
O  O68  1  0.85496000  0.30688000  0.82239000  1.0 -0.5151985063
O  O69  1  0.67425000  0.80186000  0.65810000  1.0 -0.511693787
O  O70  1  0.80186000  0.65810000  0.67425000  1.0 -0.511693787
O  O71  1  0.65810000  0.67425000  0.80186000  1.0 -0.511693787
O  O72  1  0.82575000  0.84190000  0.69814000  1.0 -0.5151985063
O  O73  1  0.69814000  0.82575000  0.84190000  1.0 -0.511693787
O  O74  1  0.84190000  0.69814000  0.82575000  1.0 -0.511693787
O  O75  1  0.32575000  0.19814000  0.34190000  1.0 -0.5151985063
O  O76  1  0.19814000  0.34190000  0.32575000  1.0 -0.511693787
O  O77  1  0.34190000  0.32575000  0.19814000  1.0 -0.511693787
O  O78  1  0.17425000  0.15810000  0.30186000  1.0 -0.511693787
O  O79  1  0.30186000  0.17425000  0.15810000  1.0 -0.5151985063
O  O80  1  0.15810000  0.30186000  0.17425000  1.0 -0.5151985063
O  O81  1  0.75130000  0.75784000  0.61658000  1.0 -0.5487761637
O  O82  1  0.75784000  0.61658000  0.75130000  1.0 -0.5487761637
O  O83  1  0.61658000  0.75130000  0.75784000  1.0 -0.5487761637
O  O84  1  0.74870000  0.88342000  0.74216000  1.0 -0.5487761637
O  O85  1  0.74216000  0.74870000  0.88342000  1.0 -0.5487761637
O  O86  1  0.88342000  0.74216000  0.74870000  1.0 -0.5487761637
O  O87  1  0.24870000  0.24216000  0.38342000  1.0 -0.5487761637
O  O88  1  0.24216000  0.38342000  0.24870000  1.0 -0.5487761637
O  O89  1  0.38342000  0.24870000  0.24216000  1.0 -0.5487761637
O  O90  1  0.25130000  0.11658000  0.25784000  1.0 -0.5487761637
O  O91  1  0.25784000  0.25130000  0.11658000  1.0 -0.5487761637
O  O92  1  0.11658000  0.25784000  0.25130000  1.0 -0.5487761637
O  O93  1  0.75657000  0.77340000  0.38320000  1.0 -0.5487761637
O  O94  1  0.77340000  0.38320000  0.75657000  1.0 -0.5487761637
O  O95  1  0.38320000  0.75657000  0.77340000  1.0 -0.5487761637
O  O96  1  0.74343000  0.11680000  0.72660000  1.0 -0.5487761637
O  O97  1  0.72660000  0.74343000  0.11680000  1.0 -0.5487761637
O  O98  1  0.11680000  0.72660000  0.74343000  1.0 -0.5487761637
O  O99  1  0.24343000  0.22660000  0.61680000  1.0 -0.5487761637
O  O100  1  0.22660000  0.61680000  0.24343000  1.0 -0.5487761637
O  O101  1  0.61680000  0.24343000  0.22660000  1.0 -0.5487761637
O  O102  1  0.25657000  0.88320000  0.27340000  1.0 -0.5487761637
O  O103  1  0.27340000  0.25657000  0.88320000  1.0 -0.5487761637
O  O104  1  0.88320000  0.27340000  0.25657000  1.0 -0.5487761637
O  O105  1  0.67760000  0.81717000  0.34037000  1.0 -0.5333659226
O  O106  1  0.81717000  0.34037000  0.67760000  1.0 -0.5333659226
O  O107  1  0.34037000  0.67760000  0.81717000  1.0 -0.5333659226
O  O108  1  0.82240000  0.15963000  0.68283000  1.0 -0.5333659226
O  O109  1  0.68283000  0.82240000  0.15963000  1.0 -0.5333659226
O  O110  1  0.15963000  0.68283000  0.82240000  1.0 -0.5333659226
O  O111  1  0.32240000  0.18283000  0.65963000  1.0 -0.5333659226
O  O112  1  0.18283000  0.65963000  0.32240000  1.0 -0.5333659226
O  O113  1  0.65963000  0.32240000  0.18283000  1.0 -0.5333659226
O  O114  1  0.17760000  0.84037000  0.31717000  1.0 -0.5333659226
O  O115  1  0.31717000  0.17760000  0.84037000  1.0 -0.5333659226
O  O116  1  0.84037000  0.31717000  0.17760000  1.0 -0.5333659226
