# DDEC6 charges by PACMAN v1.1 (https://github.com/mtap-research/PACMAN-charge/)
data_QICNEZ_ASR_pacman
_symmetry_space_group_name_H-M   'P 1'
_cell_length_a   27.38340000
_cell_length_b   27.38340000
_cell_length_c   27.38340000
_cell_angle_alpha   60.00000000
_cell_angle_beta   60.00000000
_cell_angle_gamma   60.00000000
_symmetry_Int_Tables_number   1
_chemical_formula_structural   Zr3H4C12(SO5)4
_chemical_formula_sum   'Zr36 H48 C144 S48 O240'
_cell_volume   14519.34795760
_cell_formula_units_Z   12
loop_
 _symmetry_equiv_pos_site_id
 _symmetry_equiv_pos_as_xyz
  1  'x, y, z'
loop_
 _atom_site_type_symbol
 _atom_site_label
 _atom_site_symmetry_multiplicity
 _atom_site_fract_x
 _atom_site_fract_y
 _atom_site_fract_z
 _atom_site_occupancy
 _atom_site_charge
Zr  Zr1  1  0.41058000  0.00000000  0.00000000  1.0 2.3563313836
Zr  Zr2  1  0.41058000  0.00000000  0.58942000  1.0 2.3563313836
Zr  Zr3  1  0.00000000  0.41058000  0.58942000  1.0 2.3563313836
Zr  Zr4  1  0.00000000  0.41058000  0.00000000  1.0 2.3563313836
Zr  Zr5  1  0.58942000  0.00000000  0.00000000  1.0 2.3563313836
Zr  Zr6  1  0.00000000  0.58942000  0.41058000  1.0 2.3563313836
Zr  Zr7  1  0.00000000  0.00000000  0.41058000  1.0 2.3563313836
Zr  Zr8  1  0.41058000  0.58942000  0.00000000  1.0 2.3563313836
Zr  Zr9  1  0.00000000  0.00000000  0.58942000  1.0 2.3563313836
Zr  Zr10  1  0.58942000  0.00000000  0.41058000  1.0 2.3563313836
Zr  Zr11  1  0.00000000  0.58942000  0.00000000  1.0 2.3563313836
Zr  Zr12  1  0.58942000  0.41058000  0.00000000  1.0 2.3563313836
Zr  Zr13  1  0.54555000  0.01891000  0.88999000  1.0 2.4425667578
Zr  Zr14  1  0.45445000  0.11001000  0.45445000  1.0 2.4425667578
Zr  Zr15  1  0.01891000  0.54555000  0.54555000  1.0 2.4425667578
Zr  Zr16  1  0.11001000  0.45445000  0.98109000  1.0 2.4425667578
Zr  Zr17  1  0.98109000  0.45445000  0.45445000  1.0 2.4425667578
Zr  Zr18  1  0.54555000  0.88999000  0.01891000  1.0 2.4425667578
Zr  Zr19  1  0.11001000  0.45445000  0.45445000  1.0 2.4425667578
Zr  Zr20  1  0.98109000  0.11001000  0.45445000  1.0 2.4425667578
Zr  Zr21  1  0.88999000  0.54555000  0.54555000  1.0 2.4425667578
Zr  Zr22  1  0.45445000  0.45445000  0.98109000  1.0 2.4425667578
Zr  Zr23  1  0.88999000  0.54555000  0.01891000  1.0 2.4425667578
Zr  Zr24  1  0.01891000  0.88999000  0.54555000  1.0 2.4425667578
Zr  Zr25  1  0.88999000  0.01891000  0.54555000  1.0 2.4425667578
Zr  Zr26  1  0.54555000  0.01891000  0.54555000  1.0 2.4425667578
Zr  Zr27  1  0.54555000  0.54555000  0.01891000  1.0 2.4425667578
Zr  Zr28  1  0.54555000  0.88999000  0.54555000  1.0 2.4425667578
Zr  Zr29  1  0.01891000  0.54555000  0.88999000  1.0 2.4425667578
Zr  Zr30  1  0.54555000  0.54555000  0.88999000  1.0 2.4425667578
Zr  Zr31  1  0.45445000  0.98109000  0.45445000  1.0 2.4425667578
Zr  Zr32  1  0.98109000  0.45445000  0.11001000  1.0 2.4425667578
Zr  Zr33  1  0.45445000  0.98109000  0.11001000  1.0 2.4425667578
Zr  Zr34  1  0.45445000  0.11001000  0.98109000  1.0 2.4425667578
Zr  Zr35  1  0.45445000  0.45445000  0.11001000  1.0 2.4425667578
Zr  Zr36  1  0.11001000  0.98109000  0.45445000  1.0 2.4425667578
H  H1  1  0.21944000  0.12896000  0.99454000  1.0 0.1408691609
H  H2  1  0.34294000  0.00546000  0.78056000  1.0 0.1408691609
H  H3  1  0.12896000  0.21944000  0.65706000  1.0 0.1408691609
H  H4  1  0.00546000  0.34294000  0.87104000  1.0 0.1408691609
H  H5  1  0.87104000  0.34294000  0.78056000  1.0 0.1408691609
H  H6  1  0.65706000  0.99454000  0.12896000  1.0 0.1408691609
H  H7  1  0.00546000  0.78056000  0.34294000  1.0 0.1408691609
H  H8  1  0.87104000  0.00546000  0.34294000  1.0 0.1408691609
H  H9  1  0.99454000  0.65706000  0.21944000  1.0 0.1408691609
H  H10  1  0.34294000  0.78056000  0.87104000  1.0 0.1408691609
H  H11  1  0.99454000  0.21944000  0.12896000  1.0 0.1408691609
H  H12  1  0.12896000  0.99454000  0.21944000  1.0 0.1408691609
H  H13  1  0.99454000  0.12896000  0.65706000  1.0 0.1408691609
H  H14  1  0.65706000  0.12896000  0.21944000  1.0 0.1408691609
H  H15  1  0.21944000  0.65706000  0.12896000  1.0 0.1408691609
H  H16  1  0.21944000  0.99454000  0.65706000  1.0 0.1408691609
H  H17  1  0.12896000  0.65706000  0.99454000  1.0 0.1408691609
H  H18  1  0.65706000  0.21944000  0.99454000  1.0 0.1408691609
H  H19  1  0.78056000  0.87104000  0.34294000  1.0 0.1408691609
H  H20  1  0.87104000  0.78056000  0.00546000  1.0 0.1408691609
H  H21  1  0.34294000  0.87104000  0.00546000  1.0 0.1408691609
H  H22  1  0.78056000  0.00546000  0.87104000  1.0 0.1408691609
H  H23  1  0.78056000  0.34294000  0.00546000  1.0 0.1408691609
H  H24  1  0.00546000  0.87104000  0.78056000  1.0 0.1408691609
H  H25  1  0.78056000  0.87104000  0.00546000  1.0 0.1408691609
H  H26  1  0.65706000  0.99454000  0.21944000  1.0 0.1408691609
H  H27  1  0.87104000  0.78056000  0.34294000  1.0 0.1408691609
H  H28  1  0.99454000  0.65706000  0.12896000  1.0 0.1408691609
H  H29  1  0.12896000  0.65706000  0.21944000  1.0 0.1408691609
H  H30  1  0.34294000  0.00546000  0.87104000  1.0 0.1408691609
H  H31  1  0.99454000  0.21944000  0.65706000  1.0 0.1408691609
H  H32  1  0.12896000  0.99454000  0.65706000  1.0 0.1408691609
H  H33  1  0.00546000  0.34294000  0.78056000  1.0 0.1408691609
H  H34  1  0.65706000  0.21944000  0.12896000  1.0 0.1408691609
H  H35  1  0.00546000  0.78056000  0.87104000  1.0 0.1408691609
H  H36  1  0.87104000  0.00546000  0.78056000  1.0 0.1408691609
H  H37  1  0.00546000  0.87104000  0.34294000  1.0 0.1408691609
H  H38  1  0.34294000  0.87104000  0.78056000  1.0 0.1408691609
H  H39  1  0.78056000  0.34294000  0.87104000  1.0 0.1408691609
H  H40  1  0.78056000  0.00546000  0.34294000  1.0 0.1408691609
H  H41  1  0.87104000  0.34294000  0.00546000  1.0 0.1408691609
H  H42  1  0.34294000  0.78056000  0.00546000  1.0 0.1408691609
H  H43  1  0.21944000  0.12896000  0.65706000  1.0 0.1408691609
H  H44  1  0.12896000  0.21944000  0.99454000  1.0 0.1408691609
H  H45  1  0.65706000  0.12896000  0.99454000  1.0 0.1408691609
H  H46  1  0.21944000  0.99454000  0.12896000  1.0 0.1408691609
H  H47  1  0.21944000  0.65706000  0.99454000  1.0 0.1408691609
H  H48  1  0.99454000  0.12896000  0.21944000  1.0 0.1408691609
C  C1  1  0.32660000  0.13520000  0.97840000  1.0 0.648338163
C  C2  1  0.44020000  0.02160000  0.67340000  1.0 0.648338163
C  C3  1  0.13520000  0.32660000  0.55980000  1.0 0.648338163
C  C4  1  0.02160000  0.44020000  0.86480000  1.0 0.648338163
C  C5  1  0.86480000  0.44020000  0.67340000  1.0 0.648338163
C  C6  1  0.55980000  0.97840000  0.13520000  1.0 0.648338163
C  C7  1  0.02160000  0.67340000  0.44020000  1.0 0.648338163
C  C8  1  0.86480000  0.02160000  0.44020000  1.0 0.648338163
C  C9  1  0.97840000  0.55980000  0.32660000  1.0 0.648338163
C  C10  1  0.44020000  0.67340000  0.86480000  1.0 0.648338163
C  C11  1  0.97840000  0.32660000  0.13520000  1.0 0.648338163
C  C12  1  0.13520000  0.97840000  0.32660000  1.0 0.648338163
C  C13  1  0.97840000  0.13520000  0.55980000  1.0 0.648338163
C  C14  1  0.55980000  0.13520000  0.32660000  1.0 0.648338163
C  C15  1  0.32660000  0.55980000  0.13520000  1.0 0.648338163
C  C16  1  0.32660000  0.97840000  0.55980000  1.0 0.648338163
C  C17  1  0.13520000  0.55980000  0.97840000  1.0 0.648338163
C  C18  1  0.55980000  0.32660000  0.97840000  1.0 0.648338163
C  C19  1  0.67340000  0.86480000  0.44020000  1.0 0.648338163
C  C20  1  0.86480000  0.67340000  0.02160000  1.0 0.648338163
C  C21  1  0.44020000  0.86480000  0.02160000  1.0 0.648338163
C  C22  1  0.67340000  0.02160000  0.86480000  1.0 0.648338163
C  C23  1  0.67340000  0.44020000  0.02160000  1.0 0.648338163
C  C24  1  0.02160000  0.86480000  0.67340000  1.0 0.648338163
C  C25  1  0.67340000  0.86480000  0.02160000  1.0 0.648338163
C  C26  1  0.55980000  0.97840000  0.32660000  1.0 0.648338163
C  C27  1  0.86480000  0.67340000  0.44020000  1.0 0.648338163
C  C28  1  0.97840000  0.55980000  0.13520000  1.0 0.648338163
C  C29  1  0.13520000  0.55980000  0.32660000  1.0 0.648338163
C  C30  1  0.44020000  0.02160000  0.86480000  1.0 0.648338163
C  C31  1  0.97840000  0.32660000  0.55980000  1.0 0.648338163
C  C32  1  0.13520000  0.97840000  0.55980000  1.0 0.648338163
C  C33  1  0.02160000  0.44020000  0.67340000  1.0 0.648338163
C  C34  1  0.55980000  0.32660000  0.13520000  1.0 0.648338163
C  C35  1  0.02160000  0.67340000  0.86480000  1.0 0.648338163
C  C36  1  0.86480000  0.02160000  0.67340000  1.0 0.648338163
C  C37  1  0.02160000  0.86480000  0.44020000  1.0 0.648338163
C  C38  1  0.44020000  0.86480000  0.67340000  1.0 0.648338163
C  C39  1  0.67340000  0.44020000  0.86480000  1.0 0.648338163
C  C40  1  0.67340000  0.02160000  0.44020000  1.0 0.648338163
C  C41  1  0.86480000  0.44020000  0.02160000  1.0 0.648338163
C  C42  1  0.44020000  0.67340000  0.02160000  1.0 0.648338163
C  C43  1  0.32660000  0.13520000  0.55980000  1.0 0.648338163
C  C44  1  0.13520000  0.32660000  0.97840000  1.0 0.648338163
C  C45  1  0.55980000  0.13520000  0.97840000  1.0 0.648338163
C  C46  1  0.32660000  0.97840000  0.13520000  1.0 0.648338163
C  C47  1  0.32660000  0.55980000  0.97840000  1.0 0.648338163
C  C48  1  0.97840000  0.13520000  0.32660000  1.0 0.648338163
C  C49  1  0.26640000  0.17660000  0.98100000  1.0 -0.1591815622
C  C50  1  0.42400000  0.01900000  0.73360000  1.0 -0.1591815622
C  C51  1  0.17660000  0.26640000  0.57600000  1.0 -0.1591815622
C  C52  1  0.01900000  0.42400000  0.82340000  1.0 -0.1591815622
C  C53  1  0.82340000  0.42400000  0.73360000  1.0 -0.1591815622
C  C54  1  0.57600000  0.98100000  0.17660000  1.0 -0.1591815622
C  C55  1  0.01900000  0.73360000  0.42400000  1.0 -0.1591815622
C  C56  1  0.82340000  0.01900000  0.42400000  1.0 -0.1591815622
C  C57  1  0.98100000  0.57600000  0.26640000  1.0 -0.1591815622
C  C58  1  0.42400000  0.73360000  0.82340000  1.0 -0.1591815622
C  C59  1  0.98100000  0.26640000  0.17660000  1.0 -0.1591815622
C  C60  1  0.17660000  0.98100000  0.26640000  1.0 -0.1591815622
C  C61  1  0.98100000  0.17660000  0.57600000  1.0 -0.1591815622
C  C62  1  0.57600000  0.17660000  0.26640000  1.0 -0.1591815622
C  C63  1  0.26640000  0.57600000  0.17660000  1.0 -0.1591815622
C  C64  1  0.26640000  0.98100000  0.57600000  1.0 -0.1591815622
C  C65  1  0.17660000  0.57600000  0.98100000  1.0 -0.1591815622
C  C66  1  0.57600000  0.26640000  0.98100000  1.0 -0.1591815622
C  C67  1  0.73360000  0.82340000  0.42400000  1.0 -0.1591815622
C  C68  1  0.82340000  0.73360000  0.01900000  1.0 -0.1591815622
C  C69  1  0.42400000  0.82340000  0.01900000  1.0 -0.1591815622
C  C70  1  0.73360000  0.01900000  0.82340000  1.0 -0.1591815622
C  C71  1  0.73360000  0.42400000  0.01900000  1.0 -0.1591815622
C  C72  1  0.01900000  0.82340000  0.73360000  1.0 -0.1591815622
C  C73  1  0.73360000  0.82340000  0.01900000  1.0 -0.1591815622
C  C74  1  0.57600000  0.98100000  0.26640000  1.0 -0.1591815622
C  C75  1  0.82340000  0.73360000  0.42400000  1.0 -0.1591815622
C  C76  1  0.98100000  0.57600000  0.17660000  1.0 -0.1591815622
C  C77  1  0.17660000  0.57600000  0.26640000  1.0 -0.1591815622
C  C78  1  0.42400000  0.01900000  0.82340000  1.0 -0.1591815622
C  C79  1  0.98100000  0.26640000  0.57600000  1.0 -0.1591815622
C  C80  1  0.17660000  0.98100000  0.57600000  1.0 -0.1591815622
C  C81  1  0.01900000  0.42400000  0.73360000  1.0 -0.1591815622
C  C82  1  0.57600000  0.26640000  0.17660000  1.0 -0.1591815622
C  C83  1  0.01900000  0.73360000  0.82340000  1.0 -0.1591815622
C  C84  1  0.82340000  0.01900000  0.73360000  1.0 -0.1591815622
C  C85  1  0.01900000  0.82340000  0.42400000  1.0 -0.1591815622
C  C86  1  0.42400000  0.82340000  0.73360000  1.0 -0.1591815622
C  C87  1  0.73360000  0.42400000  0.82340000  1.0 -0.1591815622
C  C88  1  0.73360000  0.01900000  0.42400000  1.0 -0.1591815622
C  C89  1  0.82340000  0.42400000  0.01900000  1.0 -0.1591815622
C  C90  1  0.42400000  0.73360000  0.01900000  1.0 -0.1591815622
C  C91  1  0.26640000  0.17660000  0.57600000  1.0 -0.1591815622
C  C92  1  0.17660000  0.26640000  0.98100000  1.0 -0.1591815622
C  C93  1  0.57600000  0.17660000  0.98100000  1.0 -0.1591815622
C  C94  1  0.26640000  0.98100000  0.17660000  1.0 -0.1591815622
C  C95  1  0.26640000  0.57600000  0.98100000  1.0 -0.1591815622
C  C96  1  0.98100000  0.17660000  0.26640000  1.0 -0.1591815622
C  C97  1  0.21830000  0.16650000  0.98930000  1.0 -0.0967590901
C  C98  1  0.37410000  0.01070000  0.78170000  1.0 -0.0967590901
C  C99  1  0.16650000  0.21830000  0.62590000  1.0 -0.0967590901
C  C100  1  0.01070000  0.37410000  0.83350000  1.0 -0.0967590901
C  C101  1  0.83350000  0.37410000  0.78170000  1.0 -0.0967590901
C  C102  1  0.62590000  0.98930000  0.16650000  1.0 -0.0967590901
C  C103  1  0.01070000  0.78170000  0.37410000  1.0 -0.0967590901
C  C104  1  0.83350000  0.01070000  0.37410000  1.0 -0.0967590901
C  C105  1  0.98930000  0.62590000  0.21830000  1.0 -0.0967590901
C  C106  1  0.37410000  0.78170000  0.83350000  1.0 -0.0967590901
C  C107  1  0.98930000  0.21830000  0.16650000  1.0 -0.0967590901
C  C108  1  0.16650000  0.98930000  0.21830000  1.0 -0.0967590901
C  C109  1  0.98930000  0.16650000  0.62590000  1.0 -0.0967590901
C  C110  1  0.62590000  0.16650000  0.21830000  1.0 -0.0967590901
C  C111  1  0.21830000  0.62590000  0.16650000  1.0 -0.0967590901
C  C112  1  0.21830000  0.98930000  0.62590000  1.0 -0.0967590901
C  C113  1  0.16650000  0.62590000  0.98930000  1.0 -0.0967590901
C  C114  1  0.62590000  0.21830000  0.98930000  1.0 -0.0967590901
C  C115  1  0.78170000  0.83350000  0.37410000  1.0 -0.0967590901
C  C116  1  0.83350000  0.78170000  0.01070000  1.0 -0.0967590901
C  C117  1  0.37410000  0.83350000  0.01070000  1.0 -0.0967590901
C  C118  1  0.78170000  0.01070000  0.83350000  1.0 -0.0967590901
C  C119  1  0.78170000  0.37410000  0.01070000  1.0 -0.0967590901
C  C120  1  0.01070000  0.83350000  0.78170000  1.0 -0.0967590901
C  C121  1  0.78170000  0.83350000  0.01070000  1.0 -0.0967590901
C  C122  1  0.62590000  0.98930000  0.21830000  1.0 -0.0967590901
C  C123  1  0.83350000  0.78170000  0.37410000  1.0 -0.0967590901
C  C124  1  0.98930000  0.62590000  0.16650000  1.0 -0.0967590901
C  C125  1  0.16650000  0.62590000  0.21830000  1.0 -0.0967590901
C  C126  1  0.37410000  0.01070000  0.83350000  1.0 -0.0967590901
C  C127  1  0.98930000  0.21830000  0.62590000  1.0 -0.0967590901
C  C128  1  0.16650000  0.98930000  0.62590000  1.0 -0.0967590901
C  C129  1  0.01070000  0.37410000  0.78170000  1.0 -0.0967590901
C  C130  1  0.62590000  0.21830000  0.16650000  1.0 -0.0967590901
C  C131  1  0.01070000  0.78170000  0.83350000  1.0 -0.0967590901
C  C132  1  0.83350000  0.01070000  0.78170000  1.0 -0.0967590901
C  C133  1  0.01070000  0.83350000  0.37410000  1.0 -0.0967590901
C  C134  1  0.37410000  0.83350000  0.78170000  1.0 -0.0967590901
C  C135  1  0.78170000  0.37410000  0.83350000  1.0 -0.0967590901
C  C136  1  0.78170000  0.01070000  0.37410000  1.0 -0.0967590901
C  C137  1  0.83350000  0.37410000  0.01070000  1.0 -0.0967590901
C  C138  1  0.37410000  0.78170000  0.01070000  1.0 -0.0967590901
C  C139  1  0.21830000  0.16650000  0.62590000  1.0 -0.0967590901
C  C140  1  0.16650000  0.21830000  0.98930000  1.0 -0.0967590901
C  C141  1  0.62590000  0.16650000  0.98930000  1.0 -0.0967590901
C  C142  1  0.21830000  0.98930000  0.16650000  1.0 -0.0967590901
C  C143  1  0.21830000  0.62590000  0.98930000  1.0 -0.0967590901
C  C144  1  0.98930000  0.16650000  0.21830000  1.0 -0.0967590901
S  S1  1  0.24932000  0.24932000  0.97298000  1.0 0.2171486036
S  S2  1  0.47162000  0.02702000  0.75068000  1.0 0.2171486036
S  S3  1  0.24932000  0.24932000  0.52838000  1.0 0.2171486036
S  S4  1  0.02702000  0.47162000  0.75068000  1.0 0.2171486036
S  S5  1  0.75068000  0.47162000  0.75068000  1.0 0.2171486036
S  S6  1  0.52838000  0.97298000  0.24932000  1.0 0.2171486036
S  S7  1  0.02702000  0.75068000  0.47162000  1.0 0.2171486036
S  S8  1  0.75068000  0.02702000  0.47162000  1.0 0.2171486036
S  S9  1  0.97298000  0.52838000  0.24932000  1.0 0.2171486036
S  S10  1  0.47162000  0.75068000  0.75068000  1.0 0.2171486036
S  S11  1  0.97298000  0.24932000  0.24932000  1.0 0.2171486036
S  S12  1  0.24932000  0.97298000  0.24932000  1.0 0.2171486036
S  S13  1  0.97298000  0.24932000  0.52838000  1.0 0.2171486036
S  S14  1  0.52838000  0.24932000  0.24932000  1.0 0.2171486036
S  S15  1  0.24932000  0.52838000  0.24932000  1.0 0.2171486036
S  S16  1  0.24932000  0.97298000  0.52838000  1.0 0.2171486036
S  S17  1  0.24932000  0.52838000  0.97298000  1.0 0.2171486036
S  S18  1  0.52838000  0.24932000  0.97298000  1.0 0.2171486036
S  S19  1  0.75068000  0.75068000  0.47162000  1.0 0.2171486036
S  S20  1  0.75068000  0.75068000  0.02702000  1.0 0.2171486036
S  S21  1  0.47162000  0.75068000  0.02702000  1.0 0.2171486036
S  S22  1  0.75068000  0.02702000  0.75068000  1.0 0.2171486036
S  S23  1  0.75068000  0.47162000  0.02702000  1.0 0.2171486036
S  S24  1  0.02702000  0.75068000  0.75068000  1.0 0.2171486036
S  S25  1  0.63550000  0.94350000  0.78550000  1.0 1.3696814084
S  S26  1  0.36450000  0.21450000  0.36450000  1.0 1.3696814084
S  S27  1  0.94350000  0.63550000  0.63550000  1.0 1.3696814084
S  S28  1  0.21450000  0.36450000  0.05650000  1.0 1.3696814084
S  S29  1  0.05650000  0.36450000  0.36450000  1.0 1.3696814084
S  S30  1  0.63550000  0.78550000  0.94350000  1.0 1.3696814084
S  S31  1  0.21450000  0.36450000  0.36450000  1.0 1.3696814084
S  S32  1  0.05650000  0.21450000  0.36450000  1.0 1.3696814084
S  S33  1  0.78550000  0.63550000  0.63550000  1.0 1.3696814084
S  S34  1  0.36450000  0.36450000  0.05650000  1.0 1.3696814084
S  S35  1  0.78550000  0.63550000  0.94350000  1.0 1.3696814084
S  S36  1  0.94350000  0.78550000  0.63550000  1.0 1.3696814084
S  S37  1  0.78550000  0.94350000  0.63550000  1.0 1.3696814084
S  S38  1  0.63550000  0.94350000  0.63550000  1.0 1.3696814084
S  S39  1  0.63550000  0.63550000  0.94350000  1.0 1.3696814084
S  S40  1  0.63550000  0.78550000  0.63550000  1.0 1.3696814084
S  S41  1  0.94350000  0.63550000  0.78550000  1.0 1.3696814084
S  S42  1  0.63550000  0.63550000  0.78550000  1.0 1.3696814084
S  S43  1  0.36450000  0.05650000  0.36450000  1.0 1.3696814084
S  S44  1  0.05650000  0.36450000  0.21450000  1.0 1.3696814084
S  S45  1  0.36450000  0.05650000  0.21450000  1.0 1.3696814084
S  S46  1  0.36450000  0.21450000  0.05650000  1.0 1.3696814084
S  S47  1  0.36450000  0.36450000  0.21450000  1.0 1.3696814084
S  S48  1  0.21450000  0.05650000  0.36450000  1.0 1.3696814084
O  O1  1  0.33568000  0.08226000  0.98552000  1.0 -0.5633259908
O  O2  1  0.40346000  0.01448000  0.66432000  1.0 -0.5633259908
O  O3  1  0.08226000  0.33568000  0.59654000  1.0 -0.5633259908
O  O4  1  0.01448000  0.40346000  0.91774000  1.0 -0.5633259908
O  O5  1  0.91774000  0.40346000  0.66432000  1.0 -0.5633259908
O  O6  1  0.59654000  0.98552000  0.08226000  1.0 -0.5633259908
O  O7  1  0.01448000  0.66432000  0.40346000  1.0 -0.5633259908
O  O8  1  0.91774000  0.01448000  0.40346000  1.0 -0.5633259908
O  O9  1  0.98552000  0.59654000  0.33568000  1.0 -0.5633259908
O  O10  1  0.40346000  0.66432000  0.91774000  1.0 -0.5633259908
O  O11  1  0.98552000  0.33568000  0.08226000  1.0 -0.5633259908
O  O12  1  0.08226000  0.98552000  0.33568000  1.0 -0.5633259908
O  O13  1  0.98552000  0.08226000  0.59654000  1.0 -0.5633259908
O  O14  1  0.59654000  0.08226000  0.33568000  1.0 -0.5633259908
O  O15  1  0.33568000  0.59654000  0.08226000  1.0 -0.5633259908
O  O16  1  0.33568000  0.98552000  0.59654000  1.0 -0.5633259908
O  O17  1  0.08226000  0.59654000  0.98552000  1.0 -0.5633259908
O  O18  1  0.59654000  0.33568000  0.98552000  1.0 -0.5633259908
O  O19  1  0.66432000  0.91774000  0.40346000  1.0 -0.5633259908
O  O20  1  0.91774000  0.66432000  0.01448000  1.0 -0.5633259908
O  O21  1  0.40346000  0.91774000  0.01448000  1.0 -0.5633259908
O  O22  1  0.66432000  0.01448000  0.91774000  1.0 -0.5633259908
O  O23  1  0.66432000  0.40346000  0.01448000  1.0 -0.5633259908
O  O24  1  0.01448000  0.91774000  0.66432000  1.0 -0.5633259908
O  O25  1  0.66432000  0.91774000  0.01448000  1.0 -0.5633259908
O  O26  1  0.59654000  0.98552000  0.33568000  1.0 -0.5633259908
O  O27  1  0.91774000  0.66432000  0.40346000  1.0 -0.5633259908
O  O28  1  0.98552000  0.59654000  0.08226000  1.0 -0.5633259908
O  O29  1  0.08226000  0.59654000  0.33568000  1.0 -0.5633259908
O  O30  1  0.40346000  0.01448000  0.91774000  1.0 -0.5633259908
O  O31  1  0.98552000  0.33568000  0.59654000  1.0 -0.5633259908
O  O32  1  0.08226000  0.98552000  0.59654000  1.0 -0.5633259908
O  O33  1  0.01448000  0.40346000  0.66432000  1.0 -0.5633259908
O  O34  1  0.59654000  0.33568000  0.08226000  1.0 -0.5633259908
O  O35  1  0.01448000  0.66432000  0.91774000  1.0 -0.5633259908
O  O36  1  0.91774000  0.01448000  0.66432000  1.0 -0.5633259908
O  O37  1  0.01448000  0.91774000  0.40346000  1.0 -0.5633259908
O  O38  1  0.40346000  0.91774000  0.66432000  1.0 -0.5633259908
O  O39  1  0.66432000  0.40346000  0.91774000  1.0 -0.5633259908
O  O40  1  0.66432000  0.01448000  0.40346000  1.0 -0.5633259908
O  O41  1  0.91774000  0.40346000  0.01448000  1.0 -0.5633259908
O  O42  1  0.40346000  0.66432000  0.01448000  1.0 -0.5633259908
O  O43  1  0.33568000  0.08226000  0.59654000  1.0 -0.5633259908
O  O44  1  0.08226000  0.33568000  0.98552000  1.0 -0.5633259908
O  O45  1  0.59654000  0.08226000  0.98552000  1.0 -0.5633259908
O  O46  1  0.33568000  0.98552000  0.08226000  1.0 -0.5633259908
O  O47  1  0.33568000  0.59654000  0.98552000  1.0 -0.5633259908
O  O48  1  0.98552000  0.08226000  0.33568000  1.0 -0.5633259908
O  O49  1  0.45630000  0.06430000  0.93570000  1.0 -1.1384687967
O  O50  1  0.45630000  0.06430000  0.54370000  1.0 -1.1384687967
O  O51  1  0.06430000  0.45630000  0.54370000  1.0 -1.1384687967
O  O52  1  0.06430000  0.45630000  0.93570000  1.0 -1.1384687967
O  O53  1  0.93570000  0.45630000  0.54370000  1.0 -1.1384687967
O  O54  1  0.54370000  0.93570000  0.06430000  1.0 -1.1384687967
O  O55  1  0.06430000  0.54370000  0.45630000  1.0 -1.1384687967
O  O56  1  0.93570000  0.06430000  0.45630000  1.0 -1.1384687967
O  O57  1  0.93570000  0.54370000  0.45630000  1.0 -1.1384687967
O  O58  1  0.45630000  0.54370000  0.93570000  1.0 -1.1384687967
O  O59  1  0.93570000  0.45630000  0.06430000  1.0 -1.1384687967
O  O60  1  0.06430000  0.93570000  0.45630000  1.0 -1.1384687967
O  O61  1  0.93570000  0.06430000  0.54370000  1.0 -1.1384687967
O  O62  1  0.54370000  0.06430000  0.45630000  1.0 -1.1384687967
O  O63  1  0.45630000  0.54370000  0.06430000  1.0 -1.1384687967
O  O64  1  0.45630000  0.93570000  0.54370000  1.0 -1.1384687967
O  O65  1  0.06430000  0.54370000  0.93570000  1.0 -1.1384687967
O  O66  1  0.54370000  0.45630000  0.93570000  1.0 -1.1384687967
O  O67  1  0.54370000  0.93570000  0.45630000  1.0 -1.1384687967
O  O68  1  0.93570000  0.54370000  0.06430000  1.0 -1.1384687967
O  O69  1  0.45630000  0.93570000  0.06430000  1.0 -1.1384687967
O  O70  1  0.54370000  0.06430000  0.93570000  1.0 -1.1384687967
O  O71  1  0.54370000  0.45630000  0.06430000  1.0 -1.1384687967
O  O72  1  0.06430000  0.93570000  0.54370000  1.0 -1.1384687967
O  O73  1  0.60240000  0.95820000  0.83700000  1.0 -0.5738717563
O  O74  1  0.39760000  0.16300000  0.39760000  1.0 -0.5738717563
O  O75  1  0.95820000  0.60240000  0.60240000  1.0 -0.5738717563
O  O76  1  0.16300000  0.39760000  0.04180000  1.0 -0.5738717563
O  O77  1  0.04180000  0.39760000  0.39760000  1.0 -0.5738717563
O  O78  1  0.60240000  0.83700000  0.95820000  1.0 -0.5738717563
O  O79  1  0.16300000  0.39760000  0.39760000  1.0 -0.5738717563
O  O80  1  0.04180000  0.16300000  0.39760000  1.0 -0.5738717563
O  O81  1  0.83700000  0.60240000  0.60240000  1.0 -0.5738717563
O  O82  1  0.39760000  0.39760000  0.04180000  1.0 -0.5738717563
O  O83  1  0.83700000  0.60240000  0.95820000  1.0 -0.5738717563
O  O84  1  0.95820000  0.83700000  0.60240000  1.0 -0.5738717563
O  O85  1  0.83700000  0.95820000  0.60240000  1.0 -0.5738717563
O  O86  1  0.60240000  0.95820000  0.60240000  1.0 -0.5738717563
O  O87  1  0.60240000  0.60240000  0.95820000  1.0 -0.5738717563
O  O88  1  0.60240000  0.83700000  0.60240000  1.0 -0.5738717563
O  O89  1  0.95820000  0.60240000  0.83700000  1.0 -0.5738717563
O  O90  1  0.60240000  0.60240000  0.83700000  1.0 -0.5738717563
O  O91  1  0.39760000  0.04180000  0.39760000  1.0 -0.5738717563
O  O92  1  0.04180000  0.39760000  0.16300000  1.0 -0.5738717563
O  O93  1  0.39760000  0.04180000  0.16300000  1.0 -0.5738717563
O  O94  1  0.39760000  0.16300000  0.04180000  1.0 -0.5738717563
O  O95  1  0.39760000  0.39760000  0.16300000  1.0 -0.5738717563
O  O96  1  0.16300000  0.04180000  0.39760000  1.0 -0.5738717563
O  O97  1  0.50190000  0.95530000  0.95530000  1.0 -1.0801184372
O  O98  1  0.41250000  0.04470000  0.49810000  1.0 -1.0801184372
O  O99  1  0.95530000  0.50190000  0.58750000  1.0 -1.0801184372
O  O100  1  0.04470000  0.41250000  0.04470000  1.0 -1.0801184372
O  O101  1  0.04470000  0.41250000  0.49810000  1.0 -1.0801184372
O  O102  1  0.58750000  0.95530000  0.95530000  1.0 -1.0801184372
O  O103  1  0.04470000  0.49810000  0.41250000  1.0 -1.0801184372
O  O104  1  0.04470000  0.04470000  0.41250000  1.0 -1.0801184372
O  O105  1  0.95530000  0.58750000  0.50190000  1.0 -1.0801184372
O  O106  1  0.41250000  0.49810000  0.04470000  1.0 -1.0801184372
O  O107  1  0.95530000  0.50190000  0.95530000  1.0 -1.0801184372
O  O108  1  0.95530000  0.95530000  0.50190000  1.0 -1.0801184372
O  O109  1  0.95530000  0.95530000  0.58750000  1.0 -1.0801184372
O  O110  1  0.58750000  0.95530000  0.50190000  1.0 -1.0801184372
O  O111  1  0.50190000  0.58750000  0.95530000  1.0 -1.0801184372
O  O112  1  0.50190000  0.95530000  0.58750000  1.0 -1.0801184372
O  O113  1  0.95530000  0.58750000  0.95530000  1.0 -1.0801184372
O  O114  1  0.58750000  0.50190000  0.95530000  1.0 -1.0801184372
O  O115  1  0.49810000  0.04470000  0.41250000  1.0 -1.0801184372
O  O116  1  0.04470000  0.49810000  0.04470000  1.0 -1.0801184372
O  O117  1  0.41250000  0.04470000  0.04470000  1.0 -1.0801184372
O  O118  1  0.49810000  0.04470000  0.04470000  1.0 -1.0801184372
O  O119  1  0.49810000  0.41250000  0.04470000  1.0 -1.0801184372
O  O120  1  0.04470000  0.04470000  0.49810000  1.0 -1.0801184372
O  O121  1  0.36280000  0.15360000  0.97440000  1.0 -0.5872311054
O  O122  1  0.49080000  0.02560000  0.63720000  1.0 -0.5872311054
O  O123  1  0.15360000  0.36280000  0.50920000  1.0 -0.5872311054
O  O124  1  0.02560000  0.49080000  0.84640000  1.0 -0.5872311054
O  O125  1  0.84640000  0.49080000  0.63720000  1.0 -0.5872311054
O  O126  1  0.50920000  0.97440000  0.15360000  1.0 -0.5872311054
O  O127  1  0.02560000  0.63720000  0.49080000  1.0 -0.5872311054
O  O128  1  0.84640000  0.02560000  0.49080000  1.0 -0.5872311054
O  O129  1  0.97440000  0.50920000  0.36280000  1.0 -0.5872311054
O  O130  1  0.49080000  0.63720000  0.84640000  1.0 -0.5872311054
O  O131  1  0.97440000  0.36280000  0.15360000  1.0 -0.5872311054
O  O132  1  0.15360000  0.97440000  0.36280000  1.0 -0.5872311054
O  O133  1  0.97440000  0.15360000  0.50920000  1.0 -0.5872311054
O  O134  1  0.50920000  0.15360000  0.36280000  1.0 -0.5872311054
O  O135  1  0.36280000  0.50920000  0.15360000  1.0 -0.5872311054
O  O136  1  0.36280000  0.97440000  0.50920000  1.0 -0.5872311054
O  O137  1  0.15360000  0.50920000  0.97440000  1.0 -0.5872311054
O  O138  1  0.50920000  0.36280000  0.97440000  1.0 -0.5872311054
O  O139  1  0.63720000  0.84640000  0.49080000  1.0 -0.5872311054
O  O140  1  0.84640000  0.63720000  0.02560000  1.0 -0.5872311054
O  O141  1  0.49080000  0.84640000  0.02560000  1.0 -0.5872311054
O  O142  1  0.63720000  0.02560000  0.84640000  1.0 -0.5872311054
O  O143  1  0.63720000  0.49080000  0.02560000  1.0 -0.5872311054
O  O144  1  0.02560000  0.84640000  0.63720000  1.0 -0.5872311054
O  O145  1  0.63720000  0.84640000  0.02560000  1.0 -0.5872311054
O  O146  1  0.50920000  0.97440000  0.36280000  1.0 -0.5872311054
O  O147  1  0.84640000  0.63720000  0.49080000  1.0 -0.5872311054
O  O148  1  0.97440000  0.50920000  0.15360000  1.0 -0.5872311054
O  O149  1  0.15360000  0.50920000  0.36280000  1.0 -0.5872311054
O  O150  1  0.49080000  0.02560000  0.84640000  1.0 -0.5872311054
O  O151  1  0.97440000  0.36280000  0.50920000  1.0 -0.5872311054
O  O152  1  0.15360000  0.97440000  0.50920000  1.0 -0.5872311054
O  O153  1  0.02560000  0.49080000  0.63720000  1.0 -0.5872311054
O  O154  1  0.50920000  0.36280000  0.15360000  1.0 -0.5872311054
O  O155  1  0.02560000  0.63720000  0.84640000  1.0 -0.5872311054
O  O156  1  0.84640000  0.02560000  0.63720000  1.0 -0.5872311054
O  O157  1  0.02560000  0.84640000  0.49080000  1.0 -0.5872311054
O  O158  1  0.49080000  0.84640000  0.63720000  1.0 -0.5872311054
O  O159  1  0.63720000  0.49080000  0.84640000  1.0 -0.5872311054
O  O160  1  0.63720000  0.02560000  0.49080000  1.0 -0.5872311054
O  O161  1  0.84640000  0.49080000  0.02560000  1.0 -0.5872311054
O  O162  1  0.49080000  0.63720000  0.02560000  1.0 -0.5872311054
O  O163  1  0.36280000  0.15360000  0.50920000  1.0 -0.5872311054
O  O164  1  0.15360000  0.36280000  0.97440000  1.0 -0.5872311054
O  O165  1  0.50920000  0.15360000  0.97440000  1.0 -0.5872311054
O  O166  1  0.36280000  0.97440000  0.15360000  1.0 -0.5872311054
O  O167  1  0.36280000  0.50920000  0.97440000  1.0 -0.5872311054
O  O168  1  0.97440000  0.15360000  0.36280000  1.0 -0.5872311054
O  O169  1  0.59890000  0.90510000  0.78110000  1.0 -0.3543433742
O  O170  1  0.28510000  0.21890000  0.40110000  1.0 -0.3543433742
O  O171  1  0.90510000  0.59890000  0.71490000  1.0 -0.3543433742
O  O172  1  0.21890000  0.28510000  0.09490000  1.0 -0.3543433742
O  O173  1  0.09490000  0.28510000  0.40110000  1.0 -0.3543433742
O  O174  1  0.71490000  0.78110000  0.90510000  1.0 -0.3543433742
O  O175  1  0.21890000  0.40110000  0.28510000  1.0 -0.3543433742
O  O176  1  0.09490000  0.21890000  0.28510000  1.0 -0.3543433742
O  O177  1  0.78110000  0.71490000  0.59890000  1.0 -0.3543433742
O  O178  1  0.28510000  0.40110000  0.09490000  1.0 -0.3543433742
O  O179  1  0.78110000  0.59890000  0.90510000  1.0 -0.3543433742
O  O180  1  0.90510000  0.78110000  0.59890000  1.0 -0.3543433742
O  O181  1  0.78110000  0.90510000  0.71490000  1.0 -0.3543433742
O  O182  1  0.71490000  0.90510000  0.59890000  1.0 -0.3543433742
O  O183  1  0.59890000  0.71490000  0.90510000  1.0 -0.3543433742
O  O184  1  0.59890000  0.78110000  0.71490000  1.0 -0.3543433742
O  O185  1  0.90510000  0.71490000  0.78110000  1.0 -0.3543433742
O  O186  1  0.71490000  0.59890000  0.78110000  1.0 -0.3543433742
O  O187  1  0.40110000  0.09490000  0.28510000  1.0 -0.3543433742
O  O188  1  0.09490000  0.40110000  0.21890000  1.0 -0.3543433742
O  O189  1  0.28510000  0.09490000  0.21890000  1.0 -0.3543433742
O  O190  1  0.40110000  0.21890000  0.09490000  1.0 -0.3543433742
O  O191  1  0.40110000  0.28510000  0.21890000  1.0 -0.3543433742
O  O192  1  0.21890000  0.09490000  0.40110000  1.0 -0.3543433742
O  O193  1  0.40110000  0.09490000  0.21890000  1.0 -0.3543433742
O  O194  1  0.71490000  0.78110000  0.59890000  1.0 -0.3543433742
O  O195  1  0.09490000  0.40110000  0.28510000  1.0 -0.3543433742
O  O196  1  0.78110000  0.71490000  0.90510000  1.0 -0.3543433742
O  O197  1  0.90510000  0.71490000  0.59890000  1.0 -0.3543433742
O  O198  1  0.28510000  0.21890000  0.09490000  1.0 -0.3543433742
O  O199  1  0.78110000  0.59890000  0.71490000  1.0 -0.3543433742
O  O200  1  0.90510000  0.78110000  0.71490000  1.0 -0.3543433742
O  O201  1  0.21890000  0.28510000  0.40110000  1.0 -0.3543433742
O  O202  1  0.71490000  0.59890000  0.90510000  1.0 -0.3543433742
O  O203  1  0.21890000  0.40110000  0.09490000  1.0 -0.3543433742
O  O204  1  0.09490000  0.21890000  0.40110000  1.0 -0.3543433742
O  O205  1  0.21890000  0.09490000  0.28510000  1.0 -0.3543433742
O  O206  1  0.28510000  0.09490000  0.40110000  1.0 -0.3543433742
O  O207  1  0.40110000  0.28510000  0.09490000  1.0 -0.3543433742
O  O208  1  0.40110000  0.21890000  0.28510000  1.0 -0.3543433742
O  O209  1  0.09490000  0.28510000  0.21890000  1.0 -0.3543433742
O  O210  1  0.28510000  0.40110000  0.21890000  1.0 -0.3543433742
O  O211  1  0.59890000  0.90510000  0.71490000  1.0 -0.3543433742
O  O212  1  0.90510000  0.59890000  0.78110000  1.0 -0.3543433742
O  O213  1  0.71490000  0.90510000  0.78110000  1.0 -0.3543433742
O  O214  1  0.59890000  0.78110000  0.90510000  1.0 -0.3543433742
O  O215  1  0.59890000  0.71490000  0.78110000  1.0 -0.3543433742
O  O216  1  0.78110000  0.90510000  0.59890000  1.0 -0.3543433742
O  O217  1  0.63400000  0.01400000  0.71800000  1.0 -0.4718358737
O  O218  1  0.36600000  0.28200000  0.36600000  1.0 -0.4718358737
O  O219  1  0.01400000  0.63400000  0.63400000  1.0 -0.4718358737
O  O220  1  0.28200000  0.36600000  0.98600000  1.0 -0.4718358737
O  O221  1  0.98600000  0.36600000  0.36600000  1.0 -0.4718358737
O  O222  1  0.63400000  0.71800000  0.01400000  1.0 -0.4718358737
O  O223  1  0.28200000  0.36600000  0.36600000  1.0 -0.4718358737
O  O224  1  0.98600000  0.28200000  0.36600000  1.0 -0.4718358737
O  O225  1  0.71800000  0.63400000  0.63400000  1.0 -0.4718358737
O  O226  1  0.36600000  0.36600000  0.98600000  1.0 -0.4718358737
O  O227  1  0.71800000  0.63400000  0.01400000  1.0 -0.4718358737
O  O228  1  0.01400000  0.71800000  0.63400000  1.0 -0.4718358737
O  O229  1  0.71800000  0.01400000  0.63400000  1.0 -0.4718358737
O  O230  1  0.63400000  0.01400000  0.63400000  1.0 -0.4718358737
O  O231  1  0.63400000  0.63400000  0.01400000  1.0 -0.4718358737
O  O232  1  0.63400000  0.71800000  0.63400000  1.0 -0.4718358737
O  O233  1  0.01400000  0.63400000  0.71800000  1.0 -0.4718358737
O  O234  1  0.63400000  0.63400000  0.71800000  1.0 -0.4718358737
O  O235  1  0.36600000  0.98600000  0.36600000  1.0 -0.4718358737
O  O236  1  0.98600000  0.36600000  0.28200000  1.0 -0.4718358737
O  O237  1  0.36600000  0.98600000  0.28200000  1.0 -0.4718358737
O  O238  1  0.36600000  0.28200000  0.98600000  1.0 -0.4718358737
O  O239  1  0.36600000  0.36600000  0.28200000  1.0 -0.4718358737
O  O240  1  0.28200000  0.98600000  0.36600000  1.0 -0.4718358737
