# DDEC6 charges by PACMAN v1.1 (https://github.com/mtap-research/PACMAN-charge/)
data_QIDPOL_FSR_pacman
_symmetry_space_group_name_H-M   'P 1'
_cell_length_a   13.36990000
_cell_length_b   16.38960000
_cell_length_c   24.72320000
_cell_angle_alpha   95.96200000
_cell_angle_beta   100.01300000
_cell_angle_gamma   110.98400000
_symmetry_Int_Tables_number   1
_chemical_formula_structural   Co3B20H78C82(N2O9)2
_chemical_formula_sum   'Co6 B40 H156 C164 N8 O36'
_cell_volume   4899.20847233
_cell_formula_units_Z   2
loop_
 _symmetry_equiv_pos_site_id
 _symmetry_equiv_pos_as_xyz
  1  'x, y, z'
loop_
 _atom_site_type_symbol
 _atom_site_label
 _atom_site_symmetry_multiplicity
 _atom_site_fract_x
 _atom_site_fract_y
 _atom_site_fract_z
 _atom_site_occupancy
 _atom_site_charge
Co  Co1  1  0.43462000  0.15206000  0.58471000  1.0 0.8825815327
Co  Co2  1  0.45086000  0.65359000  0.09129000  1.0 0.9513696141
Co  Co3  1  0.56538000  0.84794000  0.41529000  1.0 0.8825815327
Co  Co4  1  0.54914000  0.34641000  0.90871000  1.0 0.9513696141
Co  Co5  1  0.50000000  0.00000000  0.50000000  1.0 1.0905853219
Co  Co6  1  0.50000000  0.50000000  0.00000000  1.0 1.0843302912
B  B1  1  0.27300000  0.37550000  0.28890000  1.0 -0.1612666349
B  B2  1  0.25010000  0.25750000  0.28930000  1.0 -0.1682483207
B  B3  1  0.29530000  0.31560000  0.23230000  1.0 -0.2178501232
B  B4  1  0.39200000  0.44060000  0.33740000  1.0 -0.189026735
B  B5  1  0.37370000  0.26540000  0.33690000  1.0 -0.2119074494
B  B6  1  0.35520000  0.24560000  0.26380000  1.0 -0.2388032817
B  B7  1  0.43520000  0.35270000  0.24760000  1.0 -0.1991673496
B  B8  1  0.50240000  0.43000000  0.31110000  1.0 -0.2119074494
B  B9  1  0.45140000  0.37230000  0.36680000  1.0 -0.2300194744
B  B10  1  0.48530000  0.31800000  0.30920000  1.0 -0.2300194744
B  B11  1  0.71690000  0.07000000  0.18550000  1.0 -0.1682483207
B  B12  1  0.63300000  0.11020000  0.22020000  1.0 -0.1682483207
B  B13  1  0.72320000  0.17930000  0.28640000  1.0 -0.2178501232
B  B14  1  0.69070000  0.22870000  0.22590000  1.0 -0.2119074494
B  B15  1  0.85070000  0.17630000  0.28880000  1.0 -0.189026735
B  B16  1  0.82280000  0.26680000  0.26860000  1.0 -0.2388032817
B  B17  1  0.80100000  0.25680000  0.19730000  1.0 -0.1841341697
B  B18  1  0.81350000  0.15780000  0.16860000  1.0 -0.2119074494
B  B19  1  0.85190000  0.10880000  0.22740000  1.0 -0.2178501232
B  B20  1  0.90870000  0.22630000  0.23340000  1.0 -0.1991673496
B  B21  1  0.72700000  0.62450000  0.71110000  1.0 -0.1612666349
B  B22  1  0.74990000  0.74250000  0.71070000  1.0 -0.1682483207
B  B23  1  0.70470000  0.68440000  0.76770000  1.0 -0.2178501232
B  B24  1  0.60800000  0.55940000  0.66260000  1.0 -0.189026735
B  B25  1  0.62630000  0.73460000  0.66310000  1.0 -0.2119074494
B  B26  1  0.64480000  0.75440000  0.73620000  1.0 -0.2388032817
B  B27  1  0.56480000  0.64730000  0.75240000  1.0 -0.1991673496
B  B28  1  0.49760000  0.57000000  0.68890000  1.0 -0.2178501232
B  B29  1  0.54860000  0.62770000  0.63320000  1.0 -0.2300194744
B  B30  1  0.51470000  0.68200000  0.69080000  1.0 -0.2388032817
B  B31  1  0.28310000  0.93000000  0.81450000  1.0 -0.1682483207
B  B32  1  0.36700000  0.88980000  0.77980000  1.0 -0.1612666349
B  B33  1  0.27680000  0.82070000  0.71360000  1.0 -0.2178501232
B  B34  1  0.30930000  0.77130000  0.77410000  1.0 -0.2119074494
B  B35  1  0.14930000  0.82370000  0.71120000  1.0 -0.1991673496
B  B36  1  0.17720000  0.73320000  0.73140000  1.0 -0.2458670132
B  B37  1  0.19900000  0.74320000  0.80270000  1.0 -0.189026735
B  B38  1  0.18650000  0.84220000  0.83140000  1.0 -0.2119074494
B  B39  1  0.14810000  0.89120000  0.77260000  1.0 -0.2119074494
B  B40  1  0.09130000  0.77370000  0.76660000  1.0 -0.1991673496
H  H1  1  0.21410000  0.42860000  0.38650000  1.0 0.3501143512
H  H2  1  0.27160000  0.52600000  0.19070000  1.0 0.3588189788
H  H3  1  0.79670000  0.95070000  0.31100000  1.0 0.3501143512
H  H4  1  0.28130000  0.65710000  0.03060000  1.0 0.4038323916
H  H5  1  0.36460000  0.74220000  0.03760000  1.0 0.3501143512
H  H6  1  0.69030000  0.19120000  0.71600000  1.0 0.1301676069
H  H7  1  0.80090000  0.19850000  0.79880000  1.0 0.1189833444
H  H8  1  0.78440000  0.95360000  0.74710000  1.0 0.1917961507
H  H9  1  0.67760000  0.95080000  0.66070000  1.0 0.1793060041
H  H10  1  0.95470000  0.20380000  0.85900000  1.0 0.1301676069
H  H11  1  0.96420000  0.08550000  0.99250000  1.0 0.1189833444
H  H12  1  0.77190000  0.94510000  0.84320000  1.0 0.1608583925
H  H13  1  0.12040000  0.28890000  0.90000000  1.0 0.1301676069
H  H14  1  0.24630000  0.42660000  0.94870000  1.0 0.1301676069
H  H15  1  0.14710000  0.36950000  0.08750000  1.0 0.1705034477
H  H16  1  0.01560000  0.23510000  0.03970000  1.0 0.1422655241
H  H17  1  0.83530000  0.99160000  0.02670000  1.0 0.1301676069
H  H18  1  0.72760000  0.87510000  0.06330000  1.0 0.1301676069
H  H19  1  0.66300000  0.71130000  0.91710000  1.0 0.1608583925
H  H20  1  0.77240000  0.82920000  0.88260000  1.0 0.1705034477
H  H21  1  0.67280000  0.20660000  0.42290000  1.0 0.1608583925
H  H22  1  0.78110000  0.32430000  0.38660000  1.0 0.1917961507
H  H23  1  0.80660000  0.49200000  0.52370000  1.0 0.1301676069
H  H24  1  0.70120000  0.37620000  0.55830000  1.0 0.1301676069
H  H25  1  0.77160000  0.43760000  0.34390000  1.0 0.2207697637
H  H26  1  0.96660000  0.69290000  0.35570000  1.0 0.1301676069
H  H27  1  0.95630000  0.58220000  0.49400000  1.0 0.1301676069
H  H28  1  0.13020000  0.77450000  0.40030000  1.0 0.1301676069
H  H29  1  0.25720000  0.91240000  0.44560000  1.0 0.1301676069
H  H30  1  0.12490000  0.87670000  0.58050000  1.0 0.1608583925
H  H31  1  0.00320000  0.73750000  0.53390000  1.0 0.1498232884
H  H32  1  0.76620000  0.43230000  0.25120000  1.0 0.2276127532
H  H33  1  0.66980000  0.42850000  0.16380000  1.0 0.1793060041
H  H34  1  0.74160000  0.68800000  0.20250000  1.0 0.1189833444
H  H35  1  0.84880000  0.69370000  0.28640000  1.0 0.1189833444
H  H36  1  0.23270000  0.10650000  0.48020000  1.0 0.1189833444
H  H37  1  0.16330000  0.17090000  0.41450000  1.0 0.1705034477
H  H38  1  0.38350000  0.40580000  0.49570000  1.0 0.2062257386
H  H39  1  0.45530000  0.34010000  0.55870000  1.0 0.1422655241
H  H40  1  0.16680000  0.29120000  0.37520000  1.0 0.1608583925
H  H41  1  0.43210000  0.49530000  0.20500000  1.0 0.0979138038
H  H42  1  0.27930000  0.58880000  0.27470000  1.0 0.1498232884
H  H43  1  0.35520000  0.71710000  0.34410000  1.0 0.1189833444
H  H44  1  0.65280000  0.74440000  0.32780000  1.0 0.1301676069
H  H45  1  0.58170000  0.61500000  0.26690000  1.0 0.1705034477
H  H46  1  0.52790000  0.86870000  0.02600000  1.0 0.108918164
H  H47  1  0.64470000  0.02310000  0.05150000  1.0 0.1608583925
H  H48  1  0.40110000  0.05580000  0.11710000  1.0 0.1608583925
H  H49  1  0.29690000  0.90720000  0.08980000  1.0 0.108918164
H  H50  1  0.56720000  0.18370000  0.12060000  1.0 0.1608583925
H  H51  1  0.65490000  0.01440000  0.31350000  1.0 0.1189833444
H  H52  1  0.47990000  0.90260000  0.24840000  1.0 0.1498232884
H  H53  1  0.39140000  0.77860000  0.17960000  1.0 0.1189833444
H  H54  1  0.67070000  0.77760000  0.15470000  1.0 0.1189833444
H  H55  1  0.76640000  0.89460000  0.22730000  1.0 0.1498232884
H  H56  1  0.20480000  0.39860000  0.28240000  1.0 -0.0189070785
H  H57  1  0.16950000  0.20300000  0.28350000  1.0 0.0288230762
H  H58  1  0.24520000  0.29740000  0.18930000  1.0 0.0213500701
H  H59  1  0.40190000  0.50390000  0.36220000  1.0 -0.0189070785
H  H60  1  0.37510000  0.21400000  0.36190000  1.0 0.0011265219
H  H61  1  0.34220000  0.18020000  0.24080000  1.0 0.0101830952
H  H62  1  0.47630000  0.35920000  0.21250000  1.0 0.0288230762
H  H63  1  0.58350000  0.48420000  0.31780000  1.0 0.0213500701
H  H64  1  0.49810000  0.39000000  0.41050000  1.0 -0.0018007432
H  H65  1  0.55790000  0.30030000  0.31370000  1.0 0.108918164
H  H66  1  0.68360000  0.00470000  0.15790000  1.0 -0.0109053823
H  H67  1  0.54470000  0.07270000  0.21620000  1.0 0.0213500701
H  H68  1  0.69390000  0.18610000  0.32480000  1.0 0.0288230762
H  H69  1  0.63970000  0.26860000  0.22420000  1.0 0.069609974
H  H70  1  0.90280000  0.18110000  0.32960000  1.0 -0.0109053823
H  H71  1  0.85840000  0.33240000  0.29590000  1.0 -0.0018007432
H  H72  1  0.82310000  0.31600000  0.17760000  1.0 -0.0189070785
H  H73  1  0.84070000  0.15190000  0.12940000  1.0 -0.0109053823
H  H74  1  0.90540000  0.07100000  0.22820000  1.0 0.0101830952
H  H75  1  0.99710000  0.26280000  0.23690000  1.0 0.0909112929
H  H76  1  0.70960000  0.24350000  0.09210000  1.0 0.2276127532
H  H77  1  0.66530000  0.16770000  0.08850000  1.0 0.108918164
H  H78  1  0.56050000  0.22330000  0.07830000  1.0 0.2351832099
H  H79  1  0.78590000  0.57140000  0.61350000  1.0 0.3501143512
H  H80  1  0.72840000  0.47400000  0.80930000  1.0 0.3588189788
H  H81  1  0.20330000  0.04930000  0.68900000  1.0 0.3501143512
H  H82  1  0.71870000  0.34290000  0.96940000  1.0 0.4038323916
H  H83  1  0.63540000  0.25780000  0.96240000  1.0 0.3501143512
H  H84  1  0.30970000  0.80880000  0.28400000  1.0 0.1301676069
H  H85  1  0.19910000  0.80150000  0.20120000  1.0 0.1189833444
H  H86  1  0.21560000  0.04640000  0.25290000  1.0 0.1917961507
H  H87  1  0.32240000  0.04920000  0.33930000  1.0 0.1705034477
H  H88  1  0.04530000  0.79620000  0.14100000  1.0 0.1301676069
H  H89  1  0.03580000  0.91450000  0.00750000  1.0 0.1189833444
H  H90  1  0.22810000  0.05490000  0.15680000  1.0 0.1608583925
H  H91  1  0.87960000  0.71110000  0.10000000  1.0 0.1301676069
H  H92  1  0.75370000  0.57340000  0.05130000  1.0 0.1301676069
H  H93  1  0.85290000  0.63050000  0.91250000  1.0 0.1705034477
H  H94  1  0.98440000  0.76490000  0.96030000  1.0 0.1422655241
H  H95  1  0.16470000  0.00840000  0.97330000  1.0 0.1301676069
H  H96  1  0.27240000  0.12490000  0.93670000  1.0 0.1301676069
H  H97  1  0.33700000  0.28870000  0.08290000  1.0 0.1608583925
H  H98  1  0.22760000  0.17080000  0.11740000  1.0 0.1705034477
H  H99  1  0.32720000  0.79340000  0.57710000  1.0 0.1608583925
H  H100  1  0.21890000  0.67570000  0.61340000  1.0 0.1917961507
H  H101  1  0.19340000  0.50800000  0.47630000  1.0 0.1301676069
H  H102  1  0.29880000  0.62380000  0.44170000  1.0 0.1301676069
H  H103  1  0.22840000  0.56240000  0.65610000  1.0 0.2207697637
H  H104  1  0.03340000  0.30710000  0.64430000  1.0 0.1301676069
H  H105  1  0.04370000  0.41780000  0.50600000  1.0 0.1301676069
H  H106  1  0.86980000  0.22550000  0.59970000  1.0 0.1301676069
H  H107  1  0.74280000  0.08760000  0.55440000  1.0 0.1301676069
H  H108  1  0.87510000  0.12330000  0.41950000  1.0 0.1608583925
H  H109  1  0.99680000  0.26250000  0.46610000  1.0 0.1498232884
H  H110  1  0.23380000  0.56770000  0.74880000  1.0 0.2276127532
H  H111  1  0.33020000  0.57150000  0.83620000  1.0 0.1793060041
H  H112  1  0.25840000  0.31200000  0.79750000  1.0 0.1189833444
H  H113  1  0.15120000  0.30630000  0.71360000  1.0 0.1189833444
H  H114  1  0.76730000  0.89350000  0.51980000  1.0 0.1189833444
H  H115  1  0.83670000  0.82910000  0.58550000  1.0 0.1705034477
H  H116  1  0.61650000  0.59420000  0.50430000  1.0 0.2062257386
H  H117  1  0.54470000  0.65990000  0.44130000  1.0 0.1498232884
H  H118  1  0.83320000  0.70880000  0.62480000  1.0 0.1608583925
H  H119  1  0.56790000  0.50470000  0.79500000  1.0 0.0979138038
H  H120  1  0.72070000  0.41120000  0.72530000  1.0 0.1498232884
H  H121  1  0.64480000  0.28290000  0.65590000  1.0 0.1189833444
H  H122  1  0.34720000  0.25560000  0.67220000  1.0 0.1301676069
H  H123  1  0.41830000  0.38500000  0.73310000  1.0 0.1705034477
H  H124  1  0.47210000  0.13130000  0.97400000  1.0 0.108918164
H  H125  1  0.35530000  0.97690000  0.94850000  1.0 0.1608583925
H  H126  1  0.59890000  0.94420000  0.88290000  1.0 0.1608583925
H  H127  1  0.70310000  0.09280000  0.91020000  1.0 0.108918164
H  H128  1  0.43280000  0.81630000  0.87940000  1.0 0.1608583925
H  H129  1  0.34510000  0.98560000  0.68650000  1.0 0.1189833444
H  H130  1  0.52010000  0.09740000  0.75160000  1.0 0.1498232884
H  H131  1  0.60860000  0.22140000  0.82040000  1.0 0.1189833444
H  H132  1  0.32930000  0.22240000  0.84530000  1.0 0.1189833444
H  H133  1  0.23360000  0.10540000  0.77270000  1.0 0.1498232884
H  H134  1  0.79520000  0.60140000  0.71760000  1.0 -0.0189070785
H  H135  1  0.83050000  0.79700000  0.71650000  1.0 0.0288230762
H  H136  1  0.75480000  0.70260000  0.81070000  1.0 0.0213500701
H  H137  1  0.59810000  0.49610000  0.63780000  1.0 -0.0189070785
H  H138  1  0.62490000  0.78600000  0.63810000  1.0 0.0011265219
H  H139  1  0.65780000  0.81980000  0.75920000  1.0 0.0101830952
H  H140  1  0.52370000  0.64080000  0.78750000  1.0 0.0288230762
H  H141  1  0.41650000  0.51580000  0.68220000  1.0 0.0213500701
H  H142  1  0.50190000  0.61000000  0.58950000  1.0 -0.0018007432
H  H143  1  0.44210000  0.69970000  0.68630000  1.0 0.108918164
H  H144  1  0.31640000  0.99530000  0.84210000  1.0 -0.0109053823
H  H145  1  0.45530000  0.92730000  0.78380000  1.0 0.0213500701
H  H146  1  0.30610000  0.81390000  0.67520000  1.0 0.0288230762
H  H147  1  0.36030000  0.73140000  0.77580000  1.0 0.069609974
H  H148  1  0.09720000  0.81890000  0.67040000  1.0 -0.0109053823
H  H149  1  0.14160000  0.66760000  0.70410000  1.0 0.0011265219
H  H150  1  0.17690000  0.68400000  0.82240000  1.0 -0.0189070785
H  H151  1  0.15930000  0.84810000  0.87060000  1.0 -0.0109053823
H  H152  1  0.09460000  0.92900000  0.77180000  1.0 0.0213500701
H  H153  1  0.00290000  0.73720000  0.76310000  1.0 0.0979138038
H  H154  1  0.29040000  0.75650000  0.90790000  1.0 0.2207697637
H  H155  1  0.33470000  0.83230000  0.91150000  1.0 0.108918164
H  H156  1  0.43950000  0.77670000  0.92170000  1.0 0.2276127532
C  C1  1  0.58220000  0.06290000  0.62740000  1.0 0.5886064402
C  C2  1  0.66790000  0.06700000  0.68040000  1.0 0.0011265219
C  C3  1  0.70830000  0.14270000  0.72240000  1.0 -0.1140702867
C  C4  1  0.77310000  0.14670000  0.77230000  1.0 -0.1403254681
C  C5  1  0.79860000  0.07340000  0.78430000  1.0 0.0414880099
C  C6  1  0.76440000  0.00150000  0.74160000  1.0 -0.0611041364
C  C7  1  0.69900000  0.99950000  0.68920000  1.0 -0.048479308
C  C8  1  0.85090000  0.07480000  0.84160000  1.0 0.0909112929
C  C9  1  0.93000000  0.15360000  0.87510000  1.0 -0.1991673496
C  C10  1  0.97280000  0.15970000  0.93110000  1.0 0.0909112929
C  C11  1  0.93580000  0.08290000  0.95500000  1.0 -0.189026735
C  C12  1  0.85690000  0.00240000  0.92300000  1.0 0.0838751651
C  C13  1  0.81910000  0.99910000  0.86550000  1.0 -0.1488004283
C  C14  1  0.05470000  0.24710000  0.96510000  1.0 0.069609974
C  C15  1  0.12480000  0.30520000  0.93780000  1.0 -0.1403254681
C  C16  1  0.20100000  0.38720000  0.96700000  1.0 -0.0798425161
C  C17  1  0.20930000  0.41060000  0.02500000  1.0 -0.0109053823
C  C18  1  0.14160000  0.35400000  0.04950000  1.0 -0.0611041364
C  C19  1  0.06270000  0.27240000  0.02100000  1.0 -0.1300646271
C  C20  1  0.29840000  0.49850000  0.05430000  1.0 0.5886064402
C  C21  1  0.79720000  0.93600000  0.00410000  1.0 -0.1300646271
C  C22  1  0.73450000  0.86600000  0.02660000  1.0 -0.0724912569
C  C23  1  0.68110000  0.78020000  0.99240000  1.0 -0.0395582932
C  C24  1  0.69570000  0.76770000  0.93920000  1.0 -0.0724912569
C  C25  1  0.75940000  0.83910000  0.91800000  1.0 -0.0724912569
C  C26  1  0.80400000  0.92470000  0.94880000  1.0 0.0414880099
C  C27  1  0.60140000  0.20460000  0.51550000  1.0 0.5846064396
C  C28  1  0.67300000  0.27960000  0.49310000  1.0 -0.0299063045
C  C29  1  0.69840000  0.26440000  0.44260000  1.0 -0.0395582932
C  C30  1  0.76250000  0.33510000  0.42040000  1.0 -0.0395582932
C  C31  1  0.79870000  0.42290000  0.44980000  1.0 0.069609974
C  C32  1  0.77760000  0.43520000  0.50230000  1.0 -0.1300646271
C  C33  1  0.71550000  0.36590000  0.52330000  1.0 -0.0611041364
C  C34  1  0.85360000  0.49900000  0.42440000  1.0 0.0909112929
C  C35  1  0.82030000  0.49170000  0.36560000  1.0 -0.0611041364
C  C36  1  0.86040000  0.56580000  0.34030000  1.0 0.0909112929
C  C37  1  0.93850000  0.64420000  0.37270000  1.0 -0.1841341697
C  C38  1  0.97640000  0.65220000  0.43010000  1.0 0.0979138038
C  C39  1  0.93220000  0.57790000  0.45580000  1.0 -0.1682483207
C  C40  1  0.05540000  0.73920000  0.46260000  1.0 0.0594330698
C  C41  1  0.13050000  0.79430000  0.43700000  1.0 -0.1403254681
C  C42  1  0.20630000  0.87820000  0.46380000  1.0 -0.0724912569
C  C43  1  0.20550000  0.91070000  0.51820000  1.0 -0.0299063045
C  C44  1  0.12750000  0.85640000  0.54440000  1.0 -0.0299063045
C  C45  1  0.05440000  0.77240000  0.51610000  1.0 -0.1140702867
C  C46  1  0.28770000  0.99840000  0.54540000  1.0 0.5678556569
C  C47  1  0.80950000  0.56210000  0.28200000  1.0 0.069609974
C  C48  1  0.75940000  0.48400000  0.24220000  1.0 -0.048479308
C  C49  1  0.69980000  0.48110000  0.18980000  1.0 -0.048479308
C  C50  1  0.68510000  0.55440000  0.17610000  1.0 -0.0109053823
C  C51  1  0.74470000  0.63580000  0.21290000  1.0 -0.1014927023
C  C52  1  0.80690000  0.63890000  0.26360000  1.0 -0.1403254681
C  C53  1  0.60110000  0.55300000  0.12490000  1.0 0.5886064402
C  C54  1  0.26490000  0.16810000  0.48460000  1.0 0.0909112929
C  C55  1  0.22590000  0.20540000  0.44190000  1.0 -0.1300646271
C  C56  1  0.28210000  0.29620000  0.44070000  1.0 0.069609974
C  C57  1  0.35730000  0.34410000  0.49000000  1.0 -0.1140702867
C  C58  1  0.39450000  0.30480000  0.53040000  1.0 0.0594330698
C  C59  1  0.24240000  0.33170000  0.39310000  1.0 0.1793060041
C  C60  1  0.31650000  0.33720000  0.34810000  1.0 -0.0724912569
C  C61  1  0.37830000  0.41830000  0.26620000  1.0 -0.0798425161
C  C62  1  0.38400000  0.49540000  0.23070000  1.0 0.1705034477
C  C63  1  0.42850000  0.58700000  0.26730000  1.0 0.0979138038
C  C64  1  0.35500000  0.61790000  0.28760000  1.0 -0.1300646271
C  C65  1  0.40170000  0.69560000  0.32880000  1.0 0.108918164
C  C66  1  0.57750000  0.71120000  0.32010000  1.0 0.0594330698
C  C67  1  0.53430000  0.63470000  0.28260000  1.0 -0.1300646271
C  C68  1  0.50290000  0.90680000  0.04500000  1.0 0.1301676069
C  C69  1  0.57620000  0.00130000  0.06020000  1.0 -0.1488004283
C  C70  1  0.53610000  0.05520000  0.08840000  1.0 0.069609974
C  C71  1  0.42900000  0.01900000  0.09910000  1.0 -0.1403254681
C  C72  1  0.36700000  0.92980000  0.08280000  1.0 0.0213500701
C  C73  1  0.61420000  0.15160000  0.11330000  1.0 0.1301676069
C  C74  1  0.68500000  0.15730000  0.16910000  1.0 -0.0890095004
C  C75  1  0.73680000  0.08190000  0.25590000  1.0 -0.0611041364
C  C76  1  0.70000000  0.00420000  0.28840000  1.0 0.1498232884
C  C77  1  0.63100000  0.91250000  0.24260000  1.0 0.108918164
C  C78  1  0.51990000  0.87760000  0.23000000  1.0 -0.1612666349
C  C79  1  0.46790000  0.80290000  0.18820000  1.0 0.0979138038
C  C80  1  0.63170000  0.80180000  0.17450000  1.0 0.069609974
C  C81  1  0.69010000  0.87340000  0.21670000  1.0 -0.1612666349
C  C82  1  0.60530000  0.70620000  0.01570000  1.0 0.5886064402
C  C83  1  0.41780000  0.93710000  0.37260000  1.0 0.5886064402
C  C84  1  0.33210000  0.93300000  0.31960000  1.0 0.0011265219
C  C85  1  0.29170000  0.85730000  0.27760000  1.0 -0.1140702867
C  C86  1  0.22690000  0.85330000  0.22770000  1.0 -0.1403254681
C  C87  1  0.20140000  0.92660000  0.21570000  1.0 0.0451801203
C  C88  1  0.23560000  0.99850000  0.25840000  1.0 -0.0611041364
C  C89  1  0.30100000  0.00050000  0.31080000  1.0 -0.048479308
C  C90  1  0.14910000  0.92520000  0.15840000  1.0 0.0909112929
C  C91  1  0.07000000  0.84640000  0.12490000  1.0 -0.1991673496
C  C92  1  0.02720000  0.84030000  0.06890000  1.0 0.0909112929
C  C93  1  0.06420000  0.91710000  0.04500000  1.0 -0.1991673496
C  C94  1  0.14310000  0.99760000  0.07700000  1.0 0.0909112929
C  C95  1  0.18090000  0.00090000  0.13450000  1.0 -0.1488004283
C  C96  1  0.94530000  0.75290000  0.03490000  1.0 0.069609974
C  C97  1  0.87520000  0.69480000  0.06220000  1.0 -0.1403254681
C  C98  1  0.79900000  0.61280000  0.03300000  1.0 -0.0798425161
C  C99  1  0.79070000  0.58940000  0.97500000  1.0 -0.0109053823
C  C100  1  0.85840000  0.64600000  0.95050000  1.0 -0.0611041364
C  C101  1  0.93730000  0.72760000  0.97900000  1.0 -0.1300646271
C  C102  1  0.70160000  0.50150000  0.94570000  1.0 0.5886064402
C  C103  1  0.20280000  0.06400000  0.99590000  1.0 -0.1300646271
C  C104  1  0.26550000  0.13400000  0.97340000  1.0 -0.0724912569
C  C105  1  0.31890000  0.21980000  0.00760000  1.0 -0.0395582932
C  C106  1  0.30430000  0.23230000  0.06080000  1.0 -0.0724912569
C  C107  1  0.24060000  0.16090000  0.08200000  1.0 -0.0724912569
C  C108  1  0.19600000  0.07530000  0.05120000  1.0 0.0414880099
C  C109  1  0.39860000  0.79540000  0.48450000  1.0 0.5846064396
C  C110  1  0.32700000  0.72040000  0.50690000  1.0 -0.0299063045
C  C111  1  0.30160000  0.73560000  0.55740000  1.0 -0.0395582932
C  C112  1  0.23750000  0.66490000  0.57960000  1.0 -0.0395582932
C  C113  1  0.20130000  0.57710000  0.55020000  1.0 0.069609974
C  C114  1  0.22240000  0.56480000  0.49770000  1.0 -0.1300646271
C  C115  1  0.28450000  0.63410000  0.47670000  1.0 -0.0611041364
C  C116  1  0.14640000  0.50100000  0.57560000  1.0 0.0979138038
C  C117  1  0.17970000  0.50830000  0.63440000  1.0 -0.0611041364
C  C118  1  0.13960000  0.43420000  0.65970000  1.0 0.0909112929
C  C119  1  0.06150000  0.35580000  0.62730000  1.0 -0.189026735
C  C120  1  0.02360000  0.34780000  0.56990000  1.0 0.0979138038
C  C121  1  0.06780000  0.42210000  0.54420000  1.0 -0.1682483207
C  C122  1  0.94460000  0.26080000  0.53740000  1.0 0.0594330698
C  C123  1  0.86950000  0.20570000  0.56300000  1.0 -0.1403254681
C  C124  1  0.79370000  0.12180000  0.53620000  1.0 -0.0724912569
C  C125  1  0.79450000  0.08930000  0.48180000  1.0 -0.0299063045
C  C126  1  0.87250000  0.14360000  0.45560000  1.0 -0.0299063045
C  C127  1  0.94560000  0.22760000  0.48390000  1.0 -0.1152786755
C  C128  1  0.71230000  0.00160000  0.45460000  1.0 0.5678556569
C  C129  1  0.19050000  0.43790000  0.71800000  1.0 0.069609974
C  C130  1  0.24060000  0.51600000  0.75780000  1.0 -0.048479308
C  C131  1  0.30020000  0.51890000  0.81020000  1.0 -0.048479308
C  C132  1  0.31490000  0.44560000  0.82390000  1.0 -0.0109053823
C  C133  1  0.25530000  0.36420000  0.78710000  1.0 -0.1014927023
C  C134  1  0.19310000  0.36110000  0.73640000  1.0 -0.1403254681
C  C135  1  0.39890000  0.44700000  0.87510000  1.0 0.5886064402
C  C136  1  0.73510000  0.83190000  0.51540000  1.0 0.0909112929
C  C137  1  0.77410000  0.79460000  0.55810000  1.0 -0.1300646271
C  C138  1  0.71790000  0.70380000  0.55930000  1.0 0.069609974
C  C139  1  0.64270000  0.65590000  0.51000000  1.0 -0.1140702867
C  C140  1  0.60550000  0.69520000  0.46960000  1.0 0.0594330698
C  C141  1  0.75760000  0.66830000  0.60690000  1.0 0.1793060041
C  C142  1  0.68350000  0.66280000  0.65190000  1.0 -0.0798425161
C  C143  1  0.62170000  0.58170000  0.73380000  1.0 -0.0798425161
C  C144  1  0.61600000  0.50460000  0.76930000  1.0 0.1705034477
C  C145  1  0.57150000  0.41300000  0.73270000  1.0 0.0979138038
C  C146  1  0.64500000  0.38210000  0.71240000  1.0 -0.1300646271
C  C147  1  0.59830000  0.30440000  0.67120000  1.0 0.108918164
C  C148  1  0.42250000  0.28880000  0.67990000  1.0 0.0594330698
C  C149  1  0.46570000  0.36530000  0.71740000  1.0 -0.1300646271
C  C150  1  0.49710000  0.09320000  0.95500000  1.0 0.1301676069
C  C151  1  0.42380000  0.99870000  0.93980000  1.0 -0.1488004283
C  C152  1  0.46390000  0.94480000  0.91160000  1.0 0.0594330698
C  C153  1  0.57100000  0.98100000  0.90090000  1.0 -0.1403254681
C  C154  1  0.63300000  0.07020000  0.91720000  1.0 0.0288230762
C  C155  1  0.38580000  0.84840000  0.88670000  1.0 0.1301676069
C  C156  1  0.31500000  0.84270000  0.83090000  1.0 -0.0890095004
C  C157  1  0.26320000  0.91810000  0.74410000  1.0 -0.0724912569
C  C158  1  0.30000000  0.99580000  0.71160000  1.0 0.1498232884
C  C159  1  0.36900000  0.08750000  0.75740000  1.0 0.108918164
C  C160  1  0.48010000  0.12240000  0.77000000  1.0 -0.1612666349
C  C161  1  0.53210000  0.19710000  0.81180000  1.0 0.0979138038
C  C162  1  0.36830000  0.19820000  0.82550000  1.0 0.069609974
C  C163  1  0.30990000  0.12660000  0.78330000  1.0 -0.1612666349
C  C164  1  0.39470000  0.29380000  0.98430000  1.0 0.5886064402
N  N1  1  0.34410000  0.21000000  0.53170000  1.0 -0.2895189577
N  N2  1  0.51300000  0.74040000  0.34680000  1.0 -0.2611228022
N  N3  1  0.40640000  0.87170000  0.05580000  1.0 -0.2611228022
N  N4  1  0.51830000  0.76350000  0.15970000  1.0 -0.2611228022
N  N5  1  0.65590000  0.79000000  0.46830000  1.0 -0.2895189577
N  N6  1  0.48700000  0.25960000  0.65320000  1.0 -0.2611228022
N  N7  1  0.59360000  0.12830000  0.94420000  1.0 -0.2611228022
N  N8  1  0.48170000  0.23650000  0.84030000  1.0 -0.2611228022
O  O1  1  0.51740000  0.09760000  0.63660000  1.0 -0.5145984583
O  O2  1  0.58800000  0.02170000  0.58280000  1.0 -0.5531369441
O  O3  1  0.29810000  0.53610000  0.10140000  1.0 -0.5223020129
O  O4  1  0.37640000  0.53660000  0.02970000  1.0 -0.613323062
O  O5  1  0.56490000  0.72920000  0.05450000  1.0 -0.5716109567
O  O6  1  0.58410000  0.62820000  0.99260000  1.0 -0.5223020129
O  O7  1  0.57010000  0.22170000  0.55790000  1.0 -0.5404220117
O  O8  1  0.57280000  0.12650000  0.48700000  1.0 -0.5589834445
O  O9  1  0.58880000  0.50370000  0.08010000  1.0 -0.5404220117
O  O10  1  0.55380000  0.60380000  0.13250000  1.0 -0.5404220117
O  O11  1  0.27560000  0.04260000  0.58850000  1.0 -0.5037672215
O  O12  1  0.36990000  0.03320000  0.52480000  1.0 -0.5589834445
O  O13  1  0.24090000  0.40970000  0.41230000  1.0 -0.5145984583
O  O14  1  0.27420000  0.47900000  0.19800000  1.0 -0.4810382568
O  O15  1  0.79720000  0.00070000  0.31860000  1.0 -0.4866986119
O  O16  1  0.33470000  0.69930000  0.05490000  1.0 -0.6621402495
O  O17  1  0.67040000  0.19200000  0.07740000  1.0 -0.2895189577
O  O18  1  0.55940000  0.20670000  0.10850000  1.0 -0.2840547257
O  O19  1  0.48260000  0.90240000  0.36340000  1.0 -0.5145984583
O  O20  1  0.41200000  0.97830000  0.41720000  1.0 -0.5531369441
O  O21  1  0.70190000  0.46390000  0.89860000  1.0 -0.5223020129
O  O22  1  0.62360000  0.46340000  0.97030000  1.0 -0.613323062
O  O23  1  0.43510000  0.27080000  0.94550000  1.0 -0.5716109567
O  O24  1  0.41590000  0.37180000  0.00740000  1.0 -0.5223020129
O  O25  1  0.42990000  0.77830000  0.44210000  1.0 -0.5404220117
O  O26  1  0.42720000  0.87350000  0.51300000  1.0 -0.5589834445
O  O27  1  0.41120000  0.49630000  0.91990000  1.0 -0.5404220117
O  O28  1  0.44620000  0.39620000  0.86750000  1.0 -0.5404220117
O  O29  1  0.72440000  0.95740000  0.41150000  1.0 -0.5037672215
O  O30  1  0.63010000  0.96680000  0.47520000  1.0 -0.5589834445
O  O31  1  0.75910000  0.59030000  0.58770000  1.0 -0.5223020129
O  O32  1  0.72580000  0.52100000  0.80200000  1.0 -0.4810382568
O  O33  1  0.20280000  0.99930000  0.68140000  1.0 -0.4866986119
O  O34  1  0.66530000  0.30070000  0.94510000  1.0 -0.6621402495
O  O35  1  0.32960000  0.80800000  0.92260000  1.0 -0.2895189577
O  O36  1  0.44060000  0.79330000  0.89150000  1.0 -0.2895189577
