# DDEC6 charges by PACMAN v1.1 (https://github.com/mtap-research/PACMAN-charge/)
data_QIGWAI_ASR_pacman
_symmetry_space_group_name_H-M   'P 1'
_cell_length_a   12.55470000
_cell_length_b   12.61510000
_cell_length_c   13.62080000
_cell_angle_alpha   93.61990000
_cell_angle_beta   116.47700000
_cell_angle_gamma   119.82500000
_symmetry_Int_Tables_number   1
_chemical_formula_structural   MnCu3H10C18S3(NO2)3
_chemical_formula_sum   'Mn2 Cu6 H20 C36 S6 N6 O12'
_cell_volume   1558.42499364
_cell_formula_units_Z   2
loop_
 _symmetry_equiv_pos_site_id
 _symmetry_equiv_pos_as_xyz
  1  'x, y, z'
loop_
 _atom_site_type_symbol
 _atom_site_label
 _atom_site_symmetry_multiplicity
 _atom_site_fract_x
 _atom_site_fract_y
 _atom_site_fract_z
 _atom_site_occupancy
 _atom_site_charge
Mn  Mn1  1  0.36030000  0.16793000  0.55736000  1.0 1.0487249235
Mn  Mn2  1  0.63970000  0.83207000  0.44264000  1.0 1.0487249235
Cu  Cu1  1  0.97163000  0.11609000  0.90296000  1.0 0.1789369623
Cu  Cu2  1  0.02837000  0.88391000  0.09704000  1.0 0.1789369623
Cu  Cu3  1  0.77076000  0.83563000  0.90254000  1.0 0.1963567476
Cu  Cu4  1  0.22924000  0.16437000  0.09746000  1.0 0.1963567476
Cu  Cu5  1  0.93276000  0.07667000  0.08721000  1.0 0.18632767
Cu  Cu6  1  0.06724000  0.92333000  0.91279000  1.0 0.18632767
H  H1  1  0.77102000  0.15999000  0.14080000  1.0 0.1131215135
H  H2  1  0.22898000  0.84001000  0.85920000  1.0 0.1131215135
H  H3  1  0.58436000  0.18176000  0.04452000  1.0 0.1275605115
H  H4  1  0.41564000  0.81824000  0.95548000  1.0 0.1275605115
H  H5  1  0.45805000  0.11902000  0.84026000  1.0 0.1197156136
H  H6  1  0.54195000  0.88098000  0.15974000  1.0 0.1197156136
H  H7  1  0.46811000  0.61381000  0.83660000  1.0 0.1197156136
H  H8  1  0.53189000  0.38619000  0.16340000  1.0 0.1197156136
H  H9  1  0.25644000  0.66340000  0.11333000  1.0 0.1197156136
H  H10  1  0.74356000  0.33660000  0.88667000  1.0 0.1197156136
H  H11  1  0.09804000  0.55955000  0.90992000  1.0 0.1275605115
H  H12  1  0.90196000  0.44045000  0.09008000  1.0 0.1275605115
H  H13  1  0.97421000  0.33624000  0.82784000  1.0 0.1197156136
H  H14  1  0.02579000  0.66376000  0.17216000  1.0 0.1197156136
H  H15  1  0.47112000  0.60953000  0.12985000  1.0 0.1275605115
H  H16  1  0.52888000  0.39047000  0.87015000  1.0 0.1275605115
H  H17  1  0.34354000  0.52772000  0.92520000  1.0 0.1275605115
H  H18  1  0.65646000  0.47228000  0.07480000  1.0 0.1275605115
H  H19  1  0.87558000  0.79125000  0.41280000  1.0 0.3632116358
H  H20  1  0.12442000  0.20875000  0.58720000  1.0 0.3632116358
C  C1  1  0.73910000  0.79630000  0.09900000  1.0 0.2116456445
C  C2  1  0.26090000  0.20370000  0.90100000  1.0 0.2116456445
C  C3  1  0.14470000  0.36370000  0.09300000  1.0 0.2170419584
C  C4  1  0.85530000  0.63630000  0.90700000  1.0 0.2170419584
C  C5  1  0.67720000  0.03420000  0.88370000  1.0 0.2170419584
C  C6  1  0.32280000  0.96580000  0.11630000  1.0 0.2170419584
C  C7  1  0.71830000  0.13160000  0.05900000  1.0 0.0621812532
C  C8  1  0.28170000  0.86840000  0.94100000  1.0 0.0621812532
C  C9  1  0.60750000  0.14610000  0.00220000  1.0 -0.1595086713
C  C10  1  0.39250000  0.85390000  0.99780000  1.0 -0.1595086713
C  C11  1  0.53060000  0.10650000  0.88060000  1.0 -0.0724328605
C  C12  1  0.46940000  0.89350000  0.11940000  1.0 -0.0724328605
C  C13  1  0.48140000  0.00920000  0.68690000  1.0 0.5906795701
C  C14  1  0.51860000  0.99080000  0.31310000  1.0 0.5906795701
C  C15  1  0.56330000  0.04780000  0.81930000  1.0 -0.0891195048
C  C16  1  0.43670000  0.95220000  0.18070000  1.0 -0.0891195048
C  C17  1  0.51910000  0.64810000  0.91830000  1.0 0.0712883959
C  C18  1  0.48090000  0.35190000  0.08170000  1.0 0.0712883959
C  C19  1  0.22240000  0.49980000  0.14830000  1.0 -0.0891195048
C  C20  1  0.77760000  0.50020000  0.85170000  1.0 -0.0891195048
C  C21  1  0.20500000  0.57320000  0.07850000  1.0 -0.0775311251
C  C22  1  0.79500000  0.42680000  0.92150000  1.0 -0.0775311251
C  C23  1  0.67010000  0.74420000  0.15770000  1.0 -0.1036987265
C  C24  1  0.32990000  0.25580000  0.84230000  1.0 -0.1036987265
C  C25  1  0.11150000  0.51190000  0.95770000  1.0 -0.152942887
C  C26  1  0.88850000  0.48810000  0.04230000  1.0 -0.152942887
C  C27  1  0.03820000  0.37820000  0.90930000  1.0 0.0621812532
C  C28  1  0.96180000  0.62180000  0.09070000  1.0 0.0621812532
C  C29  1  0.51970000  0.64350000  0.09220000  1.0 -0.0724328605
C  C30  1  0.48030000  0.35650000  0.90780000  1.0 -0.0724328605
C  C31  1  0.44380000  0.59510000  0.97070000  1.0 -0.1595086713
C  C32  1  0.55620000  0.40490000  0.02930000  1.0 -0.152942887
C  C33  1  0.75560000  0.79410000  0.29110000  1.0 0.5906795701
C  C34  1  0.24440000  0.20590000  0.70890000  1.0 0.5906795701
C  C35  1  0.32870000  0.57000000  0.27960000  1.0 0.5906795701
C  C36  1  0.67130000  0.43000000  0.72040000  1.0 0.5906795701
S  S1  1  0.16105000  0.26313000  0.17369000  1.0 -0.2797160854
S  S2  1  0.83895000  0.73687000  0.82631000  1.0 -0.2797160854
S  S3  1  0.92583000  0.93077000  0.17483000  1.0 -0.3225648214
S  S4  1  0.07417000  0.06923000  0.82517000  1.0 -0.3225648214
S  S5  1  0.72861000  0.96589000  0.81273000  1.0 -0.2797160854
S  S6  1  0.27139000  0.03411000  0.18727000  1.0 -0.2797160854
N  N1  1  0.05570000  0.30580000  0.97520000  1.0 -0.2226623332
N  N2  1  0.94430000  0.69420000  0.02480000  1.0 -0.2226623332
N  N3  1  0.66370000  0.74770000  0.97980000  1.0 -0.2226623332
N  N4  1  0.33630000  0.25230000  0.02020000  1.0 -0.2226623332
N  N5  1  0.75470000  0.07830000  0.00210000  1.0 -0.2226623332
N  N6  1  0.24530000  0.92170000  0.99790000  1.0 -0.2226623332
O  O1  1  0.49190000  0.10210000  0.65070000  1.0 -0.5816588064
O  O2  1  0.50810000  0.89790000  0.34930000  1.0 -0.5816588064
O  O3  1  0.41310000  0.89290000  0.62460000  1.0 -0.5073753555
O  O4  1  0.58690000  0.10710000  0.37540000  1.0 -0.5073753555
O  O5  1  0.73410000  0.86470000  0.33890000  1.0 -0.5893705745
O  O6  1  0.26590000  0.13530000  0.66110000  1.0 -0.5893705745
O  O7  1  0.46220000  0.63260000  0.31580000  1.0 -0.5893705745
O  O8  1  0.53780000  0.36740000  0.68420000  1.0 -0.5893705745
O  O9  1  0.83460000  0.75930000  0.34130000  1.0 -0.3966743757
O  O10  1  0.16540000  0.24070000  0.65870000  1.0 -0.3966743757
O  O11  1  0.27810000  0.56620000  0.34080000  1.0 -0.5017575284
O  O12  1  0.72190000  0.43380000  0.65920000  1.0 -0.5017575284
