# DDEC6 charges by PACMAN v1.1 (https://github.com/mtap-research/PACMAN-charge/)
data_QIJLAW_ASR_pacman
_symmetry_space_group_name_H-M   'P 1'
_cell_length_a   13.95930000
_cell_length_b   17.20000000
_cell_length_c   20.85870000
_cell_angle_alpha   90.00000000
_cell_angle_beta   90.00000000
_cell_angle_gamma   90.00000000
_symmetry_Int_Tables_number   1
_chemical_formula_structural   Mn(C2N3)3
_chemical_formula_sum   'Mn8 C48 N72'
_cell_volume   5008.17303565
_cell_formula_units_Z   8
loop_
 _symmetry_equiv_pos_site_id
 _symmetry_equiv_pos_as_xyz
  1  'x, y, z'
loop_
 _atom_site_type_symbol
 _atom_site_label
 _atom_site_symmetry_multiplicity
 _atom_site_fract_x
 _atom_site_fract_y
 _atom_site_fract_z
 _atom_site_occupancy
 _atom_site_charge
Mn  Mn1  1  0.87745000  0.19985000  0.07420000  1.0 0.9905252501
Mn  Mn2  1  0.62255000  0.80015000  0.57420000  1.0 0.9905252501
Mn  Mn3  1  0.12255000  0.69985000  0.42580000  1.0 0.9905252501
Mn  Mn4  1  0.37745000  0.30015000  0.92580000  1.0 0.9905252501
Mn  Mn5  1  0.03190000  0.19936000  0.41941000  1.0 0.9777961566
Mn  Mn6  1  0.46810000  0.80064000  0.91941000  1.0 0.9777961566
Mn  Mn7  1  0.96810000  0.69936000  0.08059000  1.0 0.9777961566
Mn  Mn8  1  0.53190000  0.30064000  0.58059000  1.0 0.9777961566
C  C1  1  0.80677000  0.20930000  0.22777000  1.0 0.4130784715
C  C2  1  0.69323000  0.79070000  0.72777000  1.0 0.4130784715
C  C3  1  0.19323000  0.70930000  0.27223000  1.0 0.4130784715
C  C4  1  0.30677000  0.29070000  0.77223000  1.0 0.4130784715
C  C5  1  0.83721000  0.21377000  0.33362000  1.0 0.4130784715
C  C6  1  0.66279000  0.78623000  0.83362000  1.0 0.4130784715
C  C7  1  0.16279000  0.71377000  0.16638000  1.0 0.4130784715
C  C8  1  0.33721000  0.28623000  0.66638000  1.0 0.4130784715
C  C9  1  0.07300000  0.18252000  0.16052000  1.0 0.4130784715
C  C10  1  0.42700000  0.81748000  0.66052000  1.0 0.4130784715
C  C11  1  0.92700000  0.68252000  0.33948000  1.0 0.4187012731
C  C12  1  0.57300000  0.31748000  0.83948000  1.0 0.4130784715
C  C13  1  0.10683000  0.18580000  0.26658000  1.0 0.4187012731
C  C14  1  0.39317000  0.81420000  0.76658000  1.0 0.4187012731
C  C15  1  0.89317000  0.68580000  0.23342000  1.0 0.4187012731
C  C16  1  0.60683000  0.31420000  0.73342000  1.0 0.4130784715
C  C17  1  0.99158000  0.23307000  0.94823000  1.0 0.4384053319
C  C18  1  0.50842000  0.76693000  0.44823000  1.0 0.4384053319
C  C19  1  0.00842000  0.73307000  0.55177000  1.0 0.4384053319
C  C20  1  0.49158000  0.26693000  0.05177000  1.0 0.4384053319
C  C21  1  0.14234000  0.27787000  0.93452000  1.0 0.4187012731
C  C22  1  0.35766000  0.72213000  0.43452000  1.0 0.4187012731
C  C23  1  0.85766000  0.77787000  0.56548000  1.0 0.4187012731
C  C24  1  0.64234000  0.22213000  0.06548000  1.0 0.4187012731
C  C25  1  0.94659000  0.38153000  0.05827000  1.0 0.4283170297
C  C26  1  0.55341000  0.61847000  0.55827000  1.0 0.4283170297
C  C27  1  0.05341000  0.88153000  0.44173000  1.0 0.4283170297
C  C28  1  0.44659000  0.11847000  0.94173000  1.0 0.4283170297
C  C29  1  0.99096000  0.50938000  0.06246000  1.0 0.4517596259
C  C30  1  0.50904000  0.49062000  0.56246000  1.0 0.4517596259
C  C31  1  0.00904000  0.00938000  0.43754000  1.0 0.4517596259
C  C32  1  0.49096000  0.99062000  0.93754000  1.0 0.4517596259
C  C33  1  0.25870000  0.18348000  0.46038000  1.0 0.4187012731
C  C34  1  0.24130000  0.81652000  0.96038000  1.0 0.4187012731
C  C35  1  0.74130000  0.68348000  0.03962000  1.0 0.4187012731
C  C36  1  0.75870000  0.31652000  0.53962000  1.0 0.4187012731
C  C37  1  0.40628000  0.23702000  0.47185000  1.0 0.4283170297
C  C38  1  0.09372000  0.76298000  0.97185000  1.0 0.4283170297
C  C39  1  0.59372000  0.73702000  0.02815000  1.0 0.4283170297
C  C40  1  0.90628000  0.26298000  0.52815000  1.0 0.4283170297
C  C41  1  0.89518000  0.87972000  0.08842000  1.0 0.4384053319
C  C42  1  0.60482000  0.12028000  0.58842000  1.0 0.4384053319
C  C43  1  0.10482000  0.37972000  0.41158000  1.0 0.4384053319
C  C44  1  0.39518000  0.62028000  0.91158000  1.0 0.4384053319
C  C45  1  0.85591000  0.00851000  0.08109000  1.0 0.4517596259
C  C46  1  0.64409000  0.99149000  0.58109000  1.0 0.4517596259
C  C47  1  0.14409000  0.50851000  0.41891000  1.0 0.4517596259
C  C48  1  0.35591000  0.49149000  0.91891000  1.0 0.4517596259
N  N1  1  0.82729000  0.20706000  0.17488000  1.0 -0.4029672522
N  N2  1  0.67271000  0.79294000  0.67488000  1.0 -0.4029672522
N  N3  1  0.17271000  0.70706000  0.32512000  1.0 -0.4029672522
N  N4  1  0.32729000  0.29294000  0.82512000  1.0 -0.4029672522
N  N5  1  0.88555000  0.21708000  0.37784000  1.0 -0.4029672522
N  N6  1  0.61445000  0.78292000  0.87784000  1.0 -0.4088578912
N  N7  1  0.11445000  0.71708000  0.12216000  1.0 -0.4088578912
N  N8  1  0.38555000  0.28292000  0.62216000  1.0 -0.4029672522
N  N9  1  0.77403000  0.20937000  0.28671000  1.0 -0.3512222305
N  N10  1  0.72597000  0.79063000  0.78671000  1.0 -0.3512222305
N  N11  1  0.22597000  0.70937000  0.21329000  1.0 -0.3512222305
N  N12  1  0.27403000  0.29063000  0.71329000  1.0 -0.3512222305
N  N13  1  0.02418000  0.18838000  0.11650000  1.0 -0.4088578912
N  N14  1  0.47582000  0.81162000  0.61650000  1.0 -0.4088578912
N  N15  1  0.97582000  0.68838000  0.38350000  1.0 -0.4088578912
N  N16  1  0.52418000  0.31162000  0.88350000  1.0 -0.4088578912
N  N17  1  0.08927000  0.19198000  0.32035000  1.0 -0.4195428297
N  N18  1  0.41073000  0.80802000  0.82035000  1.0 -0.4195428297
N  N19  1  0.91073000  0.69198000  0.17965000  1.0 -0.4195428297
N  N20  1  0.58927000  0.30802000  0.67965000  1.0 -0.4195428297
N  N21  1  0.13544000  0.17596000  0.20716000  1.0 -0.3409014002
N  N22  1  0.36456000  0.82404000  0.70716000  1.0 -0.3409014002
N  N23  1  0.86456000  0.67596000  0.29284000  1.0 -0.3409014002
N  N24  1  0.63544000  0.32404000  0.79284000  1.0 -0.3409014002
N  N25  1  0.93033000  0.20027000  0.97271000  1.0 -0.4195428297
N  N26  1  0.56967000  0.79973000  0.47271000  1.0 -0.4195428297
N  N27  1  0.06967000  0.70027000  0.52729000  1.0 -0.4195428297
N  N28  1  0.43033000  0.29973000  0.02729000  1.0 -0.4195428297
N  N29  1  0.22218000  0.28533000  0.94748000  1.0 -0.4029672522
N  N30  1  0.27782000  0.71467000  0.44748000  1.0 -0.4029672522
N  N31  1  0.77782000  0.78533000  0.55252000  1.0 -0.4029672522
N  N32  1  0.72218000  0.21467000  0.05252000  1.0 -0.4029672522
N  N33  1  0.05370000  0.27333000  0.91573000  1.0 -0.3595454691
N  N34  1  0.44630000  0.72667000  0.41573000  1.0 -0.3595454691
N  N35  1  0.94630000  0.77333000  0.58427000  1.0 -0.3595454691
N  N36  1  0.55370000  0.22667000  0.08427000  1.0 -0.3595454691
N  N37  1  0.90293000  0.32644000  0.06925000  1.0 -0.4271622107
N  N38  1  0.59707000  0.67356000  0.56925000  1.0 -0.4195428297
N  N39  1  0.09707000  0.82644000  0.43075000  1.0 -0.4195428297
N  N40  1  0.40293000  0.17356000  0.93075000  1.0 -0.4195428297
N  N41  1  0.99142000  0.57384000  0.07603000  1.0 -0.4088578912
N  N42  1  0.50858000  0.42616000  0.57603000  1.0 -0.4088578912
N  N43  1  0.00858000  0.07384000  0.42397000  1.0 -0.4088578912
N  N44  1  0.49142000  0.92616000  0.92397000  1.0 -0.4088578912
N  N45  1  0.00284000  0.43873000  0.04198000  1.0 -0.3715331908
N  N46  1  0.49716000  0.56127000  0.54198000  1.0 -0.3715331908
N  N47  1  0.99716000  0.93873000  0.45802000  1.0 -0.3761556551
N  N48  1  0.50284000  0.06127000  0.95802000  1.0 -0.3761556551
N  N49  1  0.17626000  0.18117000  0.46171000  1.0 -0.4029672522
N  N50  1  0.32374000  0.81883000  0.96171000  1.0 -0.4088578912
N  N51  1  0.82374000  0.68117000  0.03829000  1.0 -0.4029672522
N  N52  1  0.67626000  0.31883000  0.53829000  1.0 -0.4029672522
N  N53  1  0.46328000  0.28484000  0.48224000  1.0 -0.4029672522
N  N54  1  0.03672000  0.71516000  0.98224000  1.0 -0.4029672522
N  N55  1  0.53672000  0.78484000  0.01776000  1.0 -0.4029672522
N  N56  1  0.96328000  0.21516000  0.51776000  1.0 -0.4029672522
N  N57  1  0.35218000  0.17803000  0.45721000  1.0 -0.3595454691
N  N58  1  0.14782000  0.82197000  0.95721000  1.0 -0.3512222305
N  N59  1  0.64782000  0.67803000  0.04279000  1.0 -0.3595454691
N  N60  1  0.85218000  0.32197000  0.54279000  1.0 -0.3595454691
N  N61  1  0.94005000  0.82456000  0.08281000  1.0 -0.4271622107
N  N62  1  0.55995000  0.17544000  0.58281000  1.0 -0.4271622107
N  N63  1  0.05995000  0.32456000  0.41719000  1.0 -0.4271622107
N  N64  1  0.44005000  0.67544000  0.91719000  1.0 -0.4271622107
N  N65  1  0.86413000  0.07337000  0.06968000  1.0 -0.4195428297
N  N66  1  0.63587000  0.92663000  0.56968000  1.0 -0.4195428297
N  N67  1  0.13587000  0.57337000  0.43032000  1.0 -0.4195428297
N  N68  1  0.36413000  0.42663000  0.93032000  1.0 -0.4271622107
N  N69  1  0.83540000  0.93701000  0.09688000  1.0 -0.3715331908
N  N70  1  0.66460000  0.06299000  0.59688000  1.0 -0.3715331908
N  N71  1  0.16460000  0.43701000  0.40312000  1.0 -0.3715331908
N  N72  1  0.33540000  0.56299000  0.90312000  1.0 -0.3715331908
