# DDEC6 charges by PACMAN v1.1 (https://github.com/mtap-research/PACMAN-charge/)
data_QILBUK_ASR_pacman
_symmetry_space_group_name_H-M   'P 1'
_cell_length_a   21.37240000
_cell_length_b   21.37240000
_cell_length_c   38.71020000
_cell_angle_alpha   84.58950000
_cell_angle_beta   95.41050000
_cell_angle_gamma   61.67880000
_symmetry_Int_Tables_number   1
_chemical_formula_structural   Zn4H61C91(NO3)4
_chemical_formula_sum   'Zn16 H244 C364 N16 O48'
_cell_volume   15299.94999405
_cell_formula_units_Z   4
loop_
 _symmetry_equiv_pos_site_id
 _symmetry_equiv_pos_as_xyz
  1  'x, y, z'
loop_
 _atom_site_type_symbol
 _atom_site_label
 _atom_site_symmetry_multiplicity
 _atom_site_fract_x
 _atom_site_fract_y
 _atom_site_fract_z
 _atom_site_occupancy
 _atom_site_charge
Zn  Zn1  1  0.32982000  0.59082000  0.53160000  1.0 0.8115828538
Zn  Zn2  1  0.40918000  0.67018000  0.03160000  1.0 0.8115828538
Zn  Zn3  1  0.28625000  0.53751000  0.61523000  1.0 0.5384925687
Zn  Zn4  1  0.46249000  0.71375000  0.11523000  1.0 0.5384925687
Zn  Zn5  1  0.25612000  0.57154000  0.71153000  1.0 0.8152434611
Zn  Zn6  1  0.42846000  0.74388000  0.21153000  1.0 0.8152434611
Zn  Zn7  1  0.31010000  0.53890000  0.61820000  1.0 0.5508088999
Zn  Zn8  1  0.46110000  0.68990000  0.11820000  1.0 0.5508088999
Zn  Zn9  1  0.59082000  0.32982000  0.96840000  1.0 0.8115828538
Zn  Zn10  1  0.67018000  0.40918000  0.46840000  1.0 0.8115828538
Zn  Zn11  1  0.53751000  0.28625000  0.88477000  1.0 0.5384925687
Zn  Zn12  1  0.71375000  0.46249000  0.38477000  1.0 0.5384925687
Zn  Zn13  1  0.57154000  0.25612000  0.78847000  1.0 0.8115828538
Zn  Zn14  1  0.74388000  0.42846000  0.28847000  1.0 0.8152434611
Zn  Zn15  1  0.53890000  0.31010000  0.88180000  1.0 0.5508088999
Zn  Zn16  1  0.68990000  0.46110000  0.38180000  1.0 0.5508088999
H  H1  1  0.02430000  0.59690000  0.73020000  1.0 0.1106041345
H  H2  1  0.40310000  0.97570000  0.23020000  1.0 0.1106041345
H  H3  1  0.29070000  0.53410000  0.41110000  1.0 0.1285491959
H  H4  1  0.46590000  0.70930000  0.91110000  1.0 0.1285491959
H  H5  1  0.90950000  0.81130000  0.66160000  1.0 0.1106041345
H  H6  1  0.18870000  0.09050000  0.16160000  1.0 0.1106041345
H  H7  1  0.48320000  0.91720000  0.70490000  1.0 0.1285491959
H  H8  1  0.08280000  0.51680000  0.20490000  1.0 0.1285491959
H  H9  1  0.37650000  0.54690000  0.33570000  1.0 0.0869860285
H  H10  1  0.45310000  0.62350000  0.83570000  1.0 0.0869860285
H  H11  1  0.38450000  0.46510000  0.37990000  1.0 0.1285491959
H  H12  1  0.53490000  0.61550000  0.87990000  1.0 0.1285491959
H  H13  1  0.46310000  0.44930000  0.39240000  1.0 0.1285491959
H  H14  1  0.55070000  0.53690000  0.89240000  1.0 0.1285491959
H  H15  1  0.43070000  0.60710000  0.37780000  1.0 0.1197368152
H  H16  1  0.39290000  0.56930000  0.87780000  1.0 0.1197368152
H  H17  1  0.49790000  0.54050000  0.36890000  1.0 0.1285491959
H  H18  1  0.45950000  0.50210000  0.86890000  1.0 0.1285491959
H  H19  1  0.52250000  0.54290000  0.30900000  1.0 0.1395691778
H  H20  1  0.45710000  0.47750000  0.80900000  1.0 0.1395691778
H  H21  1  0.41560000  0.75220000  0.71460000  1.0 0.1106041345
H  H22  1  0.24780000  0.58440000  0.21460000  1.0 0.1106041345
H  H23  1  0.54590000  0.74690000  0.63230000  1.0 0.1029432299
H  H24  1  0.25310000  0.45410000  0.13230000  1.0 0.1029432299
H  H25  1  0.48020000  0.51800000  0.43890000  1.0 0.1395691778
H  H26  1  0.48200000  0.51980000  0.93890000  1.0 0.1395691778
H  H27  1  0.36150000  0.68310000  0.71420000  1.0 0.1285491959
H  H28  1  0.31690000  0.63850000  0.21420000  1.0 0.1285491959
H  H29  1  0.03000000  0.74940000  0.67170000  1.0 0.1197368152
H  H30  1  0.25060000  0.97000000  0.17170000  1.0 0.1197368152
H  H31  1  0.70980000  0.79080000  0.58100000  1.0 0.1285491959
H  H32  1  0.20920000  0.29020000  0.08100000  1.0 0.1285491959
H  H33  1  0.78890000  0.73410000  0.72030000  1.0 0.1106041345
H  H34  1  0.26590000  0.21110000  0.22030000  1.0 0.1106041345
H  H35  1  0.50880000  0.60360000  0.25560000  1.0 0.1029432299
H  H36  1  0.39640000  0.49120000  0.75560000  1.0 0.1029432299
H  H37  1  0.67750000  0.94710000  0.64750000  1.0 0.1197368152
H  H38  1  0.05290000  0.32250000  0.14750000  1.0 0.1197368152
H  H39  1  0.59140000  0.82640000  0.62980000  1.0 0.1106041345
H  H40  1  0.17360000  0.40860000  0.12980000  1.0 0.1106041345
H  H41  1  0.26040000  0.57420000  0.46420000  1.0 0.1106041345
H  H42  1  0.42580000  0.73960000  0.96420000  1.0 0.1106041345
H  H43  1  0.40250000  0.33590000  0.72830000  1.0 0.1197368152
H  H44  1  0.66410000  0.59750000  0.22830000  1.0 0.1197368152
H  H45  1  0.46590000  0.21690000  0.72500000  1.0 0.1285491959
H  H46  1  0.78310000  0.53410000  0.22500000  1.0 0.1285491959
H  H47  1  0.90080000  0.66020000  0.72400000  1.0 0.1106041345
H  H48  1  0.33980000  0.09920000  0.22400000  1.0 0.1106041345
H  H49  1  0.36650000  0.71630000  0.33190000  1.0 0.1395691778
H  H50  1  0.28370000  0.63350000  0.83190000  1.0 0.1395691778
H  H51  1  0.66680000  0.79620000  0.70810000  1.0 0.1197368152
H  H52  1  0.20380000  0.33320000  0.20810000  1.0 0.1197368152
H  H53  1  0.38640000  0.13400000  0.64270000  1.0 0.1106041345
H  H54  1  0.86600000  0.61360000  0.14270000  1.0 0.1106041345
H  H55  1  0.55250000  0.12430000  0.70440000  1.0 0.1197368152
H  H56  1  0.87570000  0.44750000  0.20440000  1.0 0.1197368152
H  H57  1  0.36280000  0.77640000  0.28010000  1.0 0.1106041345
H  H58  1  0.22360000  0.63720000  0.78010000  1.0 0.1106041345
H  H59  1  0.61410000  0.99970000  0.70560000  1.0 0.1197368152
H  H60  1  0.00030000  0.38590000  0.20560000  1.0 0.1197368152
H  H61  1  0.79720000  0.88600000  0.65820000  1.0 0.1029432299
H  H62  1  0.11400000  0.20280000  0.15820000  1.0 0.1029432299
H  H63  1  0.44990000  0.01510000  0.63970000  1.0 0.1197368152
H  H64  1  0.98490000  0.55010000  0.13970000  1.0 0.1197368152
H  H65  1  0.35550000  0.25350000  0.62940000  1.0 0.1106041345
H  H66  1  0.74650000  0.64450000  0.12940000  1.0 0.1106041345
H  H67  1  0.34060000  0.81500000  0.54090000  1.0 0.1197368152
H  H68  1  0.18500000  0.65940000  0.04090000  1.0 0.1197368152
H  H69  1  0.64260000  0.73300000  0.57720000  1.0 0.1106041345
H  H70  1  0.26700000  0.35740000  0.07720000  1.0 0.1106041345
H  H71  1  0.00960000  0.76880000  0.60540000  1.0 0.1106041345
H  H72  1  0.23120000  0.99040000  0.10540000  1.0 0.1106041345
H  H73  1  0.29860000  0.37480000  0.63110000  1.0 0.1197368152
H  H74  1  0.62520000  0.70140000  0.13110000  1.0 0.1197368152
H  H75  1  0.44300000  0.56320000  0.48760000  1.0 0.1029432299
H  H76  1  0.43680000  0.55700000  0.98760000  1.0 0.1029432299
H  H77  1  0.47540000  0.91240000  0.52610000  1.0 0.1106041345
H  H78  1  0.08760000  0.52460000  0.02610000  1.0 0.1106041345
H  H79  1  0.46830000  0.70870000  0.62040000  1.0 0.1029432299
H  H80  1  0.29130000  0.53170000  0.12040000  1.0 0.1029432299
H  H81  1  0.42780000  0.84800000  0.70290000  1.0 0.1029432299
H  H82  1  0.15200000  0.57220000  0.20290000  1.0 0.1029432299
H  H83  1  0.58810000  0.67730000  0.55460000  1.0 0.1106041345
H  H84  1  0.32270000  0.41190000  0.05460000  1.0 0.1106041345
H  H85  1  0.74750000  0.82690000  0.51830000  1.0 0.1285491959
H  H86  1  0.17310000  0.25250000  0.01830000  1.0 0.1285491959
H  H87  1  0.63590000  0.14590000  0.53260000  1.0 0.1106041345
H  H88  1  0.85410000  0.36410000  0.03260000  1.0 0.1106041345
H  H89  1  0.68990000  0.02690000  0.52590000  1.0 0.1197368152
H  H90  1  0.97310000  0.31010000  0.02590000  1.0 0.1197368152
H  H91  1  0.90030000  0.87010000  0.59280000  1.0 0.1106041345
H  H92  1  0.12990000  0.09970000  0.09280000  1.0 0.1106041345
H  H93  1  0.53300000  0.20900000  0.62340000  1.0 0.1106041345
H  H94  1  0.79100000  0.46700000  0.12340000  1.0 0.1106041345
H  H95  1  0.09350000  0.69850000  0.50370000  1.0 0.1285491959
H  H96  1  0.30150000  0.90650000  0.00370000  1.0 0.1285491959
H  H97  1  0.52730000  0.11010000  0.60320000  1.0 0.1029432299
H  H98  1  0.88990000  0.47270000  0.10320000  1.0 0.1029432299
H  H99  1  0.41720000  0.63600000  0.62140000  1.0 0.1197368152
H  H100  1  0.36400000  0.58280000  0.12140000  1.0 0.1197368152
H  H101  1  0.52690000  0.25690000  0.51960000  1.0 0.1029432299
H  H102  1  0.74310000  0.47310000  0.01960000  1.0 0.1029432299
H  H103  1  0.41030000  0.86950000  0.54570000  1.0 0.1106041345
H  H104  1  0.13050000  0.58970000  0.04570000  1.0 0.1106041345
H  H105  1  0.51560000  0.62500000  0.55060000  1.0 0.1106041345
H  H106  1  0.37500000  0.48440000  0.05060000  1.0 0.1106041345
H  H107  1  0.54420000  0.97020000  0.52720000  1.0 0.1197368152
H  H108  1  0.02980000  0.45580000  0.02720000  1.0 0.1197368152
H  H109  1  0.86980000  0.76440000  0.51890000  1.0 0.1106041345
H  H110  1  0.23560000  0.13020000  0.01890000  1.0 0.1106041345
H  H111  1  0.57910000  0.99090000  0.59600000  1.0 0.1106041345
H  H112  1  0.00910000  0.42090000  0.09600000  1.0 0.1106041345
H  H113  1  0.13140000  0.69720000  0.60760000  1.0 0.1197368152
H  H114  1  0.30280000  0.86860000  0.10760000  1.0 0.1197368152
H  H115  1  0.78010000  0.92850000  0.59420000  1.0 0.1197368152
H  H116  1  0.07150000  0.21990000  0.09420000  1.0 0.1197368152
H  H117  1  0.45940000  0.37800000  0.52360000  1.0 0.1106041345
H  H118  1  0.62200000  0.54060000  0.02360000  1.0 0.1106041345
H  H119  1  0.45990000  0.32830000  0.62540000  1.0 0.1106041345
H  H120  1  0.67170000  0.54010000  0.12540000  1.0 0.1106041345
H  H121  1  0.97280000  0.75680000  0.50500000  1.0 0.1106041345
H  H122  1  0.24320000  0.02720000  0.00500000  1.0 0.1106041345
H  H123  1  0.59690000  0.02430000  0.76980000  1.0 0.1106041345
H  H124  1  0.97570000  0.40310000  0.26980000  1.0 0.1106041345
H  H125  1  0.53410000  0.29070000  0.08890000  1.0 0.1285491959
H  H126  1  0.70930000  0.46590000  0.58890000  1.0 0.1285491959
H  H127  1  0.81130000  0.90950000  0.83840000  1.0 0.1106041345
H  H128  1  0.09050000  0.18870000  0.33840000  1.0 0.1106041345
H  H129  1  0.91720000  0.48320000  0.79510000  1.0 0.1285491959
H  H130  1  0.51680000  0.08280000  0.29510000  1.0 0.1285491959
H  H131  1  0.54690000  0.37650000  0.16430000  1.0 0.0869860285
H  H132  1  0.62350000  0.45310000  0.66430000  1.0 0.0869860285
H  H133  1  0.46510000  0.38450000  0.12010000  1.0 0.1285491959
H  H134  1  0.61550000  0.53490000  0.62010000  1.0 0.1285491959
H  H135  1  0.44930000  0.46310000  0.10760000  1.0 0.1285491959
H  H136  1  0.53690000  0.55070000  0.60760000  1.0 0.1285491959
H  H137  1  0.60710000  0.43070000  0.12220000  1.0 0.1197368152
H  H138  1  0.56930000  0.39290000  0.62220000  1.0 0.1197368152
H  H139  1  0.54050000  0.49790000  0.13110000  1.0 0.1285491959
H  H140  1  0.50210000  0.45950000  0.63110000  1.0 0.1285491959
H  H141  1  0.54290000  0.52250000  0.19100000  1.0 0.1395691778
H  H142  1  0.47750000  0.45710000  0.69100000  1.0 0.1395691778
H  H143  1  0.75220000  0.41560000  0.78540000  1.0 0.1106041345
H  H144  1  0.58440000  0.24780000  0.28540000  1.0 0.1106041345
H  H145  1  0.74690000  0.54590000  0.86770000  1.0 0.1029432299
H  H146  1  0.45410000  0.25310000  0.36770000  1.0 0.1029432299
H  H147  1  0.51800000  0.48020000  0.06110000  1.0 0.1395691778
H  H148  1  0.51980000  0.48200000  0.56110000  1.0 0.1395691778
H  H149  1  0.68310000  0.36150000  0.78580000  1.0 0.1285491959
H  H150  1  0.63850000  0.31690000  0.28580000  1.0 0.1285491959
H  H151  1  0.74940000  0.03000000  0.82830000  1.0 0.1197368152
H  H152  1  0.97000000  0.25060000  0.32830000  1.0 0.1197368152
H  H153  1  0.79080000  0.70980000  0.91900000  1.0 0.1285491959
H  H154  1  0.29020000  0.20920000  0.41900000  1.0 0.1285491959
H  H155  1  0.73410000  0.78890000  0.77970000  1.0 0.1106041345
H  H156  1  0.21110000  0.26590000  0.27970000  1.0 0.1106041345
H  H157  1  0.60360000  0.50880000  0.24440000  1.0 0.1029432299
H  H158  1  0.49120000  0.39640000  0.74440000  1.0 0.1029432299
H  H159  1  0.94710000  0.67750000  0.85250000  1.0 0.1197368152
H  H160  1  0.32250000  0.05290000  0.35250000  1.0 0.1197368152
H  H161  1  0.82640000  0.59140000  0.87020000  1.0 0.1106041345
H  H162  1  0.40860000  0.17360000  0.37020000  1.0 0.1106041345
H  H163  1  0.57420000  0.26040000  0.03580000  1.0 0.1106041345
H  H164  1  0.73960000  0.42580000  0.53580000  1.0 0.1106041345
H  H165  1  0.33590000  0.40250000  0.77170000  1.0 0.1197368152
H  H166  1  0.59750000  0.66410000  0.27170000  1.0 0.1197368152
H  H167  1  0.21690000  0.46590000  0.77500000  1.0 0.1285491959
H  H168  1  0.53410000  0.78310000  0.27500000  1.0 0.1285491959
H  H169  1  0.66020000  0.90080000  0.77600000  1.0 0.1106041345
H  H170  1  0.09920000  0.33980000  0.27600000  1.0 0.1106041345
H  H171  1  0.71630000  0.36650000  0.16810000  1.0 0.1395691778
H  H172  1  0.63350000  0.28370000  0.66810000  1.0 0.1395691778
H  H173  1  0.79620000  0.66680000  0.79190000  1.0 0.1197368152
H  H174  1  0.33320000  0.20380000  0.29190000  1.0 0.1197368152
H  H175  1  0.13400000  0.38640000  0.85730000  1.0 0.1106041345
H  H176  1  0.61360000  0.86600000  0.35730000  1.0 0.1106041345
H  H177  1  0.12430000  0.55250000  0.79560000  1.0 0.1197368152
H  H178  1  0.44750000  0.87570000  0.29560000  1.0 0.1197368152
H  H179  1  0.77640000  0.36280000  0.21990000  1.0 0.1106041345
H  H180  1  0.63720000  0.22360000  0.71990000  1.0 0.1106041345
H  H181  1  0.99970000  0.61410000  0.79440000  1.0 0.1197368152
H  H182  1  0.38590000  0.00030000  0.29440000  1.0 0.1197368152
H  H183  1  0.88600000  0.79720000  0.84180000  1.0 0.1029432299
H  H184  1  0.20280000  0.11400000  0.34180000  1.0 0.1029432299
H  H185  1  0.01510000  0.44990000  0.86030000  1.0 0.1197368152
H  H186  1  0.55010000  0.98490000  0.36030000  1.0 0.1197368152
H  H187  1  0.25350000  0.35550000  0.87060000  1.0 0.1106041345
H  H188  1  0.64450000  0.74650000  0.37060000  1.0 0.1106041345
H  H189  1  0.81500000  0.34060000  0.95910000  1.0 0.1197368152
H  H190  1  0.65940000  0.18500000  0.45910000  1.0 0.1197368152
H  H191  1  0.73300000  0.64260000  0.92280000  1.0 0.1106041345
H  H192  1  0.35740000  0.26700000  0.42280000  1.0 0.1106041345
H  H193  1  0.76880000  0.00960000  0.89460000  1.0 0.1106041345
H  H194  1  0.99040000  0.23120000  0.39460000  1.0 0.1106041345
H  H195  1  0.37480000  0.29860000  0.86890000  1.0 0.1197368152
H  H196  1  0.70140000  0.62520000  0.36890000  1.0 0.1197368152
H  H197  1  0.56320000  0.44300000  0.01240000  1.0 0.1029432299
H  H198  1  0.55700000  0.43680000  0.51240000  1.0 0.1029432299
H  H199  1  0.91240000  0.47540000  0.97390000  1.0 0.1106041345
H  H200  1  0.52460000  0.08760000  0.47390000  1.0 0.1106041345
H  H201  1  0.70870000  0.46830000  0.87960000  1.0 0.1029432299
H  H202  1  0.53170000  0.29130000  0.37960000  1.0 0.1029432299
H  H203  1  0.84800000  0.42780000  0.79710000  1.0 0.1029432299
H  H204  1  0.57220000  0.15200000  0.29710000  1.0 0.1029432299
H  H205  1  0.67730000  0.58810000  0.94540000  1.0 0.1106041345
H  H206  1  0.41190000  0.32270000  0.44540000  1.0 0.1106041345
H  H207  1  0.82690000  0.74750000  0.98170000  1.0 0.1285491959
H  H208  1  0.25250000  0.17310000  0.48170000  1.0 0.1285491959
H  H209  1  0.14590000  0.63590000  0.96740000  1.0 0.1106041345
H  H210  1  0.36410000  0.85410000  0.46740000  1.0 0.1106041345
H  H211  1  0.02690000  0.68990000  0.97410000  1.0 0.1197368152
H  H212  1  0.31010000  0.97310000  0.47410000  1.0 0.1197368152
H  H213  1  0.87010000  0.90030000  0.90720000  1.0 0.1106041345
H  H214  1  0.09970000  0.12990000  0.40720000  1.0 0.1106041345
H  H215  1  0.20900000  0.53300000  0.87660000  1.0 0.1106041345
H  H216  1  0.46700000  0.79100000  0.37660000  1.0 0.1106041345
H  H217  1  0.69850000  0.09350000  0.99630000  1.0 0.1285491959
H  H218  1  0.90650000  0.30150000  0.49630000  1.0 0.1285491959
H  H219  1  0.11010000  0.52730000  0.89680000  1.0 0.1029432299
H  H220  1  0.47270000  0.88990000  0.39680000  1.0 0.1029432299
H  H221  1  0.63600000  0.41720000  0.87860000  1.0 0.1197368152
H  H222  1  0.58280000  0.36400000  0.37860000  1.0 0.1197368152
H  H223  1  0.25690000  0.52690000  0.98040000  1.0 0.1029432299
H  H224  1  0.47310000  0.74310000  0.48040000  1.0 0.1029432299
H  H225  1  0.86950000  0.41030000  0.95430000  1.0 0.1106041345
H  H226  1  0.58970000  0.13050000  0.45430000  1.0 0.1106041345
H  H227  1  0.62500000  0.51560000  0.94940000  1.0 0.1106041345
H  H228  1  0.48440000  0.37500000  0.44940000  1.0 0.1106041345
H  H229  1  0.97020000  0.54420000  0.97280000  1.0 0.1197368152
H  H230  1  0.45580000  0.02980000  0.47280000  1.0 0.1197368152
H  H231  1  0.76440000  0.86980000  0.98110000  1.0 0.1106041345
H  H232  1  0.13020000  0.23560000  0.48110000  1.0 0.1106041345
H  H233  1  0.99090000  0.57910000  0.90400000  1.0 0.1106041345
H  H234  1  0.42090000  0.00910000  0.40400000  1.0 0.1106041345
H  H235  1  0.69720000  0.13140000  0.89240000  1.0 0.1197368152
H  H236  1  0.86860000  0.30280000  0.39240000  1.0 0.1197368152
H  H237  1  0.92850000  0.78010000  0.90580000  1.0 0.1197368152
H  H238  1  0.21990000  0.07150000  0.40580000  1.0 0.1197368152
H  H239  1  0.37800000  0.45940000  0.97640000  1.0 0.1106041345
H  H240  1  0.54060000  0.62200000  0.47640000  1.0 0.1106041345
H  H241  1  0.32830000  0.45990000  0.87460000  1.0 0.1106041345
H  H242  1  0.54010000  0.67170000  0.37460000  1.0 0.1106041345
H  H243  1  0.75680000  0.97280000  0.99500000  1.0 0.1106041345
H  H244  1  0.02720000  0.24320000  0.49500000  1.0 0.1106041345
C  C1  1  0.00020000  0.64380000  0.71810000  1.0 -0.1224296134
C  C2  1  0.35620000  0.99980000  0.21810000  1.0 -0.1224296134
C  C3  1  0.32370000  0.53850000  0.42680000  1.0 -0.2100461511
C  C4  1  0.46150000  0.67630000  0.92680000  1.0 -0.2192107963
C  C5  1  0.93130000  0.77050000  0.67870000  1.0 -0.1563470337
C  C6  1  0.22950000  0.06870000  0.17870000  1.0 -0.1563470337
C  C7  1  0.49490000  0.88410000  0.68940000  1.0 -0.1822646054
C  C8  1  0.11590000  0.50510000  0.18940000  1.0 -0.1822646054
C  C9  1  0.40650000  0.53850000  0.35664000  1.0 -0.069679496
C  C10  1  0.46150000  0.59350000  0.85664000  1.0 -0.069679496
C  C11  1  0.41340000  0.48720000  0.38670000  1.0 -0.2663653373
C  C12  1  0.51280000  0.58660000  0.88670000  1.0 -0.2663653373
C  C13  1  0.39010000  0.52030000  0.41970000  1.0 0.1601306861
C  C14  1  0.47970000  0.60990000  0.91970000  1.0 0.1601306861
C  C15  1  0.44790000  0.57570000  0.36035000  1.0 -0.2663653373
C  C16  1  0.42430000  0.55210000  0.86035000  1.0 -0.2663653373
C  C17  1  0.48620000  0.59060000  0.30320000  1.0 -0.2100461511
C  C18  1  0.40940000  0.51380000  0.80320000  1.0 -0.2100461511
C  C19  1  0.41450000  0.73070000  0.69500000  1.0 -0.149870356
C  C20  1  0.26930000  0.58550000  0.19500000  1.0 -0.149870356
C  C21  1  0.53080000  0.78280000  0.64630000  1.0 -0.1398587796
C  C22  1  0.21720000  0.46920000  0.14630000  1.0 -0.1398587796
C  C23  1  0.43390000  0.52990000  0.44290000  1.0 -0.188419013
C  C24  1  0.47010000  0.56610000  0.94290000  1.0 -0.188419013
C  C25  1  0.38190000  0.68930000  0.69490000  1.0 -0.101264783
C  C26  1  0.31070000  0.61810000  0.19490000  1.0 -0.101264783
C  C27  1  0.04040000  0.67240000  0.70435000  1.0 -0.0228542378
C  C28  1  0.32760000  0.95960000  0.20435000  1.0 -0.0228542378
C  C29  1  0.00500000  0.73140000  0.68390000  1.0 -0.101264783
C  C30  1  0.26860000  0.99500000  0.18390000  1.0 -0.101264783
C  C31  1  0.66246000  0.81626000  0.56960000  1.0 -0.188419013
C  C32  1  0.18374000  0.33754000  0.06960000  1.0 -0.188419013
C  C33  1  0.76730000  0.77690000  0.70450000  1.0 -0.1398587796
C  C34  1  0.22310000  0.23270000  0.20450000  1.0 -0.1398587796
C  C35  1  0.47860000  0.62800000  0.27120000  1.0 0.0519163591
C  C36  1  0.37200000  0.52140000  0.77120000  1.0 0.0519163591
C  C37  1  0.70010000  0.90330000  0.66260000  1.0 -0.1717131368
C  C38  1  0.09670000  0.29990000  0.16260000  1.0 -0.1717131368
C  C39  1  0.65850000  0.87970000  0.67780000  1.0 0.1475292825
C  C40  1  0.12030000  0.34150000  0.17780000  1.0 0.1475292825
C  C41  1  0.56020000  0.82920000  0.64560000  1.0 -0.1822646054
C  C42  1  0.17080000  0.43980000  0.14560000  1.0 -0.1822646054
C  C43  1  0.47960000  0.78940000  0.66751000  1.0 0.0519163591
C  C44  1  0.21060000  0.52040000  0.16751000  1.0 0.0519163591
C  C45  1  0.30536000  0.56416000  0.45880000  1.0 0.1029432299
C  C46  1  0.43584000  0.69464000  0.95880000  1.0 0.1029432299
C  C47  1  0.37478000  0.67898000  0.54004000  1.0 0.5384925687
C  C48  1  0.32102000  0.62522000  0.04004000  1.0 0.5384925687
C  C49  1  0.88900000  0.75500000  0.69583000  1.0 0.0803422055
C  C50  1  0.24500000  0.11100000  0.19583000  1.0 0.0803422055
C  C51  1  0.39408000  0.31968000  0.70788000  1.0 -0.0904755323
C  C52  1  0.68032000  0.60592000  0.20788000  1.0 -0.0904755323
C  C53  1  0.43141000  0.24821000  0.70605000  1.0 -0.1398587796
C  C54  1  0.75179000  0.56859000  0.20605000  1.0 -0.1398587796
C  C55  1  0.92620000  0.68120000  0.71460000  1.0 -0.1717131368
C  C56  1  0.31880000  0.07380000  0.21460000  1.0 -0.1717131368
C  C57  1  0.12040000  0.62660000  0.70990000  1.0 0.5307004236
C  C58  1  0.37340000  0.87960000  0.20990000  1.0 0.5307004236
C  C59  1  0.39690000  0.69130000  0.31660000  1.0 -0.2192107963
C  C60  1  0.30870000  0.60310000  0.81660000  1.0 -0.2192107963
C  C61  1  0.69320000  0.81540000  0.69810000  1.0 -0.1822646054
C  C62  1  0.18460000  0.30680000  0.19810000  1.0 -0.1822646054
C  C63  1  0.44346000  0.62046000  0.32607000  1.0 0.1601306861
C  C64  1  0.37954000  0.55654000  0.82607000  1.0 0.1601306861
C  C65  1  0.43306000  0.10726000  0.65489000  1.0 -0.1224296134
C  C66  1  0.89274000  0.56694000  0.15489000  1.0 -0.1224296134
C  C67  1  0.53130000  0.10190000  0.69220000  1.0 -0.1296128883
C  C68  1  0.89810000  0.46870000  0.19220000  1.0 -0.1296128883
C  C69  1  0.39380000  0.72700000  0.28490000  1.0 0.0711370201
C  C70  1  0.27300000  0.60620000  0.78490000  1.0 0.0711370201
C  C71  1  0.56920000  0.02720000  0.69170000  1.0 -0.188419013
C  C72  1  0.97280000  0.43080000  0.19170000  1.0 -0.188419013
C  C73  1  0.80960000  0.79720000  0.68967000  1.0 0.0711370201
C  C74  1  0.20280000  0.19040000  0.18967000  1.0 0.0711370201
C  C75  1  0.77130000  0.86630000  0.66840000  1.0 -0.149870356
C  C76  1  0.13370000  0.22870000  0.16840000  1.0 -0.149870356
C  C77  1  0.44660000  0.74240000  0.66709000  1.0 0.0803422055
C  C78  1  0.25760000  0.55340000  0.16709000  1.0 0.0803422055
C  C79  1  0.47073000  0.03633000  0.65300000  1.0 -0.188419013
C  C80  1  0.96367000  0.52927000  0.15300000  1.0 -0.1822646054
C  C81  1  0.55177000  0.81717000  0.55112000  1.0 0.0519163591
C  C82  1  0.18283000  0.44823000  0.05112000  1.0 0.0519163591
C  C83  1  0.36690000  0.27010000  0.64912000  1.0 -0.149870356
C  C84  1  0.72990000  0.63310000  0.14912000  1.0 -0.149870356
C  C85  1  0.39047000  0.78747000  0.54363000  1.0 -0.101264783
C  C86  1  0.21253000  0.60953000  0.04363000  1.0 -0.101264783
C  C87  1  0.62187000  0.78127000  0.56740000  1.0 -0.1398587796
C  C88  1  0.21873000  0.37813000  0.06740000  1.0 -0.1398587796
C  C89  1  0.54238000  0.99398000  0.67133000  1.0 0.1788282738
C  C90  1  0.00602000  0.45762000  0.17133000  1.0 0.1788282738
C  C91  1  0.02672000  0.75152000  0.58512000  1.0 -0.1563470337
C  C92  1  0.24848000  0.97328000  0.08512000  1.0 -0.1563470337
C  C93  1  0.33131000  0.34291000  0.65037000  1.0 -0.1107852152
C  C94  1  0.65709000  0.66869000  0.15037000  1.0 -0.1107852152
C  C95  1  0.41120000  0.55680000  0.47223000  1.0 0.0398621568
C  C96  1  0.44320000  0.58880000  0.97223000  1.0 0.0398621568
C  C97  1  0.52317000  0.88717000  0.53686000  1.0 -0.149870356
C  C98  1  0.11283000  0.47683000  0.03686000  1.0 -0.149870356
C  C99  1  0.44630000  0.70470000  0.63951000  1.0 -0.149870356
C  C100  1  0.29530000  0.55370000  0.13951000  1.0 -0.1398587796
C  C101  1  0.46240000  0.84120000  0.68860000  1.0 -0.1296128883
C  C102  1  0.15880000  0.53760000  0.18860000  1.0 -0.1296128883
C  C103  1  0.53833000  0.70593000  0.55180000  1.0 -0.1717131368
C  C104  1  0.29407000  0.46167000  0.05180000  1.0 -0.1717131368
C  C105  1  0.50780000  0.78040000  0.55009000  1.0 0.0711370201
C  C106  1  0.21960000  0.49220000  0.05009000  1.0 0.0711370201
C  C107  1  0.77816000  0.83536000  0.53340000  1.0 -0.1822646054
C  C108  1  0.16464000  0.22184000  0.03340000  1.0 -0.1822646054
C  C109  1  0.42144000  0.71604000  0.54486000  1.0 -0.0228542378
C  C110  1  0.28396000  0.57856000  0.04486000  1.0 -0.0228542378
C  C111  1  0.62458000  0.11478000  0.54542000  1.0 -0.1296128883
C  C112  1  0.88522000  0.37542000  0.04542000  1.0 -0.1296128883
C  C113  1  0.64109000  0.99529000  0.56058000  1.0 0.1601306861
C  C114  1  0.00471000  0.35891000  0.06058000  1.0 0.1601306861
C  C115  1  0.37904000  0.65664000  0.66639000  1.0 -0.0315993987
C  C116  1  0.34336000  0.62096000  0.16639000  1.0 -0.0315993987
C  C117  1  0.41927000  0.22067000  0.67626000  1.0 0.0711370201
C  C118  1  0.77933000  0.58073000  0.17626000  1.0 0.0711370201
C  C119  1  0.54285000  0.87885000  0.66820000  1.0 0.1601306861
C  C120  1  0.12115000  0.45715000  0.16820000  1.0 0.1601306861
C  C121  1  0.65710000  0.04330000  0.54144000  1.0 -0.188419013
C  C122  1  0.95670000  0.34290000  0.04144000  1.0 -0.188419013
C  C123  1  0.87014000  0.86034000  0.57804000  1.0 -0.1296128883
C  C124  1  0.13966000  0.12986000  0.07804000  1.0 -0.1296128883
C  C125  1  0.46110000  0.14130000  0.67417000  1.0 0.0398621568
C  C126  1  0.85870000  0.53890000  0.17417000  1.0 0.0398621568
C  C127  1  0.51621000  0.24221000  0.60284000  1.0 -0.149870356
C  C128  1  0.75779000  0.48379000  0.10284000  1.0 -0.149870356
C  C129  1  0.07703000  0.70983000  0.52490000  1.0 -0.0904755323
C  C130  1  0.29017000  0.92297000  0.02490000  1.0 -0.0904755323
C  C131  1  0.55959000  0.09359000  0.58739000  1.0 -0.1398587796
C  C132  1  0.90641000  0.44041000  0.08739000  1.0 -0.1398587796
C  C133  1  0.41447000  0.66187000  0.63978000  1.0 -0.101264783
C  C134  1  0.33813000  0.58553000  0.13978000  1.0 -0.101264783
C  C135  1  0.51345000  0.27085000  0.54100000  1.0 -0.149870356
C  C136  1  0.72915000  0.48655000  0.04100000  1.0 -0.149870356
C  C137  1  0.43238000  0.81998000  0.54633000  1.0 -0.1717131368
C  C138  1  0.18002000  0.56762000  0.04633000  1.0 -0.1717131368
C  C139  1  0.49483000  0.67463000  0.54927000  1.0 -0.1224296134
C  C140  1  0.32537000  0.50517000  0.04927000  1.0 -0.1224296134
C  C141  1  0.34394000  0.36874000  0.68015000  1.0 -0.0397999019
C  C142  1  0.63126000  0.65606000  0.18015000  1.0 -0.0397999019
C  C143  1  0.63487000  0.88687000  0.55532000  1.0 0.1601306861
C  C144  1  0.11313000  0.36513000  0.05532000  1.0 0.1601306861
C  C145  1  0.75097000  0.88517000  0.55560000  1.0 0.1601306861
C  C146  1  0.11483000  0.24903000  0.05560000  1.0 0.1601306861
C  C147  1  0.56444000  0.92264000  0.53805000  1.0 -0.1994365297
C  C148  1  0.07736000  0.43556000  0.03805000  1.0 -0.1994365297
C  C149  1  0.85185000  0.79805000  0.53390000  1.0 -0.1296128883
C  C150  1  0.20195000  0.14815000  0.03390000  1.0 -0.1296128883
C  C151  1  0.59124000  0.02164000  0.58338000  1.0 -0.188419013
C  C152  1  0.97836000  0.40876000  0.08338000  1.0 -0.188419013
C  C153  1  0.53462000  0.21862000  0.57103000  1.0 0.0803422055
C  C154  1  0.78138000  0.46538000  0.07103000  1.0 0.0803422055
C  C155  1  0.39868000  0.44248000  0.57566000  1.0 0.5709639523
C  C156  1  0.55752000  0.60132000  0.07566000  1.0 0.5709639523
C  C157  1  0.10012000  0.71052000  0.58659000  1.0 -0.101264783
C  C158  1  0.28948000  0.89988000  0.08659000  1.0 -0.101264783
C  C159  1  0.90029000  0.80869000  0.55584000  1.0 0.0519163591
C  C160  1  0.19131000  0.09971000  0.05584000  1.0 0.0519163591
C  C161  1  0.79821000  0.89621000  0.57849000  1.0 -0.1822646054
C  C162  1  0.10379000  0.20179000  0.07849000  1.0 -0.1822646054
C  C163  1  0.45021000  0.36501000  0.57465000  1.0 -0.0397999019
C  C164  1  0.63499000  0.54979000  0.07465000  1.0 -0.0397999019
C  C165  1  0.30637000  0.44777000  0.68250000  1.0 0.5709639523
C  C166  1  0.55223000  0.69363000  0.18250000  1.0 0.5709639523
C  C167  1  0.97705000  0.76865000  0.55541000  1.0 0.0711370201
C  C168  1  0.23135000  0.02295000  0.05541000  1.0 0.0711370201
C  C169  1  0.34240000  0.61220000  0.66604000  1.0 0.5508088999
C  C170  1  0.38780000  0.65760000  0.16604000  1.0 0.5508088999
C  C171  1  0.12593000  0.68953000  0.55525000  1.0 -0.0315993987
C  C172  1  0.31047000  0.87407000  0.05525000  1.0 -0.0397999019
C  C173  1  0.57486000  0.14106000  0.56850000  1.0 0.0519163591
C  C174  1  0.85894000  0.42514000  0.06850000  1.0 0.0519163591
C  C175  1  0.47219000  0.34359000  0.54338000  1.0 -0.101264783
C  C176  1  0.65641000  0.52781000  0.04338000  1.0 -0.101264783
C  C177  1  0.47347000  0.31387000  0.60414000  1.0 -0.1107852152
C  C178  1  0.68613000  0.52653000  0.10414000  1.0 -0.1107852152
C  C179  1  0.20527000  0.64547000  0.55480000  1.0 0.5709639523
C  C180  1  0.35453000  0.79473000  0.05480000  1.0 0.5709639523
C  C181  1  0.00453000  0.74653000  0.52553000  1.0 -0.149870356
C  C182  1  0.25347000  0.99547000  0.02553000  1.0 -0.149870356
C  C183  1  0.64380000  0.00020000  0.78190000  1.0 -0.1224296134
C  C184  1  0.99980000  0.35620000  0.28190000  1.0 -0.1224296134
C  C185  1  0.53850000  0.32370000  0.07320000  1.0 -0.2100461511
C  C186  1  0.67630000  0.46150000  0.57320000  1.0 -0.2100461511
C  C187  1  0.77050000  0.93130000  0.82130000  1.0 -0.1563470337
C  C188  1  0.06870000  0.22950000  0.32130000  1.0 -0.1563470337
C  C189  1  0.88410000  0.49490000  0.81060000  1.0 -0.1822646054
C  C190  1  0.50510000  0.11590000  0.31060000  1.0 -0.1822646054
C  C191  1  0.53850000  0.40650000  0.14336000  1.0 -0.069679496
C  C192  1  0.59350000  0.46150000  0.64336000  1.0 -0.069679496
C  C193  1  0.48720000  0.41340000  0.11330000  1.0 -0.2663653373
C  C194  1  0.58660000  0.51280000  0.61330000  1.0 -0.2663653373
C  C195  1  0.52030000  0.39010000  0.08030000  1.0 0.1601306861
C  C196  1  0.60990000  0.47970000  0.58030000  1.0 0.1601306861
C  C197  1  0.57570000  0.44790000  0.13965000  1.0 -0.2663653373
C  C198  1  0.55210000  0.42430000  0.63965000  1.0 -0.2663653373
C  C199  1  0.59060000  0.48620000  0.19680000  1.0 -0.2100461511
C  C200  1  0.51380000  0.40940000  0.69680000  1.0 -0.2100461511
C  C201  1  0.73070000  0.41450000  0.80500000  1.0 -0.149870356
C  C202  1  0.58550000  0.26930000  0.30500000  1.0 -0.149870356
C  C203  1  0.78280000  0.53080000  0.85370000  1.0 -0.1398587796
C  C204  1  0.46920000  0.21720000  0.35370000  1.0 -0.1398587796
C  C205  1  0.52990000  0.43390000  0.05710000  1.0 -0.188419013
C  C206  1  0.56610000  0.47010000  0.55710000  1.0 -0.188419013
C  C207  1  0.68930000  0.38190000  0.80510000  1.0 -0.101264783
C  C208  1  0.61810000  0.31070000  0.30510000  1.0 -0.101264783
C  C209  1  0.67240000  0.04040000  0.79565000  1.0 -0.0228542378
C  C210  1  0.95960000  0.32760000  0.29565000  1.0 -0.0228542378
C  C211  1  0.73140000  0.00500000  0.81610000  1.0 -0.101264783
C  C212  1  0.99500000  0.26860000  0.31610000  1.0 -0.101264783
C  C213  1  0.81626000  0.66246000  0.93040000  1.0 -0.188419013
C  C214  1  0.33754000  0.18374000  0.43040000  1.0 -0.188419013
C  C215  1  0.77690000  0.76730000  0.79550000  1.0 -0.1398587796
C  C216  1  0.23270000  0.22310000  0.29550000  1.0 -0.1398587796
C  C217  1  0.62800000  0.47860000  0.22880000  1.0 0.0519163591
C  C218  1  0.52140000  0.37200000  0.72880000  1.0 0.0519163591
C  C219  1  0.90330000  0.70010000  0.83740000  1.0 -0.1717131368
C  C220  1  0.29990000  0.09670000  0.33740000  1.0 -0.1717131368
C  C221  1  0.87970000  0.65850000  0.82220000  1.0 0.1475292825
C  C222  1  0.34150000  0.12030000  0.32220000  1.0 0.1475292825
C  C223  1  0.82920000  0.56020000  0.85440000  1.0 -0.1822646054
C  C224  1  0.43980000  0.17080000  0.35440000  1.0 -0.1822646054
C  C225  1  0.78940000  0.47960000  0.83249000  1.0 0.0519163591
C  C226  1  0.52040000  0.21060000  0.33249000  1.0 0.0519163591
C  C227  1  0.56416000  0.30536000  0.04120000  1.0 0.1029432299
C  C228  1  0.69464000  0.43584000  0.54120000  1.0 0.1029432299
C  C229  1  0.67898000  0.37478000  0.95996000  1.0 0.5384925687
C  C230  1  0.62522000  0.32102000  0.45996000  1.0 0.5384925687
C  C231  1  0.75500000  0.88900000  0.80417000  1.0 0.0803422055
C  C232  1  0.11100000  0.24500000  0.30417000  1.0 0.0803422055
C  C233  1  0.31968000  0.39408000  0.79212000  1.0 -0.0904755323
C  C234  1  0.60592000  0.68032000  0.29212000  1.0 -0.0904755323
C  C235  1  0.24821000  0.43141000  0.79395000  1.0 -0.1398587796
C  C236  1  0.56859000  0.75179000  0.29395000  1.0 -0.1398587796
C  C237  1  0.68120000  0.92620000  0.78540000  1.0 -0.1717131368
C  C238  1  0.07380000  0.31880000  0.28540000  1.0 -0.1717131368
C  C239  1  0.62660000  0.12040000  0.79010000  1.0 0.5307004236
C  C240  1  0.87960000  0.37340000  0.29010000  1.0 0.5307004236
C  C241  1  0.69130000  0.39690000  0.18340000  1.0 -0.2192107963
C  C242  1  0.60310000  0.30870000  0.68340000  1.0 -0.2192107963
C  C243  1  0.81540000  0.69320000  0.80190000  1.0 -0.1822646054
C  C244  1  0.30680000  0.18460000  0.30190000  1.0 -0.1822646054
C  C245  1  0.62046000  0.44346000  0.17393000  1.0 0.1601306861
C  C246  1  0.55654000  0.37954000  0.67393000  1.0 0.1601306861
C  C247  1  0.10726000  0.43306000  0.84511000  1.0 -0.1224296134
C  C248  1  0.56694000  0.89274000  0.34511000  1.0 -0.1224296134
C  C249  1  0.10190000  0.53130000  0.80780000  1.0 -0.1296128883
C  C250  1  0.46870000  0.89810000  0.30780000  1.0 -0.1296128883
C  C251  1  0.72700000  0.39380000  0.21510000  1.0 0.0711370201
C  C252  1  0.60620000  0.27300000  0.71510000  1.0 0.0711370201
C  C253  1  0.02720000  0.56920000  0.80830000  1.0 -0.188419013
C  C254  1  0.43080000  0.97280000  0.30830000  1.0 -0.188419013
C  C255  1  0.79720000  0.80960000  0.81033000  1.0 0.0711370201
C  C256  1  0.19040000  0.20280000  0.31033000  1.0 0.0711370201
C  C257  1  0.86630000  0.77130000  0.83160000  1.0 -0.149870356
C  C258  1  0.22870000  0.13370000  0.33160000  1.0 -0.149870356
C  C259  1  0.74240000  0.44660000  0.83291000  1.0 0.0803422055
C  C260  1  0.55340000  0.25760000  0.33291000  1.0 0.0803422055
C  C261  1  0.03633000  0.47073000  0.84700000  1.0 -0.1822646054
C  C262  1  0.52927000  0.96367000  0.34700000  1.0 -0.1822646054
C  C263  1  0.81717000  0.55177000  0.94888000  1.0 0.0519163591
C  C264  1  0.44823000  0.18283000  0.44888000  1.0 0.0519163591
C  C265  1  0.27010000  0.36690000  0.85088000  1.0 -0.149870356
C  C266  1  0.63310000  0.72990000  0.35088000  1.0 -0.149870356
C  C267  1  0.78747000  0.39047000  0.95637000  1.0 -0.101264783
C  C268  1  0.60953000  0.21253000  0.45637000  1.0 -0.101264783
C  C269  1  0.78127000  0.62187000  0.93260000  1.0 -0.1398587796
C  C270  1  0.37813000  0.21873000  0.43260000  1.0 -0.1398587796
C  C271  1  0.99398000  0.54238000  0.82867000  1.0 0.1788282738
C  C272  1  0.45762000  0.00602000  0.32867000  1.0 0.1788282738
C  C273  1  0.75152000  0.02672000  0.91488000  1.0 -0.1563470337
C  C274  1  0.97328000  0.24848000  0.41488000  1.0 -0.1563470337
C  C275  1  0.34291000  0.33131000  0.84963000  1.0 -0.1107852152
C  C276  1  0.66869000  0.65709000  0.34963000  1.0 -0.1107852152
C  C277  1  0.55680000  0.41120000  0.02777000  1.0 0.0398621568
C  C278  1  0.58880000  0.44320000  0.52777000  1.0 0.0398621568
C  C279  1  0.88717000  0.52317000  0.96314000  1.0 -0.149870356
C  C280  1  0.47683000  0.11283000  0.46314000  1.0 -0.149870356
C  C281  1  0.70470000  0.44630000  0.86049000  1.0 -0.1398587796
C  C282  1  0.55370000  0.29530000  0.36049000  1.0 -0.1398587796
C  C283  1  0.84120000  0.46240000  0.81140000  1.0 -0.1296128883
C  C284  1  0.53760000  0.15880000  0.31140000  1.0 -0.1296128883
C  C285  1  0.70593000  0.53833000  0.94820000  1.0 -0.1717131368
C  C286  1  0.46167000  0.29407000  0.44820000  1.0 -0.1717131368
C  C287  1  0.78040000  0.50780000  0.94991000  1.0 0.0711370201
C  C288  1  0.49220000  0.21960000  0.44991000  1.0 0.0711370201
C  C289  1  0.83536000  0.77816000  0.96660000  1.0 -0.1822646054
C  C290  1  0.22184000  0.16464000  0.46660000  1.0 -0.1822646054
C  C291  1  0.71604000  0.42144000  0.95514000  1.0 -0.0228542378
C  C292  1  0.57856000  0.28396000  0.45514000  1.0 -0.0228542378
C  C293  1  0.11478000  0.62458000  0.95458000  1.0 -0.1296128883
C  C294  1  0.37542000  0.88522000  0.45458000  1.0 -0.1296128883
C  C295  1  0.99529000  0.64109000  0.93942000  1.0 0.1601306861
C  C296  1  0.35891000  0.00471000  0.43942000  1.0 0.1601306861
C  C297  1  0.65664000  0.37904000  0.83361000  1.0 -0.0315993987
C  C298  1  0.62096000  0.34336000  0.33361000  1.0 -0.0315993987
C  C299  1  0.22067000  0.41927000  0.82374000  1.0 0.0711370201
C  C300  1  0.58073000  0.77933000  0.32374000  1.0 0.0711370201
C  C301  1  0.87885000  0.54285000  0.83180000  1.0 0.1601306861
C  C302  1  0.45715000  0.12115000  0.33180000  1.0 0.1601306861
C  C303  1  0.04330000  0.65710000  0.95856000  1.0 -0.188419013
C  C304  1  0.34290000  0.95670000  0.45856000  1.0 -0.188419013
C  C305  1  0.86034000  0.87014000  0.92196000  1.0 -0.1296128883
C  C306  1  0.12986000  0.13966000  0.42196000  1.0 -0.1296128883
C  C307  1  0.14130000  0.46110000  0.82583000  1.0 0.0398621568
C  C308  1  0.53890000  0.85870000  0.32583000  1.0 0.0398621568
C  C309  1  0.24221000  0.51621000  0.89716000  1.0 -0.149870356
C  C310  1  0.48379000  0.75779000  0.39716000  1.0 -0.149870356
C  C311  1  0.70983000  0.07703000  0.97510000  1.0 -0.0904755323
C  C312  1  0.92297000  0.29017000  0.47510000  1.0 -0.0904755323
C  C313  1  0.09359000  0.55959000  0.91261000  1.0 -0.1398587796
C  C314  1  0.44041000  0.90641000  0.41261000  1.0 -0.1398587796
C  C315  1  0.66187000  0.41447000  0.86022000  1.0 -0.101264783
C  C316  1  0.58553000  0.33813000  0.36022000  1.0 -0.101264783
C  C317  1  0.27085000  0.51345000  0.95900000  1.0 -0.149870356
C  C318  1  0.48655000  0.72915000  0.45900000  1.0 -0.149870356
C  C319  1  0.81998000  0.43238000  0.95367000  1.0 -0.1717131368
C  C320  1  0.56762000  0.18002000  0.45367000  1.0 -0.1717131368
C  C321  1  0.67463000  0.49483000  0.95073000  1.0 -0.1224296134
C  C322  1  0.50517000  0.32537000  0.45073000  1.0 -0.1224296134
C  C323  1  0.36874000  0.34394000  0.81985000  1.0 -0.0397999019
C  C324  1  0.65606000  0.63126000  0.31985000  1.0 -0.0397999019
C  C325  1  0.88687000  0.63487000  0.94468000  1.0 0.1601306861
C  C326  1  0.36513000  0.11313000  0.44468000  1.0 0.1601306861
C  C327  1  0.88517000  0.75097000  0.94440000  1.0 0.1601306861
C  C328  1  0.24903000  0.11483000  0.44440000  1.0 0.1601306861
C  C329  1  0.92264000  0.56444000  0.96195000  1.0 -0.1994365297
C  C330  1  0.43556000  0.07736000  0.46195000  1.0 -0.1994365297
C  C331  1  0.79805000  0.85185000  0.96610000  1.0 -0.1296128883
C  C332  1  0.14815000  0.20195000  0.46610000  1.0 -0.1296128883
C  C333  1  0.02164000  0.59124000  0.91662000  1.0 -0.188419013
C  C334  1  0.40876000  0.97836000  0.41662000  1.0 -0.188419013
C  C335  1  0.21862000  0.53462000  0.92897000  1.0 0.0803422055
C  C336  1  0.46538000  0.78138000  0.42897000  1.0 0.0803422055
C  C337  1  0.44248000  0.39868000  0.92434000  1.0 0.5709639523
C  C338  1  0.60132000  0.55752000  0.42434000  1.0 0.5709639523
C  C339  1  0.71052000  0.10012000  0.91341000  1.0 -0.101264783
C  C340  1  0.89988000  0.28948000  0.41341000  1.0 -0.101264783
C  C341  1  0.80869000  0.90029000  0.94416000  1.0 0.0519163591
C  C342  1  0.09971000  0.19131000  0.44416000  1.0 0.0519163591
C  C343  1  0.89621000  0.79821000  0.92151000  1.0 -0.1822646054
C  C344  1  0.20179000  0.10379000  0.42151000  1.0 -0.1822646054
C  C345  1  0.36501000  0.45021000  0.92535000  1.0 -0.0397999019
C  C346  1  0.54979000  0.63499000  0.42535000  1.0 -0.0397999019
C  C347  1  0.44777000  0.30637000  0.81750000  1.0 0.5709639523
C  C348  1  0.69363000  0.55223000  0.31750000  1.0 0.5709639523
C  C349  1  0.76865000  0.97705000  0.94459000  1.0 0.0711370201
C  C350  1  0.02295000  0.23135000  0.44459000  1.0 0.0711370201
C  C351  1  0.61220000  0.34240000  0.83396000  1.0 0.5508088999
C  C352  1  0.65760000  0.38780000  0.33396000  1.0 0.5508088999
C  C353  1  0.68953000  0.12593000  0.94475000  1.0 -0.0315993987
C  C354  1  0.87407000  0.31047000  0.44475000  1.0 -0.0315993987
C  C355  1  0.14106000  0.57486000  0.93150000  1.0 0.0519163591
C  C356  1  0.42514000  0.85894000  0.43150000  1.0 0.0519163591
C  C357  1  0.34359000  0.47219000  0.95662000  1.0 -0.101264783
C  C358  1  0.52781000  0.65641000  0.45662000  1.0 -0.101264783
C  C359  1  0.31387000  0.47347000  0.89586000  1.0 -0.1107852152
C  C360  1  0.52653000  0.68613000  0.39586000  1.0 -0.1107852152
C  C361  1  0.64547000  0.20527000  0.94520000  1.0 0.5709639523
C  C362  1  0.79473000  0.35453000  0.44520000  1.0 0.5709639523
C  C363  1  0.74653000  0.00453000  0.97447000  1.0 -0.149870356
C  C364  1  0.99547000  0.25347000  0.47447000  1.0 -0.1398587796
N  N1  1  0.57959000  0.91999000  0.66977000  1.0 -0.1994365297
N  N2  1  0.08001000  0.42041000  0.16977000  1.0 -0.1994365297
N  N3  1  0.67515000  0.92255000  0.55644000  1.0 -0.1717131368
N  N4  1  0.07745000  0.32485000  0.05644000  1.0 -0.1717131368
N  N5  1  0.34714000  0.57454000  0.48074000  1.0 -0.2192107963
N  N6  1  0.42546000  0.65286000  0.98074000  1.0 -0.2192107963
N  N7  1  0.43152000  0.69612000  0.26101000  1.0 -0.2192107963
N  N8  1  0.30388000  0.56848000  0.76101000  1.0 -0.2192107963
N  N9  1  0.91999000  0.57959000  0.83023000  1.0 -0.1994365297
N  N10  1  0.42041000  0.08001000  0.33023000  1.0 -0.1994365297
N  N11  1  0.92255000  0.67515000  0.94356000  1.0 -0.1717131368
N  N12  1  0.32485000  0.07745000  0.44356000  1.0 -0.1717131368
N  N13  1  0.57454000  0.34714000  0.01926000  1.0 -0.2192107963
N  N14  1  0.65286000  0.42546000  0.51926000  1.0 -0.2192107963
N  N15  1  0.69612000  0.43152000  0.23899000  1.0 -0.2192107963
N  N16  1  0.56848000  0.30388000  0.73899000  1.0 -0.2192107963
O  O1  1  0.15120000  0.56760000  0.73010000  1.0 -0.5301033324
O  O2  1  0.43240000  0.84880000  0.23010000  1.0 -0.5301033324
O  O3  1  0.31004000  0.71644000  0.52735000  1.0 -0.5357175088
O  O4  1  0.28356000  0.68996000  0.02735000  1.0 -0.5357175088
O  O5  1  0.15570000  0.64490000  0.69456000  1.0 -0.4637732944
O  O6  1  0.35510000  0.84430000  0.19456000  1.0 -0.4637732944
O  O7  1  0.30263000  0.62023000  0.68788000  1.0 -0.4799257061
O  O8  1  0.37977000  0.69737000  0.18788000  1.0 -0.4799257061
O  O9  1  0.40631000  0.61111000  0.54908000  1.0 -0.5748204804
O  O10  1  0.38889000  0.59369000  0.04908000  1.0 -0.5748204804
O  O11  1  0.31298000  0.46626000  0.71186000  1.0 -0.5199845276
O  O12  1  0.53374000  0.68702000  0.21186000  1.0 -0.5199845276
O  O13  1  0.35223000  0.57163000  0.64426000  1.0 -0.4310289017
O  O14  1  0.42837000  0.64777000  0.14426000  1.0 -0.4310289017
O  O15  1  0.26744000  0.49344000  0.65558000  1.0 -0.501979488
O  O16  1  0.50656000  0.73256000  0.15558000  1.0 -0.501979488
O  O17  1  0.24803000  0.62727000  0.58314000  1.0 -0.501979488
O  O18  1  0.37273000  0.75197000  0.08314000  1.0 -0.501979488
O  O19  1  0.37947000  0.48455000  0.54830000  1.0 -0.5199845276
O  O20  1  0.51545000  0.62053000  0.04830000  1.0 -0.5199845276
O  O21  1  0.37654000  0.45682000  0.60437000  1.0 -0.4799257061
O  O22  1  0.54318000  0.62346000  0.10437000  1.0 -0.4799257061
O  O23  1  0.22449000  0.63161000  0.52585000  1.0 -0.5062229848
O  O24  1  0.36839000  0.77551000  0.02585000  1.0 -0.5062229848
O  O25  1  0.56760000  0.15120000  0.76990000  1.0 -0.5301033324
O  O26  1  0.84880000  0.43240000  0.26990000  1.0 -0.5301033324
O  O27  1  0.71644000  0.31004000  0.97265000  1.0 -0.5357175088
O  O28  1  0.68996000  0.28356000  0.47265000  1.0 -0.5357175088
O  O29  1  0.64490000  0.15570000  0.80544000  1.0 -0.4637732944
O  O30  1  0.84430000  0.35510000  0.30544000  1.0 -0.4637732944
O  O31  1  0.62023000  0.30263000  0.81212000  1.0 -0.4799257061
O  O32  1  0.69737000  0.37977000  0.31212000  1.0 -0.4799257061
O  O33  1  0.61111000  0.40631000  0.95092000  1.0 -0.5748204804
O  O34  1  0.59369000  0.38889000  0.45092000  1.0 -0.5748204804
O  O35  1  0.46626000  0.31298000  0.78814000  1.0 -0.5199845276
O  O36  1  0.68702000  0.53374000  0.28814000  1.0 -0.5199845276
O  O37  1  0.57163000  0.35223000  0.85574000  1.0 -0.4310289017
O  O38  1  0.64777000  0.42837000  0.35574000  1.0 -0.4310289017
O  O39  1  0.49344000  0.26744000  0.84442000  1.0 -0.501979488
O  O40  1  0.73256000  0.50656000  0.34442000  1.0 -0.501979488
O  O41  1  0.62727000  0.24803000  0.91686000  1.0 -0.501979488
O  O42  1  0.75197000  0.37273000  0.41686000  1.0 -0.501979488
O  O43  1  0.48455000  0.37947000  0.95170000  1.0 -0.5199845276
O  O44  1  0.62053000  0.51545000  0.45170000  1.0 -0.5199845276
O  O45  1  0.45682000  0.37654000  0.89563000  1.0 -0.4799257061
O  O46  1  0.62346000  0.54318000  0.39563000  1.0 -0.4799257061
O  O47  1  0.63161000  0.22449000  0.97415000  1.0 -0.5062229848
O  O48  1  0.77551000  0.36839000  0.47415000  1.0 -0.5062229848
