# DDEC6 charges by PACMAN v1.1 (https://github.com/mtap-research/PACMAN-charge/)
data_QIMFAW_FSR_pacman
_symmetry_space_group_name_H-M   'P 1'
_cell_length_a   28.97480000
_cell_length_b   28.97480000
_cell_length_c   28.97480000
_cell_angle_alpha   99.59100000
_cell_angle_beta   99.59100000
_cell_angle_gamma   99.59100000
_symmetry_Int_Tables_number   1
_chemical_formula_structural   Mg3H43C68O21
_chemical_formula_sum   'Mg18 H258 C408 O126'
_cell_volume   23172.73202523
_cell_formula_units_Z   6
loop_
 _symmetry_equiv_pos_site_id
 _symmetry_equiv_pos_as_xyz
  1  'x, y, z'
loop_
 _atom_site_type_symbol
 _atom_site_label
 _atom_site_symmetry_multiplicity
 _atom_site_fract_x
 _atom_site_fract_y
 _atom_site_fract_z
 _atom_site_occupancy
 _atom_site_charge
Mg  Mg1  1  0.14728000  0.01986000  0.41354000  1.0 1.3695571379
Mg  Mg2  1  0.22645000  0.94950000  0.37872000  1.0 1.3695571379
Mg  Mg3  1  0.29923000  0.59421000  0.73127000  1.0 1.2032118414
Mg  Mg4  1  0.01986000  0.41354000  0.14728000  1.0 1.3695571379
Mg  Mg5  1  0.94950000  0.37872000  0.22645000  1.0 1.3758312637
Mg  Mg6  1  0.59421000  0.73127000  0.29923000  1.0 1.2032118414
Mg  Mg7  1  0.41354000  0.14728000  0.01986000  1.0 1.3695571379
Mg  Mg8  1  0.37872000  0.22645000  0.94950000  1.0 1.3695571379
Mg  Mg9  1  0.73127000  0.29923000  0.59421000  1.0 1.2032118414
Mg  Mg10  1  0.85272000  0.98014000  0.58646000  1.0 1.3695571379
Mg  Mg11  1  0.77355000  0.05050000  0.62128000  1.0 1.3695571379
Mg  Mg12  1  0.70077000  0.40579000  0.26873000  1.0 1.2032118414
Mg  Mg13  1  0.98014000  0.58646000  0.85272000  1.0 1.3695571379
Mg  Mg14  1  0.05050000  0.62128000  0.77355000  1.0 1.3695571379
Mg  Mg15  1  0.40579000  0.26873000  0.70077000  1.0 1.2032118414
Mg  Mg16  1  0.58646000  0.85272000  0.98014000  1.0 1.3695571379
Mg  Mg17  1  0.62128000  0.77355000  0.05050000  1.0 1.3695571379
Mg  Mg18  1  0.26873000  0.70077000  0.40579000  1.0 1.2032118414
H  H1  1  0.21290000  0.07220000  0.19940000  1.0 0.1210265721
H  H2  1  0.87050000  0.23670000  0.59780000  1.0 0.1518082213
H  H3  1  0.89610000  0.37410000  0.59950000  1.0 0.1387770494
H  H4  1  0.97740000  0.37110000  0.60040000  1.0 0.1210265721
H  H5  1  0.94540000  0.23410000  0.58910000  1.0 0.1210265721
H  H6  1  0.21980000  0.01450000  0.24570000  1.0 0.1284098523
H  H7  1  0.24760000  0.41700000  0.69380000  1.0 0.1284098523
H  H8  1  0.23140000  0.79370000  0.67600000  1.0 0.1284098523
H  H9  1  0.15920000  0.49830000  0.64960000  1.0 0.1387770494
H  H10  1  0.15220000  0.24730000  0.52510000  1.0 0.1210265721
H  H11  1  0.17510000  0.17910000  0.48760000  1.0 0.1284098523
H  H12  1  0.24650000  0.14370000  0.18490000  1.0 0.1284098523
H  H13  1  0.10270000  0.43330000  0.61360000  1.0 0.1284098523
H  H14  1  0.24470000  0.71790000  0.68060000  1.0 0.1284098523
H  H15  1  0.05590000  0.10050000  0.50450000  1.0 0.1387770494
H  H16  1  0.04080000  0.16880000  0.55180000  1.0 0.1210265721
H  H17  1  0.25970000  0.91110000  0.51020000  1.0 0.1387770494
H  H18  1  0.30350000  0.10990000  0.83460000  1.0 0.1387770494
H  H19  1  0.19020000  0.09850000  0.35330000  1.0 0.1518082213
H  H20  1  0.18690000  0.15770000  0.31060000  1.0 0.1284098523
H  H21  1  0.28130000  0.89510000  0.58320000  1.0 0.1210265721
H  H22  1  0.38710000  0.03330000  0.89690000  1.0 0.1284098523
H  H23  1  0.27680000  0.04930000  0.77070000  1.0 0.1210265721
H  H24  1  0.19090000  0.34960000  0.65170000  1.0 0.1210265721
H  H25  1  0.35940000  0.97220000  0.83240000  1.0 0.1210265721
H  H26  1  0.19200000  0.01010000  0.56230000  1.0 0.1387770494
H  H27  1  0.25800000  0.86240000  0.64850000  1.0 0.1284098523
H  H28  1  0.21570000  0.99630000  0.63790000  1.0 0.1284098523
H  H29  1  0.35090000  0.84920000  0.77250000  1.0 0.1210265721
H  H30  1  0.30920000  0.91030000  0.78700000  1.0 0.1284098523
H  H31  1  0.14610000  0.29870000  0.58420000  1.0 0.1284098523
H  H32  1  0.36360000  0.77380000  0.78000000  1.0 0.1284098523
H  H33  1  0.04740000  0.36790000  0.62330000  1.0 0.1210265721
H  H34  1  0.28050000  0.00160000  0.70400000  1.0 0.1284098523
H  H35  1  0.00850000  0.23280000  0.55730000  1.0 0.1284098523
H  H36  1  0.31480000  0.85880000  0.34720000  1.0 0.1518082213
H  H37  1  0.29300000  0.80520000  0.34610000  1.0 0.1727017412
H  H38  1  0.32260000  0.83820000  0.39390000  1.0 0.1727017412
H  H39  1  0.02920000  0.01900000  0.40180000  1.0 0.1578142179
H  H40  1  0.00560000  0.97440000  0.36110000  1.0 0.1518082213
H  H41  1  0.99190000  0.02410000  0.35810000  1.0 0.1578142179
H  H42  1  0.30110000  0.02000000  0.41540000  1.0 0.4223946175
H  H43  1  0.32040000  0.97910000  0.39470000  1.0 0.4254110033
H  H44  1  0.07220000  0.19940000  0.21290000  1.0 0.1210265721
H  H45  1  0.23670000  0.59780000  0.87050000  1.0 0.1578142179
H  H46  1  0.37410000  0.59950000  0.89610000  1.0 0.1387770494
H  H47  1  0.37110000  0.60040000  0.97740000  1.0 0.1210265721
H  H48  1  0.23410000  0.58910000  0.94540000  1.0 0.1210265721
H  H49  1  0.01450000  0.24570000  0.21980000  1.0 0.1284098523
H  H50  1  0.41700000  0.69380000  0.24760000  1.0 0.1284098523
H  H51  1  0.79370000  0.67600000  0.23140000  1.0 0.1284098523
H  H52  1  0.49830000  0.64960000  0.15920000  1.0 0.1387770494
H  H53  1  0.24730000  0.52510000  0.15220000  1.0 0.1210265721
H  H54  1  0.17910000  0.48760000  0.17510000  1.0 0.1284098523
H  H55  1  0.14370000  0.18490000  0.24650000  1.0 0.1284098523
H  H56  1  0.43330000  0.61360000  0.10270000  1.0 0.1284098523
H  H57  1  0.71790000  0.68060000  0.24470000  1.0 0.1284098523
H  H58  1  0.10050000  0.50450000  0.05590000  1.0 0.1387770494
H  H59  1  0.16880000  0.55180000  0.04080000  1.0 0.1210265721
H  H60  1  0.91110000  0.51020000  0.25970000  1.0 0.1387770494
H  H61  1  0.10990000  0.83460000  0.30350000  1.0 0.1387770494
H  H62  1  0.09850000  0.35330000  0.19020000  1.0 0.1578142179
H  H63  1  0.15770000  0.31060000  0.18690000  1.0 0.1284098523
H  H64  1  0.89510000  0.58320000  0.28130000  1.0 0.1210265721
H  H65  1  0.03330000  0.89690000  0.38710000  1.0 0.1284098523
H  H66  1  0.04930000  0.77070000  0.27680000  1.0 0.1210265721
H  H67  1  0.34960000  0.65170000  0.19090000  1.0 0.1210265721
H  H68  1  0.97220000  0.83240000  0.35940000  1.0 0.1210265721
H  H69  1  0.01010000  0.56230000  0.19200000  1.0 0.1387770494
H  H70  1  0.86240000  0.64850000  0.25800000  1.0 0.1284098523
H  H71  1  0.99630000  0.63790000  0.21570000  1.0 0.1284098523
H  H72  1  0.84920000  0.77250000  0.35090000  1.0 0.1210265721
H  H73  1  0.91030000  0.78700000  0.30920000  1.0 0.1284098523
H  H74  1  0.29870000  0.58420000  0.14610000  1.0 0.1284098523
H  H75  1  0.77380000  0.78000000  0.36360000  1.0 0.1284098523
H  H76  1  0.36790000  0.62330000  0.04740000  1.0 0.1210265721
H  H77  1  0.00160000  0.70400000  0.28050000  1.0 0.1284098523
H  H78  1  0.23280000  0.55730000  0.00850000  1.0 0.1284098523
H  H79  1  0.85880000  0.34720000  0.31480000  1.0 0.1518082213
H  H80  1  0.80520000  0.34610000  0.29300000  1.0 0.1727017412
H  H81  1  0.83820000  0.39390000  0.32260000  1.0 0.1727017412
H  H82  1  0.01900000  0.40180000  0.02920000  1.0 0.1578142179
H  H83  1  0.97440000  0.36110000  0.00560000  1.0 0.1518082213
H  H84  1  0.02410000  0.35810000  0.99190000  1.0 0.1578142179
H  H85  1  0.02000000  0.41540000  0.30110000  1.0 0.4223946175
H  H86  1  0.97910000  0.39470000  0.32040000  1.0 0.4254110033
H  H87  1  0.19940000  0.21290000  0.07220000  1.0 0.1210265721
H  H88  1  0.59780000  0.87050000  0.23670000  1.0 0.1518082213
H  H89  1  0.59950000  0.89610000  0.37410000  1.0 0.1387770494
H  H90  1  0.60040000  0.97740000  0.37110000  1.0 0.1210265721
H  H91  1  0.58910000  0.94540000  0.23410000  1.0 0.1210265721
H  H92  1  0.24570000  0.21980000  0.01450000  1.0 0.1284098523
H  H93  1  0.69380000  0.24760000  0.41700000  1.0 0.1284098523
H  H94  1  0.67600000  0.23140000  0.79370000  1.0 0.1284098523
H  H95  1  0.64960000  0.15920000  0.49830000  1.0 0.1387770494
H  H96  1  0.52510000  0.15220000  0.24730000  1.0 0.1210265721
H  H97  1  0.48760000  0.17510000  0.17910000  1.0 0.1284098523
H  H98  1  0.18490000  0.24650000  0.14370000  1.0 0.1284098523
H  H99  1  0.61360000  0.10270000  0.43330000  1.0 0.1284098523
H  H100  1  0.68060000  0.24470000  0.71790000  1.0 0.1284098523
H  H101  1  0.50450000  0.05590000  0.10050000  1.0 0.1387770494
H  H102  1  0.55180000  0.04080000  0.16880000  1.0 0.1210265721
H  H103  1  0.51020000  0.25970000  0.91110000  1.0 0.1387770494
H  H104  1  0.83460000  0.30350000  0.10990000  1.0 0.1387770494
H  H105  1  0.35330000  0.19020000  0.09850000  1.0 0.1518082213
H  H106  1  0.31060000  0.18690000  0.15770000  1.0 0.1284098523
H  H107  1  0.58320000  0.28130000  0.89510000  1.0 0.1210265721
H  H108  1  0.89690000  0.38710000  0.03330000  1.0 0.1284098523
H  H109  1  0.77070000  0.27680000  0.04930000  1.0 0.1210265721
H  H110  1  0.65170000  0.19090000  0.34960000  1.0 0.1210265721
H  H111  1  0.83240000  0.35940000  0.97220000  1.0 0.1210265721
H  H112  1  0.56230000  0.19200000  0.01010000  1.0 0.1387770494
H  H113  1  0.64850000  0.25800000  0.86240000  1.0 0.1284098523
H  H114  1  0.63790000  0.21570000  0.99630000  1.0 0.1284098523
H  H115  1  0.77250000  0.35090000  0.84920000  1.0 0.1210265721
H  H116  1  0.78700000  0.30920000  0.91030000  1.0 0.1284098523
H  H117  1  0.58420000  0.14610000  0.29870000  1.0 0.1284098523
H  H118  1  0.78000000  0.36360000  0.77380000  1.0 0.1284098523
H  H119  1  0.62330000  0.04740000  0.36790000  1.0 0.1210265721
H  H120  1  0.70400000  0.28050000  0.00160000  1.0 0.1284098523
H  H121  1  0.55730000  0.00850000  0.23280000  1.0 0.1284098523
H  H122  1  0.34720000  0.31480000  0.85880000  1.0 0.1518082213
H  H123  1  0.34610000  0.29300000  0.80520000  1.0 0.1727017412
H  H124  1  0.39390000  0.32260000  0.83820000  1.0 0.1727017412
H  H125  1  0.40180000  0.02920000  0.01900000  1.0 0.1578142179
H  H126  1  0.36110000  0.00560000  0.97440000  1.0 0.1518082213
H  H127  1  0.35810000  0.99190000  0.02410000  1.0 0.1578142179
H  H128  1  0.41540000  0.30110000  0.02000000  1.0 0.4223946175
H  H129  1  0.39470000  0.32040000  0.97910000  1.0 0.4254110033
H  H130  1  0.78710000  0.92780000  0.80060000  1.0 0.1210265721
H  H131  1  0.12950000  0.76330000  0.40220000  1.0 0.1578142179
H  H132  1  0.10390000  0.62590000  0.40050000  1.0 0.1387770494
H  H133  1  0.02260000  0.62890000  0.39960000  1.0 0.1210265721
H  H134  1  0.05460000  0.76590000  0.41090000  1.0 0.1210265721
H  H135  1  0.78020000  0.98550000  0.75430000  1.0 0.1284098523
H  H136  1  0.75240000  0.58300000  0.30620000  1.0 0.1284098523
H  H137  1  0.76860000  0.20630000  0.32400000  1.0 0.1284098523
H  H138  1  0.84080000  0.50170000  0.35040000  1.0 0.1387770494
H  H139  1  0.84780000  0.75270000  0.47490000  1.0 0.1210265721
H  H140  1  0.82490000  0.82090000  0.51240000  1.0 0.1284098523
H  H141  1  0.75350000  0.85630000  0.81510000  1.0 0.1284098523
H  H142  1  0.89730000  0.56670000  0.38640000  1.0 0.1284098523
H  H143  1  0.75530000  0.28210000  0.31940000  1.0 0.1284098523
H  H144  1  0.94410000  0.89950000  0.49550000  1.0 0.1284098523
H  H145  1  0.95920000  0.83120000  0.44820000  1.0 0.1210265721
H  H146  1  0.74030000  0.08890000  0.48980000  1.0 0.1387770494
H  H147  1  0.69650000  0.89010000  0.16540000  1.0 0.1387770494
H  H148  1  0.80980000  0.90150000  0.64670000  1.0 0.1518082213
H  H149  1  0.81310000  0.84230000  0.68940000  1.0 0.1284098523
H  H150  1  0.71870000  0.10490000  0.41680000  1.0 0.1210265721
H  H151  1  0.61290000  0.96670000  0.10310000  1.0 0.1284098523
H  H152  1  0.72320000  0.95070000  0.22930000  1.0 0.1210265721
H  H153  1  0.80910000  0.65040000  0.34830000  1.0 0.1210265721
H  H154  1  0.64060000  0.02780000  0.16760000  1.0 0.1210265721
H  H155  1  0.80800000  0.98990000  0.43770000  1.0 0.1387770494
H  H156  1  0.74200000  0.13760000  0.35150000  1.0 0.1284098523
H  H157  1  0.78430000  0.00370000  0.36210000  1.0 0.1284098523
H  H158  1  0.64910000  0.15080000  0.22750000  1.0 0.1210265721
H  H159  1  0.69080000  0.08970000  0.21300000  1.0 0.1284098523
H  H160  1  0.85390000  0.70130000  0.41580000  1.0 0.1284098523
H  H161  1  0.63640000  0.22620000  0.22000000  1.0 0.1284098523
H  H162  1  0.95260000  0.63210000  0.37670000  1.0 0.1210265721
H  H163  1  0.71950000  0.99840000  0.29600000  1.0 0.1284098523
H  H164  1  0.99150000  0.76720000  0.44270000  1.0 0.1284098523
H  H165  1  0.68520000  0.14120000  0.65280000  1.0 0.1518082213
H  H166  1  0.70700000  0.19480000  0.65390000  1.0 0.1727017412
H  H167  1  0.67740000  0.16180000  0.60610000  1.0 0.1727017412
H  H168  1  0.97080000  0.98100000  0.59820000  1.0 0.1578142179
H  H169  1  0.99440000  0.02560000  0.63890000  1.0 0.1518082213
H  H170  1  0.00810000  0.97590000  0.64190000  1.0 0.1578142179
H  H171  1  0.69890000  0.98000000  0.58460000  1.0 0.4223946175
H  H172  1  0.67960000  0.02090000  0.60530000  1.0 0.4223946175
H  H173  1  0.92780000  0.80060000  0.78710000  1.0 0.1210265721
H  H174  1  0.76330000  0.40220000  0.12950000  1.0 0.1578142179
H  H175  1  0.62590000  0.40050000  0.10390000  1.0 0.1387770494
H  H176  1  0.62890000  0.39960000  0.02260000  1.0 0.1210265721
H  H177  1  0.76590000  0.41090000  0.05460000  1.0 0.1210265721
H  H178  1  0.98550000  0.75430000  0.78020000  1.0 0.1284098523
H  H179  1  0.58300000  0.30620000  0.75240000  1.0 0.1284098523
H  H180  1  0.20630000  0.32400000  0.76860000  1.0 0.1284098523
H  H181  1  0.50170000  0.35040000  0.84080000  1.0 0.1387770494
H  H182  1  0.75270000  0.47490000  0.84780000  1.0 0.1210265721
H  H183  1  0.82090000  0.51240000  0.82490000  1.0 0.1284098523
H  H184  1  0.85630000  0.81510000  0.75350000  1.0 0.1284098523
H  H185  1  0.56670000  0.38640000  0.89730000  1.0 0.1284098523
H  H186  1  0.28210000  0.31940000  0.75530000  1.0 0.1284098523
H  H187  1  0.89950000  0.49550000  0.94410000  1.0 0.1284098523
H  H188  1  0.83120000  0.44820000  0.95920000  1.0 0.1210265721
H  H189  1  0.08890000  0.48980000  0.74030000  1.0 0.1387770494
H  H190  1  0.89010000  0.16540000  0.69650000  1.0 0.1387770494
H  H191  1  0.90150000  0.64670000  0.80980000  1.0 0.1518082213
H  H192  1  0.84230000  0.68940000  0.81310000  1.0 0.1284098523
H  H193  1  0.10490000  0.41680000  0.71870000  1.0 0.1210265721
H  H194  1  0.96670000  0.10310000  0.61290000  1.0 0.1284098523
H  H195  1  0.95070000  0.22930000  0.72320000  1.0 0.1210265721
H  H196  1  0.65040000  0.34830000  0.80910000  1.0 0.1210265721
H  H197  1  0.02780000  0.16760000  0.64060000  1.0 0.1210265721
H  H198  1  0.98990000  0.43770000  0.80800000  1.0 0.1387770494
H  H199  1  0.13760000  0.35150000  0.74200000  1.0 0.1284098523
H  H200  1  0.00370000  0.36210000  0.78430000  1.0 0.1284098523
H  H201  1  0.15080000  0.22750000  0.64910000  1.0 0.1210265721
H  H202  1  0.08970000  0.21300000  0.69080000  1.0 0.1284098523
H  H203  1  0.70130000  0.41580000  0.85390000  1.0 0.1284098523
H  H204  1  0.22620000  0.22000000  0.63640000  1.0 0.1284098523
H  H205  1  0.63210000  0.37670000  0.95260000  1.0 0.1210265721
H  H206  1  0.99840000  0.29600000  0.71950000  1.0 0.1284098523
H  H207  1  0.76720000  0.44270000  0.99150000  1.0 0.1284098523
H  H208  1  0.14120000  0.65280000  0.68520000  1.0 0.1518082213
H  H209  1  0.19480000  0.65390000  0.70700000  1.0 0.1727017412
H  H210  1  0.16180000  0.60610000  0.67740000  1.0 0.1727017412
H  H211  1  0.98100000  0.59820000  0.97080000  1.0 0.1578142179
H  H212  1  0.02560000  0.63890000  0.99440000  1.0 0.1518082213
H  H213  1  0.97590000  0.64190000  0.00810000  1.0 0.1578142179
H  H214  1  0.98000000  0.58460000  0.69890000  1.0 0.4223946175
H  H215  1  0.02090000  0.60530000  0.67960000  1.0 0.4223946175
H  H216  1  0.80060000  0.78710000  0.92780000  1.0 0.1210265721
H  H217  1  0.40220000  0.12950000  0.76330000  1.0 0.1578142179
H  H218  1  0.40050000  0.10390000  0.62590000  1.0 0.1387770494
H  H219  1  0.39960000  0.02260000  0.62890000  1.0 0.1210265721
H  H220  1  0.41090000  0.05460000  0.76590000  1.0 0.1210265721
H  H221  1  0.75430000  0.78020000  0.98550000  1.0 0.1284098523
H  H222  1  0.30620000  0.75240000  0.58300000  1.0 0.1284098523
H  H223  1  0.32400000  0.76860000  0.20630000  1.0 0.1284098523
H  H224  1  0.35040000  0.84080000  0.50170000  1.0 0.1387770494
H  H225  1  0.47490000  0.84780000  0.75270000  1.0 0.1210265721
H  H226  1  0.51240000  0.82490000  0.82090000  1.0 0.1284098523
H  H227  1  0.81510000  0.75350000  0.85630000  1.0 0.1284098523
H  H228  1  0.38640000  0.89730000  0.56670000  1.0 0.1284098523
H  H229  1  0.31940000  0.75530000  0.28210000  1.0 0.1284098523
H  H230  1  0.49550000  0.94410000  0.89950000  1.0 0.1387770494
H  H231  1  0.44820000  0.95920000  0.83120000  1.0 0.1210265721
H  H232  1  0.48980000  0.74030000  0.08890000  1.0 0.1387770494
H  H233  1  0.16540000  0.69650000  0.89010000  1.0 0.1387770494
H  H234  1  0.64670000  0.80980000  0.90150000  1.0 0.1518082213
H  H235  1  0.68940000  0.81310000  0.84230000  1.0 0.1284098523
H  H236  1  0.41680000  0.71870000  0.10490000  1.0 0.1210265721
H  H237  1  0.10310000  0.61290000  0.96670000  1.0 0.1284098523
H  H238  1  0.22930000  0.72320000  0.95070000  1.0 0.1210265721
H  H239  1  0.34830000  0.80910000  0.65040000  1.0 0.1210265721
H  H240  1  0.16760000  0.64060000  0.02780000  1.0 0.1210265721
H  H241  1  0.43770000  0.80800000  0.98990000  1.0 0.1387770494
H  H242  1  0.35150000  0.74200000  0.13760000  1.0 0.1284098523
H  H243  1  0.36210000  0.78430000  0.00370000  1.0 0.1284098523
H  H244  1  0.22750000  0.64910000  0.15080000  1.0 0.1210265721
H  H245  1  0.21300000  0.69080000  0.08970000  1.0 0.1284098523
H  H246  1  0.41580000  0.85390000  0.70130000  1.0 0.1284098523
H  H247  1  0.22000000  0.63640000  0.22620000  1.0 0.1284098523
H  H248  1  0.37670000  0.95260000  0.63210000  1.0 0.1210265721
H  H249  1  0.29600000  0.71950000  0.99840000  1.0 0.1284098523
H  H250  1  0.44270000  0.99150000  0.76720000  1.0 0.1284098523
H  H251  1  0.65280000  0.68520000  0.14120000  1.0 0.1578142179
H  H252  1  0.65390000  0.70700000  0.19480000  1.0 0.1727017412
H  H253  1  0.60610000  0.67740000  0.16180000  1.0 0.1727017412
H  H254  1  0.59820000  0.97080000  0.98100000  1.0 0.1578142179
H  H255  1  0.63890000  0.99440000  0.02560000  1.0 0.1518082213
H  H256  1  0.64190000  0.00810000  0.97590000  1.0 0.1578142179
H  H257  1  0.58460000  0.69890000  0.98000000  1.0 0.4223946175
H  H258  1  0.60530000  0.67960000  0.02090000  1.0 0.4223946175
C  C1  1  0.24420000  0.50750000  0.69760000  1.0 0.5434463198
C  C2  1  0.26478000  0.93429000  0.66811000  1.0 0.0907437701
C  C3  1  0.05690000  0.02020000  0.34200000  1.0 0.7009702598
C  C4  1  0.25790000  0.85060000  0.37600000  1.0 0.6886379594
C  C5  1  0.20930000  0.07836000  0.23101000  1.0 -0.1484645402
C  C6  1  0.89102000  0.26446000  0.59650000  1.0 -0.0708878368
C  C7  1  0.90576000  0.34504000  0.59880000  1.0 -0.0854142706
C  C8  1  0.95555000  0.34300000  0.59803000  1.0 -0.1424980785
C  C9  1  0.93627000  0.26351000  0.59279000  1.0 -0.1578717588
C  C10  1  0.21276000  0.04353000  0.25875000  1.0 -0.0708878368
C  C11  1  0.36510000  0.58380000  0.70140000  1.0 0.5790022904
C  C12  1  0.21885000  0.42038000  0.67639000  1.0 -0.0610823659
C  C13  1  0.20039000  0.12213000  0.25096000  1.0 0.0698652712
C  C14  1  0.87467000  0.30712000  0.59842000  1.0 -0.0252030654
C  C15  1  0.25821000  0.78961000  0.69630000  1.0 -0.1424980785
C  C16  1  0.16625000  0.46831000  0.65079000  1.0 -0.0708878368
C  C17  1  0.13326000  0.21731000  0.52204000  1.0 -0.1578717588
C  C18  1  0.81630000  0.31490000  0.59540000  1.0 0.5168627078
C  C19  1  0.14632000  0.17612000  0.49818000  1.0 -0.0708878368
C  C20  1  0.22543000  0.16433000  0.18891000  1.0 -0.197197338
C  C21  1  0.20954000  0.01395000  0.33373000  1.0 0.5959608033
C  C22  1  0.19830000  0.15932000  0.22351000  1.0 0.0907437701
C  C23  1  0.13217000  0.42920000  0.62897000  1.0 -0.1484645402
C  C24  1  0.26599000  0.74434000  0.69983000  1.0 -0.0854142706
C  C25  1  0.07701000  0.12967000  0.50939000  1.0 -0.0610823659
C  C26  1  0.06677000  0.17196000  0.53680000  1.0 -0.1424980785
C  C27  1  0.25069000  0.92851000  0.53600000  1.0 -0.0708878368
C  C28  1  0.31580000  0.08222000  0.83435000  1.0 -0.0708878368
C  C29  1  0.31068000  0.68713000  0.73449000  1.0 0.5500349178
C  C30  1  0.20927000  0.46577000  0.67385000  1.0 -0.0380117062
C  C31  1  0.19592000  0.09295000  0.32241000  1.0 -0.0610823659
C  C32  1  0.19343000  0.12882000  0.29668000  1.0 -0.1216489102
C  C33  1  0.26348000  0.91856000  0.57954000  1.0 -0.1424980785
C  C34  1  0.36509000  0.03742000  0.87135000  1.0 -0.0798435031
C  C35  1  0.29905000  0.04556000  0.79632000  1.0 -0.1484645402
C  C36  1  0.18377000  0.37982000  0.65201000  1.0 -0.1669861278
C  C37  1  0.34768000  0.00013000  0.83248000  1.0 -0.1578717588
C  C38  1  0.21173000  0.97341000  0.47867000  1.0 0.618499654
C  C39  1  0.30400000  0.73737000  0.73074000  1.0 0.0095420655
C  C40  1  0.21079000  0.98746000  0.56666000  1.0 -0.0798435031
C  C41  1  0.26814000  0.88766000  0.67457000  1.0 -0.1828789736
C  C42  1  0.10307000  0.34010000  0.60812000  1.0 0.0907437701
C  C43  1  0.29176000  0.82918000  0.72410000  1.0 0.0698652712
C  C44  1  0.29756000  0.96298000  0.75316000  1.0 0.0907437701
C  C45  1  0.20584000  0.05172000  0.30587000  1.0 -0.0252030654
C  C46  1  0.11744000  0.13215000  0.49060000  1.0 -0.0215985861
C  C47  1  0.22429000  0.97834000  0.61211000  1.0 -0.1484645402
C  C48  1  0.32930000  0.82255000  0.75412000  1.0 -0.1484645402
C  C49  1  0.02035000  0.30113000  0.59184000  1.0 0.0986985377
C  C50  1  0.12890000  0.08927000  0.46286000  1.0 0.5500349178
C  C51  1  0.29899000  0.91674000  0.75699000  1.0 -0.1913805863
C  C52  1  0.22506000  0.96318000  0.52789000  1.0 -0.0215985861
C  C53  1  0.28571000  0.87869000  0.71757000  1.0 0.0907437701
C  C54  1  0.11431000  0.29914000  0.58585000  1.0 -0.1913805863
C  C55  1  0.13984000  0.38336000  0.62883000  1.0 0.0698652712
C  C56  1  0.33718000  0.77750000  0.75889000  1.0 -0.0798435031
C  C57  1  0.05554000  0.33982000  0.60949000  1.0 -0.1913805863
C  C58  1  0.31453000  0.00216000  0.79475000  1.0 0.0646851593
C  C59  1  0.36839000  0.12005000  0.91481000  1.0 0.618499654
C  C60  1  0.09196000  0.21280000  0.54091000  1.0 0.0698652712
C  C61  1  0.28084000  0.97036000  0.70778000  1.0 -0.1913805863
C  C62  1  0.96968000  0.30292000  0.59416000  1.0 0.0646851593
C  C63  1  0.03234000  0.25998000  0.56976000  1.0 -0.197197338
C  C64  1  0.24993000  0.94376000  0.62000000  1.0 0.0698652712
C  C65  1  0.35089000  0.08013000  0.87317000  1.0 -0.0215985861
C  C66  1  0.07964000  0.25814000  0.56564000  1.0 0.0986985377
C  C67  1  0.30061000  0.83710000  0.36491000  1.0 -0.5964132672
C  C68  1  0.01740000  0.00840000  0.36810000  1.0 -0.5599930005
C  C69  1  0.50750000  0.69760000  0.24420000  1.0 0.5434463198
C  C70  1  0.93429000  0.66811000  0.26478000  1.0 0.0907437701
C  C71  1  0.02020000  0.34200000  0.05690000  1.0 0.7009702598
C  C72  1  0.85060000  0.37600000  0.25790000  1.0 0.6886379594
C  C73  1  0.07836000  0.23101000  0.20930000  1.0 -0.1484645402
C  C74  1  0.26446000  0.59650000  0.89102000  1.0 -0.0798435031
C  C75  1  0.34504000  0.59880000  0.90576000  1.0 -0.0854142706
C  C76  1  0.34300000  0.59803000  0.95555000  1.0 -0.1424980785
C  C77  1  0.26351000  0.59279000  0.93627000  1.0 -0.1578717588
C  C78  1  0.04353000  0.25875000  0.21276000  1.0 -0.0708878368
C  C79  1  0.58380000  0.70140000  0.36510000  1.0 0.5790022904
C  C80  1  0.42038000  0.67639000  0.21885000  1.0 -0.0610823659
C  C81  1  0.12213000  0.25096000  0.20039000  1.0 0.0698652712
C  C82  1  0.30712000  0.59842000  0.87467000  1.0 -0.0252030654
C  C83  1  0.78961000  0.69630000  0.25821000  1.0 -0.1424980785
C  C84  1  0.46831000  0.65079000  0.16625000  1.0 -0.0708878368
C  C85  1  0.21731000  0.52204000  0.13326000  1.0 -0.1578717588
C  C86  1  0.31490000  0.59540000  0.81630000  1.0 0.5168627078
C  C87  1  0.17612000  0.49818000  0.14632000  1.0 -0.0708878368
C  C88  1  0.16433000  0.18891000  0.22543000  1.0 -0.197197338
C  C89  1  0.01395000  0.33373000  0.20954000  1.0 0.5959608033
C  C90  1  0.15932000  0.22351000  0.19830000  1.0 0.0907437701
C  C91  1  0.42920000  0.62897000  0.13217000  1.0 -0.1484645402
C  C92  1  0.74434000  0.69983000  0.26599000  1.0 -0.0854142706
C  C93  1  0.12967000  0.50939000  0.07701000  1.0 -0.0610823659
C  C94  1  0.17196000  0.53680000  0.06677000  1.0 -0.1424980785
C  C95  1  0.92851000  0.53600000  0.25069000  1.0 -0.0798435031
C  C96  1  0.08222000  0.83435000  0.31580000  1.0 -0.0708878368
C  C97  1  0.68713000  0.73449000  0.31068000  1.0 0.5500349178
C  C98  1  0.46577000  0.67385000  0.20927000  1.0 -0.0380117062
C  C99  1  0.09295000  0.32241000  0.19592000  1.0 -0.0610823659
C  C100  1  0.12882000  0.29668000  0.19343000  1.0 -0.1216489102
C  C101  1  0.91856000  0.57954000  0.26348000  1.0 -0.1424980785
C  C102  1  0.03742000  0.87135000  0.36509000  1.0 -0.0798435031
C  C103  1  0.04556000  0.79632000  0.29905000  1.0 -0.1484645402
C  C104  1  0.37982000  0.65201000  0.18377000  1.0 -0.1669861278
C  C105  1  0.00013000  0.83248000  0.34768000  1.0 -0.1578717588
C  C106  1  0.97341000  0.47867000  0.21173000  1.0 0.618499654
C  C107  1  0.73737000  0.73074000  0.30400000  1.0 0.0095420655
C  C108  1  0.98746000  0.56666000  0.21079000  1.0 -0.0798435031
C  C109  1  0.88766000  0.67457000  0.26814000  1.0 -0.1828789736
C  C110  1  0.34010000  0.60812000  0.10307000  1.0 0.0907437701
C  C111  1  0.82918000  0.72410000  0.29176000  1.0 0.0698652712
C  C112  1  0.96298000  0.75316000  0.29756000  1.0 0.0907437701
C  C113  1  0.05172000  0.30587000  0.20584000  1.0 -0.0252030654
C  C114  1  0.13215000  0.49060000  0.11744000  1.0 -0.0215985861
C  C115  1  0.97834000  0.61211000  0.22429000  1.0 -0.1484645402
C  C116  1  0.82255000  0.75412000  0.32930000  1.0 -0.1484645402
C  C117  1  0.30113000  0.59184000  0.02035000  1.0 0.0986985377
C  C118  1  0.08927000  0.46286000  0.12890000  1.0 0.5500349178
C  C119  1  0.91674000  0.75699000  0.29899000  1.0 -0.197197338
C  C120  1  0.96318000  0.52789000  0.22506000  1.0 -0.0215985861
C  C121  1  0.87869000  0.71757000  0.28571000  1.0 0.0907437701
C  C122  1  0.29914000  0.58585000  0.11431000  1.0 -0.1913805863
C  C123  1  0.38336000  0.62883000  0.13984000  1.0 0.0698652712
C  C124  1  0.77750000  0.75889000  0.33718000  1.0 -0.0798435031
C  C125  1  0.33982000  0.60949000  0.05554000  1.0 -0.1913805863
C  C126  1  0.00216000  0.79475000  0.31453000  1.0 0.0646851593
C  C127  1  0.12005000  0.91481000  0.36839000  1.0 0.618499654
C  C128  1  0.21280000  0.54091000  0.09196000  1.0 0.0698652712
C  C129  1  0.97036000  0.70778000  0.28084000  1.0 -0.1913805863
C  C130  1  0.30292000  0.59416000  0.96968000  1.0 0.0646851593
C  C131  1  0.25998000  0.56976000  0.03234000  1.0 -0.197197338
C  C132  1  0.94376000  0.62000000  0.24993000  1.0 0.0698652712
C  C133  1  0.08013000  0.87317000  0.35089000  1.0 -0.0215985861
C  C134  1  0.25814000  0.56564000  0.07964000  1.0 0.0986985377
C  C135  1  0.83710000  0.36491000  0.30061000  1.0 -0.5964132672
C  C136  1  0.00840000  0.36810000  0.01740000  1.0 -0.5599930005
C  C137  1  0.69760000  0.24420000  0.50750000  1.0 0.5434463198
C  C138  1  0.66811000  0.26478000  0.93429000  1.0 0.0907437701
C  C139  1  0.34200000  0.05690000  0.02020000  1.0 0.7009702598
C  C140  1  0.37600000  0.25790000  0.85060000  1.0 0.6886379594
C  C141  1  0.23101000  0.20930000  0.07836000  1.0 -0.1484645402
C  C142  1  0.59650000  0.89102000  0.26446000  1.0 -0.0708878368
C  C143  1  0.59880000  0.90576000  0.34504000  1.0 -0.0854142706
C  C144  1  0.59803000  0.95555000  0.34300000  1.0 -0.1424980785
C  C145  1  0.59279000  0.93627000  0.26351000  1.0 -0.1578717588
C  C146  1  0.25875000  0.21276000  0.04353000  1.0 -0.0708878368
C  C147  1  0.70140000  0.36510000  0.58380000  1.0 0.5790022904
C  C148  1  0.67639000  0.21885000  0.42038000  1.0 -0.0610823659
C  C149  1  0.25096000  0.20039000  0.12213000  1.0 0.0698652712
C  C150  1  0.59842000  0.87467000  0.30712000  1.0 -0.0252030654
C  C151  1  0.69630000  0.25821000  0.78961000  1.0 -0.1424980785
C  C152  1  0.65079000  0.16625000  0.46831000  1.0 -0.0708878368
C  C153  1  0.52204000  0.13326000  0.21731000  1.0 -0.1578717588
C  C154  1  0.59540000  0.81630000  0.31490000  1.0 0.5168627078
C  C155  1  0.49818000  0.14632000  0.17612000  1.0 -0.0708878368
C  C156  1  0.18891000  0.22543000  0.16433000  1.0 -0.197197338
C  C157  1  0.33373000  0.20954000  0.01395000  1.0 0.5959608033
C  C158  1  0.22351000  0.19830000  0.15932000  1.0 0.0907437701
C  C159  1  0.62897000  0.13217000  0.42920000  1.0 -0.1484645402
C  C160  1  0.69983000  0.26599000  0.74434000  1.0 -0.0854142706
C  C161  1  0.50939000  0.07701000  0.12967000  1.0 -0.0610823659
C  C162  1  0.53680000  0.06677000  0.17196000  1.0 -0.1424980785
C  C163  1  0.53600000  0.25069000  0.92851000  1.0 -0.0708878368
C  C164  1  0.83435000  0.31580000  0.08222000  1.0 -0.0708878368
C  C165  1  0.73449000  0.31068000  0.68713000  1.0 0.5500349178
C  C166  1  0.67385000  0.20927000  0.46577000  1.0 -0.0380117062
C  C167  1  0.32241000  0.19592000  0.09295000  1.0 -0.0610823659
C  C168  1  0.29668000  0.19343000  0.12882000  1.0 -0.1216489102
C  C169  1  0.57954000  0.26348000  0.91856000  1.0 -0.1424980785
C  C170  1  0.87135000  0.36509000  0.03742000  1.0 -0.0798435031
C  C171  1  0.79632000  0.29905000  0.04556000  1.0 -0.1484645402
C  C172  1  0.65201000  0.18377000  0.37982000  1.0 -0.1669861278
C  C173  1  0.83248000  0.34768000  0.00013000  1.0 -0.1578717588
C  C174  1  0.47867000  0.21173000  0.97341000  1.0 0.618499654
C  C175  1  0.73074000  0.30400000  0.73737000  1.0 0.0095420655
C  C176  1  0.56666000  0.21079000  0.98746000  1.0 -0.0798435031
C  C177  1  0.67457000  0.26814000  0.88766000  1.0 -0.1828789736
C  C178  1  0.60812000  0.10307000  0.34010000  1.0 0.0907437701
C  C179  1  0.72410000  0.29176000  0.82918000  1.0 0.0698652712
C  C180  1  0.75316000  0.29756000  0.96298000  1.0 0.0907437701
C  C181  1  0.30587000  0.20584000  0.05172000  1.0 -0.0252030654
C  C182  1  0.49060000  0.11744000  0.13215000  1.0 -0.0215985861
C  C183  1  0.61211000  0.22429000  0.97834000  1.0 -0.1484645402
C  C184  1  0.75412000  0.32930000  0.82255000  1.0 -0.1484645402
C  C185  1  0.59184000  0.02035000  0.30113000  1.0 0.0986985377
C  C186  1  0.46286000  0.12890000  0.08927000  1.0 0.5500349178
C  C187  1  0.75699000  0.29899000  0.91674000  1.0 -0.197197338
C  C188  1  0.52789000  0.22506000  0.96318000  1.0 -0.0215985861
C  C189  1  0.71757000  0.28571000  0.87869000  1.0 0.0907437701
C  C190  1  0.58585000  0.11431000  0.29914000  1.0 -0.1913805863
C  C191  1  0.62883000  0.13984000  0.38336000  1.0 0.0698652712
C  C192  1  0.75889000  0.33718000  0.77750000  1.0 -0.0798435031
C  C193  1  0.60949000  0.05554000  0.33982000  1.0 -0.1913805863
C  C194  1  0.79475000  0.31453000  0.00216000  1.0 0.0646851593
C  C195  1  0.91481000  0.36839000  0.12005000  1.0 0.618499654
C  C196  1  0.54091000  0.09196000  0.21280000  1.0 0.0698652712
C  C197  1  0.70778000  0.28084000  0.97036000  1.0 -0.1913805863
C  C198  1  0.59416000  0.96968000  0.30292000  1.0 0.0646851593
C  C199  1  0.56976000  0.03234000  0.25998000  1.0 -0.197197338
C  C200  1  0.62000000  0.24993000  0.94376000  1.0 0.0698652712
C  C201  1  0.87317000  0.35089000  0.08013000  1.0 -0.0215985861
C  C202  1  0.56564000  0.07964000  0.25814000  1.0 0.0986985377
C  C203  1  0.36491000  0.30061000  0.83710000  1.0 -0.5964132672
C  C204  1  0.36810000  0.01740000  0.00840000  1.0 -0.5599930005
C  C205  1  0.75580000  0.49250000  0.30240000  1.0 0.5434463198
C  C206  1  0.73522000  0.06571000  0.33189000  1.0 0.0907437701
C  C207  1  0.94310000  0.97980000  0.65800000  1.0 0.7009702598
C  C208  1  0.74210000  0.14940000  0.62400000  1.0 0.6886379594
C  C209  1  0.79070000  0.92164000  0.76899000  1.0 -0.1484645402
C  C210  1  0.10898000  0.73554000  0.40350000  1.0 -0.0798435031
C  C211  1  0.09424000  0.65496000  0.40120000  1.0 -0.0854142706
C  C212  1  0.04445000  0.65700000  0.40197000  1.0 -0.1424980785
C  C213  1  0.06373000  0.73649000  0.40721000  1.0 -0.1578717588
C  C214  1  0.78724000  0.95647000  0.74125000  1.0 -0.0708878368
C  C215  1  0.63490000  0.41620000  0.29860000  1.0 0.5790022904
C  C216  1  0.78115000  0.57962000  0.32361000  1.0 -0.0610823659
C  C217  1  0.79961000  0.87787000  0.74904000  1.0 0.0698652712
C  C218  1  0.12533000  0.69288000  0.40158000  1.0 -0.0252030654
C  C219  1  0.74179000  0.21039000  0.30370000  1.0 -0.1424980785
C  C220  1  0.83375000  0.53169000  0.34921000  1.0 -0.0708878368
C  C221  1  0.86674000  0.78269000  0.47796000  1.0 -0.1578717588
C  C222  1  0.18370000  0.68510000  0.40460000  1.0 0.5168627078
C  C223  1  0.85368000  0.82388000  0.50182000  1.0 -0.0708878368
C  C224  1  0.77457000  0.83567000  0.81109000  1.0 -0.197197338
C  C225  1  0.79046000  0.98605000  0.66627000  1.0 0.5959608033
C  C226  1  0.80170000  0.84068000  0.77649000  1.0 0.0907437701
C  C227  1  0.86783000  0.57080000  0.37103000  1.0 -0.1484645402
C  C228  1  0.73401000  0.25566000  0.30017000  1.0 -0.0854142706
C  C229  1  0.92299000  0.87033000  0.49061000  1.0 -0.0610823659
C  C230  1  0.93323000  0.82804000  0.46320000  1.0 -0.1424980785
C  C231  1  0.74931000  0.07149000  0.46400000  1.0 -0.0708878368
C  C232  1  0.68420000  0.91778000  0.16565000  1.0 -0.0708878368
C  C233  1  0.68932000  0.31287000  0.26551000  1.0 0.5500349178
C  C234  1  0.79073000  0.53423000  0.32615000  1.0 -0.0380117062
C  C235  1  0.80408000  0.90705000  0.67759000  1.0 -0.0610823659
C  C236  1  0.80657000  0.87118000  0.70332000  1.0 -0.1216489102
C  C237  1  0.73652000  0.08144000  0.42046000  1.0 -0.1424980785
C  C238  1  0.63491000  0.96258000  0.12865000  1.0 -0.0798435031
C  C239  1  0.70095000  0.95444000  0.20368000  1.0 -0.1484645402
C  C240  1  0.81623000  0.62018000  0.34799000  1.0 -0.1669861278
C  C241  1  0.65232000  0.99987000  0.16752000  1.0 -0.1578717588
C  C242  1  0.78827000  0.02659000  0.52133000  1.0 0.618499654
C  C243  1  0.69600000  0.26263000  0.26926000  1.0 0.0095420655
C  C244  1  0.78921000  0.01254000  0.43334000  1.0 -0.0798435031
C  C245  1  0.73186000  0.11234000  0.32543000  1.0 -0.1828789736
C  C246  1  0.89693000  0.65990000  0.39188000  1.0 0.0907437701
C  C247  1  0.70824000  0.17082000  0.27590000  1.0 0.0698652712
C  C248  1  0.70244000  0.03702000  0.24684000  1.0 0.0907437701
C  C249  1  0.79416000  0.94828000  0.69413000  1.0 -0.0252030654
C  C250  1  0.88256000  0.86785000  0.50940000  1.0 -0.0215985861
C  C251  1  0.77571000  0.02166000  0.38789000  1.0 -0.1484645402
C  C252  1  0.67070000  0.17745000  0.24588000  1.0 -0.1484645402
C  C253  1  0.97965000  0.69887000  0.40816000  1.0 0.0986985377
C  C254  1  0.87110000  0.91073000  0.53714000  1.0 0.5500349178
C  C255  1  0.70101000  0.08326000  0.24301000  1.0 -0.197197338
C  C256  1  0.77494000  0.03682000  0.47211000  1.0 -0.0215985861
C  C257  1  0.71429000  0.12131000  0.28243000  1.0 0.0907437701
C  C258  1  0.88569000  0.70086000  0.41415000  1.0 -0.1913805863
C  C259  1  0.86016000  0.61664000  0.37117000  1.0 0.0698652712
C  C260  1  0.66282000  0.22250000  0.24111000  1.0 -0.0798435031
C  C261  1  0.94446000  0.66018000  0.39051000  1.0 -0.1913805863
C  C262  1  0.68547000  0.99784000  0.20525000  1.0 0.0646851593
C  C263  1  0.63161000  0.87995000  0.08519000  1.0 0.618499654
C  C264  1  0.90804000  0.78720000  0.45909000  1.0 0.0698652712
C  C265  1  0.71916000  0.02964000  0.29222000  1.0 -0.1913805863
C  C266  1  0.03032000  0.69708000  0.40584000  1.0 0.0646851593
C  C267  1  0.96766000  0.74002000  0.43024000  1.0 -0.197197338
C  C268  1  0.75007000  0.05624000  0.38000000  1.0 0.0698652712
C  C269  1  0.64911000  0.91987000  0.12683000  1.0 -0.0215985861
C  C270  1  0.92036000  0.74186000  0.43436000  1.0 0.0986985377
C  C271  1  0.69939000  0.16290000  0.63509000  1.0 -0.5964132672
C  C272  1  0.98260000  0.99160000  0.63190000  1.0 -0.5700176781
C  C273  1  0.49250000  0.30240000  0.75580000  1.0 0.5434463198
C  C274  1  0.06571000  0.33189000  0.73522000  1.0 0.0907437701
C  C275  1  0.97980000  0.65800000  0.94310000  1.0 0.7009702598
C  C276  1  0.14940000  0.62400000  0.74210000  1.0 0.6886379594
C  C277  1  0.92164000  0.76899000  0.79070000  1.0 -0.1484645402
C  C278  1  0.73554000  0.40350000  0.10898000  1.0 -0.0708878368
C  C279  1  0.65496000  0.40120000  0.09424000  1.0 -0.0854142706
C  C280  1  0.65700000  0.40197000  0.04445000  1.0 -0.1424980785
C  C281  1  0.73649000  0.40721000  0.06373000  1.0 -0.1578717588
C  C282  1  0.95647000  0.74125000  0.78724000  1.0 -0.0708878368
C  C283  1  0.41620000  0.29860000  0.63490000  1.0 0.5675434048
C  C284  1  0.57962000  0.32361000  0.78115000  1.0 -0.0610823659
C  C285  1  0.87787000  0.74904000  0.79961000  1.0 0.0698652712
C  C286  1  0.69288000  0.40158000  0.12533000  1.0 -0.0252030654
C  C287  1  0.21039000  0.30370000  0.74179000  1.0 -0.1424980785
C  C288  1  0.53169000  0.34921000  0.83375000  1.0 -0.0708878368
C  C289  1  0.78269000  0.47796000  0.86674000  1.0 -0.1578717588
C  C290  1  0.68510000  0.40460000  0.18370000  1.0 0.5168627078
C  C291  1  0.82388000  0.50182000  0.85368000  1.0 -0.0708878368
C  C292  1  0.83567000  0.81109000  0.77457000  1.0 -0.197197338
C  C293  1  0.98605000  0.66627000  0.79046000  1.0 0.5959608033
C  C294  1  0.84068000  0.77649000  0.80170000  1.0 0.0907437701
C  C295  1  0.57080000  0.37103000  0.86783000  1.0 -0.1484645402
C  C296  1  0.25566000  0.30017000  0.73401000  1.0 -0.0854142706
C  C297  1  0.87033000  0.49061000  0.92299000  1.0 -0.0610823659
C  C298  1  0.82804000  0.46320000  0.93323000  1.0 -0.1424980785
C  C299  1  0.07149000  0.46400000  0.74931000  1.0 -0.0708878368
C  C300  1  0.91778000  0.16565000  0.68420000  1.0 -0.0708878368
C  C301  1  0.31287000  0.26551000  0.68932000  1.0 0.5500349178
C  C302  1  0.53423000  0.32615000  0.79073000  1.0 -0.0380117062
C  C303  1  0.90705000  0.67759000  0.80408000  1.0 -0.0610823659
C  C304  1  0.87118000  0.70332000  0.80657000  1.0 -0.1216489102
C  C305  1  0.08144000  0.42046000  0.73652000  1.0 -0.1424980785
C  C306  1  0.96258000  0.12865000  0.63491000  1.0 -0.0798435031
C  C307  1  0.95444000  0.20368000  0.70095000  1.0 -0.1484645402
C  C308  1  0.62018000  0.34799000  0.81623000  1.0 -0.1669861278
C  C309  1  0.99987000  0.16752000  0.65232000  1.0 -0.1578717588
C  C310  1  0.02659000  0.52133000  0.78827000  1.0 0.618499654
C  C311  1  0.26263000  0.26926000  0.69600000  1.0 0.0095420655
C  C312  1  0.01254000  0.43334000  0.78921000  1.0 -0.0798435031
C  C313  1  0.11234000  0.32543000  0.73186000  1.0 -0.1828789736
C  C314  1  0.65990000  0.39188000  0.89693000  1.0 0.0907437701
C  C315  1  0.17082000  0.27590000  0.70824000  1.0 0.0698652712
C  C316  1  0.03702000  0.24684000  0.70244000  1.0 0.0907437701
C  C317  1  0.94828000  0.69413000  0.79416000  1.0 -0.0252030654
C  C318  1  0.86785000  0.50940000  0.88256000  1.0 -0.0215985861
C  C319  1  0.02166000  0.38789000  0.77571000  1.0 -0.1484645402
C  C320  1  0.17745000  0.24588000  0.67070000  1.0 -0.1484645402
C  C321  1  0.69887000  0.40816000  0.97965000  1.0 0.0986985377
C  C322  1  0.91073000  0.53714000  0.87110000  1.0 0.5500349178
C  C323  1  0.08326000  0.24301000  0.70101000  1.0 -0.1913805863
C  C324  1  0.03682000  0.47211000  0.77494000  1.0 -0.0215985861
C  C325  1  0.12131000  0.28243000  0.71429000  1.0 0.0907437701
C  C326  1  0.70086000  0.41415000  0.88569000  1.0 -0.1913805863
C  C327  1  0.61664000  0.37117000  0.86016000  1.0 0.0698652712
C  C328  1  0.22250000  0.24111000  0.66282000  1.0 -0.0798435031
C  C329  1  0.66018000  0.39051000  0.94446000  1.0 -0.1913805863
C  C330  1  0.99784000  0.20525000  0.68547000  1.0 0.0646851593
C  C331  1  0.87995000  0.08519000  0.63161000  1.0 0.618499654
C  C332  1  0.78720000  0.45909000  0.90804000  1.0 0.0698652712
C  C333  1  0.02964000  0.29222000  0.71916000  1.0 -0.1913805863
C  C334  1  0.69708000  0.40584000  0.03032000  1.0 0.0646851593
C  C335  1  0.74002000  0.43024000  0.96766000  1.0 -0.197197338
C  C336  1  0.05624000  0.38000000  0.75007000  1.0 0.0698652712
C  C337  1  0.91987000  0.12683000  0.64911000  1.0 -0.0215985861
C  C338  1  0.74186000  0.43436000  0.92036000  1.0 0.0986985377
C  C339  1  0.16290000  0.63509000  0.69939000  1.0 -0.5964132672
C  C340  1  0.99160000  0.63190000  0.98260000  1.0 -0.5599930005
C  C341  1  0.30240000  0.75580000  0.49250000  1.0 0.5434463198
C  C342  1  0.33189000  0.73522000  0.06571000  1.0 0.0907437701
C  C343  1  0.65800000  0.94310000  0.97980000  1.0 0.7009702598
C  C344  1  0.62400000  0.74210000  0.14940000  1.0 0.6886379594
C  C345  1  0.76899000  0.79070000  0.92164000  1.0 -0.1484645402
C  C346  1  0.40350000  0.10898000  0.73554000  1.0 -0.0798435031
C  C347  1  0.40120000  0.09424000  0.65496000  1.0 -0.0854142706
C  C348  1  0.40197000  0.04445000  0.65700000  1.0 -0.1424980785
C  C349  1  0.40721000  0.06373000  0.73649000  1.0 -0.1578717588
C  C350  1  0.74125000  0.78724000  0.95647000  1.0 -0.0708878368
C  C351  1  0.29860000  0.63490000  0.41620000  1.0 0.5790022904
C  C352  1  0.32361000  0.78115000  0.57962000  1.0 -0.0610823659
C  C353  1  0.74904000  0.79961000  0.87787000  1.0 0.0698652712
C  C354  1  0.40158000  0.12533000  0.69288000  1.0 -0.0215985861
C  C355  1  0.30370000  0.74179000  0.21039000  1.0 -0.1424980785
C  C356  1  0.34921000  0.83375000  0.53169000  1.0 -0.0708878368
C  C357  1  0.47796000  0.86674000  0.78269000  1.0 -0.1578717588
C  C358  1  0.40460000  0.18370000  0.68510000  1.0 0.5168627078
C  C359  1  0.50182000  0.85368000  0.82388000  1.0 -0.0708878368
C  C360  1  0.81109000  0.77457000  0.83567000  1.0 -0.197197338
C  C361  1  0.66627000  0.79046000  0.98605000  1.0 0.5959608033
C  C362  1  0.77649000  0.80170000  0.84068000  1.0 0.0907437701
C  C363  1  0.37103000  0.86783000  0.57080000  1.0 -0.1484645402
C  C364  1  0.30017000  0.73401000  0.25566000  1.0 -0.0854142706
C  C365  1  0.49061000  0.92299000  0.87033000  1.0 -0.0610823659
C  C366  1  0.46320000  0.93323000  0.82804000  1.0 -0.1424980785
C  C367  1  0.46400000  0.74931000  0.07149000  1.0 -0.0708878368
C  C368  1  0.16565000  0.68420000  0.91778000  1.0 -0.0708878368
C  C369  1  0.26551000  0.68932000  0.31287000  1.0 0.5500349178
C  C370  1  0.32615000  0.79073000  0.53423000  1.0 -0.0380117062
C  C371  1  0.67759000  0.80408000  0.90705000  1.0 -0.0610823659
C  C372  1  0.70332000  0.80657000  0.87118000  1.0 -0.1216489102
C  C373  1  0.42046000  0.73652000  0.08144000  1.0 -0.1424980785
C  C374  1  0.12865000  0.63491000  0.96258000  1.0 -0.0798435031
C  C375  1  0.20368000  0.70095000  0.95444000  1.0 -0.1484645402
C  C376  1  0.34799000  0.81623000  0.62018000  1.0 -0.1669861278
C  C377  1  0.16752000  0.65232000  0.99987000  1.0 -0.1578717588
C  C378  1  0.52133000  0.78827000  0.02659000  1.0 0.618499654
C  C379  1  0.26926000  0.69600000  0.26263000  1.0 0.0095420655
C  C380  1  0.43334000  0.78921000  0.01254000  1.0 -0.0798435031
C  C381  1  0.32543000  0.73186000  0.11234000  1.0 -0.1828789736
C  C382  1  0.39188000  0.89693000  0.65990000  1.0 0.0907437701
C  C383  1  0.27590000  0.70824000  0.17082000  1.0 0.0698652712
C  C384  1  0.24684000  0.70244000  0.03702000  1.0 0.0907437701
C  C385  1  0.69413000  0.79416000  0.94828000  1.0 -0.0252030654
C  C386  1  0.50940000  0.88256000  0.86785000  1.0 -0.0215985861
C  C387  1  0.38789000  0.77571000  0.02166000  1.0 -0.1484645402
C  C388  1  0.24588000  0.67070000  0.17745000  1.0 -0.1484645402
C  C389  1  0.40816000  0.97965000  0.69887000  1.0 0.0986985377
C  C390  1  0.53714000  0.87110000  0.91073000  1.0 0.5500349178
C  C391  1  0.24301000  0.70101000  0.08326000  1.0 -0.197197338
C  C392  1  0.47211000  0.77494000  0.03682000  1.0 -0.0215985861
C  C393  1  0.28243000  0.71429000  0.12131000  1.0 0.0907437701
C  C394  1  0.41415000  0.88569000  0.70086000  1.0 -0.1913805863
C  C395  1  0.37117000  0.86016000  0.61664000  1.0 0.0698652712
C  C396  1  0.24111000  0.66282000  0.22250000  1.0 -0.0798435031
C  C397  1  0.39051000  0.94446000  0.66018000  1.0 -0.1913805863
C  C398  1  0.20525000  0.68547000  0.99784000  1.0 0.0646851593
C  C399  1  0.08519000  0.63161000  0.87995000  1.0 0.618499654
C  C400  1  0.45909000  0.90804000  0.78720000  1.0 0.0698652712
C  C401  1  0.29222000  0.71916000  0.02964000  1.0 -0.1913805863
C  C402  1  0.40584000  0.03032000  0.69708000  1.0 0.0646851593
C  C403  1  0.43024000  0.96766000  0.74002000  1.0 -0.197197338
C  C404  1  0.38000000  0.75007000  0.05624000  1.0 0.0698652712
C  C405  1  0.12683000  0.64911000  0.91987000  1.0 -0.0215985861
C  C406  1  0.43436000  0.92036000  0.74186000  1.0 0.0986985377
C  C407  1  0.63509000  0.69939000  0.16290000  1.0 -0.5964132672
C  C408  1  0.63190000  0.98260000  0.99160000  1.0 -0.5599930005
O  O1  1  0.04590000  0.00700000  0.29450000  1.0 -0.46064842
O  O2  1  0.23561000  0.54922000  0.69579000  1.0 -0.5599930005
O  O3  1  0.28258000  0.50412000  0.71981000  1.0 -0.5258828944
O  O4  1  0.22539000  0.83201000  0.40160000  1.0 -0.5112474884
O  O5  1  0.33409000  0.58300000  0.67561000  1.0 -0.3988335436
O  O6  1  0.38580000  0.56670000  0.72870000  1.0 -0.3268049544
O  O7  1  0.79804000  0.27794000  0.60424000  1.0 -0.4190518782
O  O8  1  0.81237000  0.34820000  0.60473000  1.0 -0.2891243999
O  O9  1  0.29669000  0.99117000  0.40061000  1.0 -0.7251989072
O  O10  1  0.34856000  0.68326000  0.75901000  1.0 -0.5423145618
O  O11  1  0.25567000  0.89245000  0.36251000  1.0 -0.6987810011
O  O12  1  0.10241000  0.03024000  0.35572000  1.0 -0.6567880219
O  O13  1  0.22600000  0.94944000  0.44631000  1.0 -0.6325581496
O  O14  1  0.22349000  0.97687000  0.31570000  1.0 -0.5804197019
O  O15  1  0.27882000  0.65216000  0.71450000  1.0 -0.5804197019
O  O16  1  0.10316000  0.04778000  0.45974000  1.0 -0.5890457208
O  O17  1  0.39507000  0.11345000  0.94984000  1.0 -0.5890457208
O  O18  1  0.35527000  0.15992000  0.91128000  1.0 -0.6483682817
O  O19  1  0.18850000  0.00536000  0.47313000  1.0 -0.6090378787
O  O20  1  0.16361000  0.09453000  0.44185000  1.0 -0.5804197019
O  O21  1  0.20017000  0.01748000  0.37575000  1.0 -0.6987810011
O  O22  1  0.00700000  0.29450000  0.04590000  1.0 -0.46064842
O  O23  1  0.54922000  0.69579000  0.23561000  1.0 -0.5599930005
O  O24  1  0.50412000  0.71981000  0.28258000  1.0 -0.5258828944
O  O25  1  0.83201000  0.40160000  0.22539000  1.0 -0.5112474884
O  O26  1  0.58300000  0.67561000  0.33409000  1.0 -0.3988335436
O  O27  1  0.56670000  0.72870000  0.38580000  1.0 -0.3268049544
O  O28  1  0.27794000  0.60424000  0.79804000  1.0 -0.4190518782
O  O29  1  0.34820000  0.60473000  0.81237000  1.0 -0.2891243999
O  O30  1  0.99117000  0.40061000  0.29669000  1.0 -0.7251989072
O  O31  1  0.68326000  0.75901000  0.34856000  1.0 -0.5423145618
O  O32  1  0.89245000  0.36251000  0.25567000  1.0 -0.6987810011
O  O33  1  0.03024000  0.35572000  0.10241000  1.0 -0.6567880219
O  O34  1  0.94944000  0.44631000  0.22600000  1.0 -0.6325581496
O  O35  1  0.97687000  0.31570000  0.22349000  1.0 -0.5804197019
O  O36  1  0.65216000  0.71450000  0.27882000  1.0 -0.5804197019
O  O37  1  0.04778000  0.45974000  0.10316000  1.0 -0.5890457208
O  O38  1  0.11345000  0.94984000  0.39507000  1.0 -0.5890457208
O  O39  1  0.15992000  0.91128000  0.35527000  1.0 -0.6483682817
O  O40  1  0.00536000  0.47313000  0.18850000  1.0 -0.6090378787
O  O41  1  0.09453000  0.44185000  0.16361000  1.0 -0.5804197019
O  O42  1  0.01748000  0.37575000  0.20017000  1.0 -0.6987810011
O  O43  1  0.29450000  0.04590000  0.00700000  1.0 -0.46064842
O  O44  1  0.69579000  0.23561000  0.54922000  1.0 -0.5599930005
O  O45  1  0.71981000  0.28258000  0.50412000  1.0 -0.5258828944
O  O46  1  0.40160000  0.22539000  0.83201000  1.0 -0.5112474884
O  O47  1  0.67561000  0.33409000  0.58300000  1.0 -0.3988335436
O  O48  1  0.72870000  0.38580000  0.56670000  1.0 -0.3268049544
O  O49  1  0.60424000  0.79804000  0.27794000  1.0 -0.4190518782
O  O50  1  0.60473000  0.81237000  0.34820000  1.0 -0.2891243999
O  O51  1  0.40061000  0.29669000  0.99117000  1.0 -0.7251989072
O  O52  1  0.75901000  0.34856000  0.68326000  1.0 -0.5423145618
O  O53  1  0.36251000  0.25567000  0.89245000  1.0 -0.6987810011
O  O54  1  0.35572000  0.10241000  0.03024000  1.0 -0.6567880219
O  O55  1  0.44631000  0.22600000  0.94944000  1.0 -0.6325581496
O  O56  1  0.31570000  0.22349000  0.97687000  1.0 -0.5804197019
O  O57  1  0.71450000  0.27882000  0.65216000  1.0 -0.5804197019
O  O58  1  0.45974000  0.10316000  0.04778000  1.0 -0.5890457208
O  O59  1  0.94984000  0.39507000  0.11345000  1.0 -0.5890457208
O  O60  1  0.91128000  0.35527000  0.15992000  1.0 -0.6483682817
O  O61  1  0.47313000  0.18850000  0.00536000  1.0 -0.6090378787
O  O62  1  0.44185000  0.16361000  0.09453000  1.0 -0.5804197019
O  O63  1  0.37575000  0.20017000  0.01748000  1.0 -0.6987810011
O  O64  1  0.95410000  0.99300000  0.70550000  1.0 -0.46064842
O  O65  1  0.76439000  0.45078000  0.30421000  1.0 -0.5599930005
O  O66  1  0.71742000  0.49588000  0.28019000  1.0 -0.5258828944
O  O67  1  0.77461000  0.16799000  0.59840000  1.0 -0.5112474884
O  O68  1  0.66591000  0.41700000  0.32439000  1.0 -0.3988335436
O  O69  1  0.61420000  0.43330000  0.27130000  1.0 -0.3268049544
O  O70  1  0.20196000  0.72206000  0.39576000  1.0 -0.4190518782
O  O71  1  0.18763000  0.65180000  0.39527000  1.0 -0.2891243999
O  O72  1  0.70331000  0.00883000  0.59939000  1.0 -0.7251989072
O  O73  1  0.65144000  0.31674000  0.24099000  1.0 -0.5423145618
O  O74  1  0.74433000  0.10755000  0.63749000  1.0 -0.6987810011
O  O75  1  0.89759000  0.96976000  0.64428000  1.0 -0.6567880219
O  O76  1  0.77400000  0.05056000  0.55369000  1.0 -0.6325581496
O  O77  1  0.77651000  0.02313000  0.68430000  1.0 -0.5804197019
O  O78  1  0.72118000  0.34784000  0.28550000  1.0 -0.5804197019
O  O79  1  0.89684000  0.95222000  0.54026000  1.0 -0.5890457208
O  O80  1  0.60493000  0.88655000  0.05016000  1.0 -0.5890457208
O  O81  1  0.64473000  0.84008000  0.08872000  1.0 -0.6483682817
O  O82  1  0.81150000  0.99464000  0.52687000  1.0 -0.6090378787
O  O83  1  0.83639000  0.90547000  0.55815000  1.0 -0.5804197019
O  O84  1  0.79983000  0.98252000  0.62425000  1.0 -0.6987810011
O  O85  1  0.99300000  0.70550000  0.95410000  1.0 -0.46064842
O  O86  1  0.45078000  0.30421000  0.76439000  1.0 -0.5599930005
O  O87  1  0.49588000  0.28019000  0.71742000  1.0 -0.5224801129
O  O88  1  0.16799000  0.59840000  0.77461000  1.0 -0.5112474884
O  O89  1  0.41700000  0.32439000  0.66591000  1.0 -0.4101875847
O  O90  1  0.43330000  0.27130000  0.61420000  1.0 -0.3362079685
O  O91  1  0.72206000  0.39576000  0.20196000  1.0 -0.4190518782
O  O92  1  0.65180000  0.39527000  0.18763000  1.0 -0.2891243999
O  O93  1  0.00883000  0.59939000  0.70331000  1.0 -0.7251989072
O  O94  1  0.31674000  0.24099000  0.65144000  1.0 -0.5423145618
O  O95  1  0.10755000  0.63749000  0.74433000  1.0 -0.6987810011
O  O96  1  0.96976000  0.64428000  0.89759000  1.0 -0.6567880219
O  O97  1  0.05056000  0.55369000  0.77400000  1.0 -0.6325581496
O  O98  1  0.02313000  0.68430000  0.77651000  1.0 -0.5804197019
O  O99  1  0.34784000  0.28550000  0.72118000  1.0 -0.5700176781
O  O100  1  0.95222000  0.54026000  0.89684000  1.0 -0.5890457208
O  O101  1  0.88655000  0.05016000  0.60493000  1.0 -0.5890457208
O  O102  1  0.84008000  0.08872000  0.64473000  1.0 -0.6483682817
O  O103  1  0.99464000  0.52687000  0.81150000  1.0 -0.6090378787
O  O104  1  0.90547000  0.55815000  0.83639000  1.0 -0.5804197019
O  O105  1  0.98252000  0.62425000  0.79983000  1.0 -0.6987810011
O  O106  1  0.70550000  0.95410000  0.99300000  1.0 -0.46064842
O  O107  1  0.30421000  0.76439000  0.45078000  1.0 -0.5599930005
O  O108  1  0.28019000  0.71742000  0.49588000  1.0 -0.5258828944
O  O109  1  0.59840000  0.77461000  0.16799000  1.0 -0.5112474884
O  O110  1  0.32439000  0.66591000  0.41700000  1.0 -0.3988335436
O  O111  1  0.27130000  0.61420000  0.43330000  1.0 -0.3268049544
O  O112  1  0.39576000  0.20196000  0.72206000  1.0 -0.4190518782
O  O113  1  0.39527000  0.18763000  0.65180000  1.0 -0.2833514934
O  O114  1  0.59939000  0.70331000  0.00883000  1.0 -0.7251989072
O  O115  1  0.24099000  0.65144000  0.31674000  1.0 -0.5423145618
O  O116  1  0.63749000  0.74433000  0.10755000  1.0 -0.6987810011
O  O117  1  0.64428000  0.89759000  0.96976000  1.0 -0.6483682817
O  O118  1  0.55369000  0.77400000  0.05056000  1.0 -0.6325581496
O  O119  1  0.68430000  0.77651000  0.02313000  1.0 -0.5804197019
O  O120  1  0.28550000  0.72118000  0.34784000  1.0 -0.5804197019
O  O121  1  0.54026000  0.89684000  0.95222000  1.0 -0.5890457208
O  O122  1  0.05016000  0.60493000  0.88655000  1.0 -0.5890457208
O  O123  1  0.08872000  0.64473000  0.84008000  1.0 -0.6483682817
O  O124  1  0.52687000  0.81150000  0.99464000  1.0 -0.6090378787
O  O125  1  0.55815000  0.83639000  0.90547000  1.0 -0.5804197019
O  O126  1  0.62425000  0.79983000  0.98252000  1.0 -0.6987810011
