# DDEC6 charges by PACMAN v1.1 (https://github.com/mtap-research/PACMAN-charge/)
data_QIRBUQ_FSR_pacman
_symmetry_space_group_name_H-M   'P 1'
_cell_length_a   17.53110000
_cell_length_b   17.53110000
_cell_length_c   17.53110000
_cell_angle_alpha   102.54000000
_cell_angle_beta   102.54000000
_cell_angle_gamma   124.45500000
_symmetry_Int_Tables_number   1
_chemical_formula_structural   CdH28C22N2O5
_chemical_formula_sum   'Cd8 H224 C176 N16 O40'
_cell_volume   3930.99578411
_cell_formula_units_Z   8
loop_
 _symmetry_equiv_pos_site_id
 _symmetry_equiv_pos_as_xyz
  1  'x, y, z'
loop_
 _atom_site_type_symbol
 _atom_site_label
 _atom_site_symmetry_multiplicity
 _atom_site_fract_x
 _atom_site_fract_y
 _atom_site_fract_z
 _atom_site_occupancy
 _atom_site_charge
Cd  Cd1  1  0.74618000  0.42713000  0.84153000  1.0 0.9014928285
Cd  Cd2  1  0.58560000  0.90465000  0.15847000  1.0 0.9014928285
Cd  Cd3  1  0.15465000  0.49618000  0.81905000  1.0 0.9014928285
Cd  Cd4  1  0.67713000  0.33560000  0.18095000  1.0 0.9014928285
Cd  Cd5  1  0.50382000  0.32287000  0.65847000  1.0 0.9014928285
Cd  Cd6  1  0.66440000  0.84535000  0.34153000  1.0 0.9014928285
Cd  Cd7  1  0.09535000  0.25382000  0.68095000  1.0 0.9014928285
Cd  Cd8  1  0.57287000  0.41440000  0.31905000  1.0 0.9014928285
H  H1  1  0.79610000  0.62050000  0.92940000  1.0 0.3662167545
H  H2  1  0.69110000  0.86670000  0.07060000  1.0 0.3662167545
H  H3  1  0.11670000  0.54610000  0.67560000  1.0 0.3662167545
H  H4  1  0.87050000  0.44110000  0.32440000  1.0 0.3662167545
H  H5  1  0.45390000  0.12950000  0.57060000  1.0 0.3662167545
H  H6  1  0.55890000  0.88330000  0.42940000  1.0 0.3662167545
H  H7  1  0.13330000  0.20390000  0.82440000  1.0 0.3662167545
H  H8  1  0.37950000  0.30890000  0.17560000  1.0 0.3662167545
H  H9  1  0.71780000  0.56590000  0.84210000  1.0 0.3900370988
H  H10  1  0.72380000  0.87570000  0.15790000  1.0 0.3900370988
H  H11  1  0.12570000  0.46780000  0.65190000  1.0 0.3900370988
H  H12  1  0.81590000  0.47380000  0.34810000  1.0 0.3900370988
H  H13  1  0.53220000  0.18410000  0.65790000  1.0 0.3900370988
H  H14  1  0.52620000  0.87430000  0.34210000  1.0 0.3900370988
H  H15  1  0.12430000  0.28220000  0.84810000  1.0 0.3900370988
H  H16  1  0.43410000  0.27620000  0.15190000  1.0 0.3900370988
H  H17  1  0.93240000  0.62040000  0.84080000  1.0 0.1275863025
H  H18  1  0.77960000  0.09160000  0.15920000  1.0 0.1275863025
H  H19  1  0.34160000  0.68240000  0.81200000  1.0 0.1275863025
H  H20  1  0.87040000  0.52960000  0.18800000  1.0 0.1275863025
H  H21  1  0.31760000  0.12960000  0.65920000  1.0 0.1275863025
H  H22  1  0.47040000  0.65840000  0.34080000  1.0 0.1275863025
H  H23  1  0.90840000  0.06760000  0.68800000  1.0 0.1275863025
H  H24  1  0.37960000  0.22040000  0.31200000  1.0 0.1275863025
H  H25  1  0.02480000  0.79100000  0.92820000  1.0 0.1109203457
H  H26  1  0.86280000  0.09660000  0.07180000  1.0 0.1109203457
H  H27  1  0.34660000  0.77480000  0.73380000  1.0 0.1109203457
H  H28  1  0.04100000  0.61280000  0.26620000  1.0 0.1109203457
H  H29  1  0.22520000  0.95900000  0.57180000  1.0 0.1109203457
H  H30  1  0.38720000  0.65340000  0.42820000  1.0 0.1109203457
H  H31  1  0.90340000  0.97520000  0.76620000  1.0 0.1109203457
H  H32  1  0.20900000  0.13720000  0.23380000  1.0 0.1109203457
H  H33  1  0.25510000  0.80670000  0.05580000  1.0 0.1220682509
H  H34  1  0.75090000  0.19930000  0.94420000  1.0 0.1220682509
H  H35  1  0.44930000  0.00510000  0.94840000  1.0 0.1220682509
H  H36  1  0.05670000  0.50090000  0.05160000  1.0 0.1220682509
H  H37  1  0.99490000  0.94330000  0.44420000  1.0 0.1220682509
H  H38  1  0.49910000  0.55070000  0.55580000  1.0 0.1220682509
H  H39  1  0.80070000  0.74490000  0.55160000  1.0 0.1220682509
H  H40  1  0.19330000  0.24910000  0.44840000  1.0 0.1220682509
H  H41  1  0.15530000  0.63270000  0.97780000  1.0 0.1220682509
H  H42  1  0.65490000  0.17750000  0.02220000  1.0 0.1220682509
H  H43  1  0.42750000  0.90530000  0.02260000  1.0 0.1220682509
H  H44  1  0.88270000  0.40490000  0.97740000  1.0 0.1220682509
H  H45  1  0.09470000  0.11730000  0.52220000  1.0 0.1220682509
H  H46  1  0.59510000  0.57250000  0.47780000  1.0 0.1220682509
H  H47  1  0.82250000  0.84470000  0.47740000  1.0 0.1220682509
H  H48  1  0.36730000  0.34510000  0.52260000  1.0 0.1220682509
H  H49  1  0.09060000  0.94060000  0.03460000  1.0 0.1005131136
H  H50  1  0.90600000  0.05600000  0.96540000  1.0 0.1005131136
H  H51  1  0.30600000  0.84060000  0.65000000  1.0 0.1005131136
H  H52  1  0.19060000  0.65600000  0.35000000  1.0 0.1005131136
H  H53  1  0.15940000  0.80940000  0.46540000  1.0 0.1005131136
H  H54  1  0.34400000  0.69400000  0.53460000  1.0 0.1005131136
H  H55  1  0.94400000  0.90940000  0.85000000  1.0 0.1005131136
H  H56  1  0.05940000  0.09400000  0.15000000  1.0 0.1005131136
H  H57  1  0.19910000  0.04540000  0.06490000  1.0 0.0707129727
H  H58  1  0.98050000  0.13420000  0.93510000  1.0 0.0707129727
H  H59  1  0.38420000  0.94910000  0.65370000  1.0 0.0707129727
H  H60  1  0.29540000  0.73050000  0.34630000  1.0 0.0707129727
H  H61  1  0.05090000  0.70460000  0.43510000  1.0 0.0707129727
H  H62  1  0.26950000  0.61580000  0.56490000  1.0 0.0707129727
H  H63  1  0.86580000  0.80090000  0.84630000  1.0 0.0707129727
H  H64  1  0.95460000  0.01950000  0.15370000  1.0 0.0707129727
H  H65  1  0.14060000  0.96310000  0.96970000  1.0 0.0707129727
H  H66  1  0.99340000  0.17090000  0.03030000  1.0 0.0707129727
H  H67  1  0.42090000  0.89060000  0.67750000  1.0 0.0707129727
H  H68  1  0.21310000  0.74340000  0.32250000  1.0 0.0707129727
H  H69  1  0.10940000  0.78690000  0.53030000  1.0 0.0707129727
H  H70  1  0.25660000  0.57910000  0.46970000  1.0 0.0707129727
H  H71  1  0.82910000  0.85940000  0.82250000  1.0 0.0707129727
H  H72  1  0.03690000  0.00660000  0.17750000  1.0 0.0707129727
H  H73  1  0.30590000  0.02480000  0.00870000  1.0 0.0610244479
H  H74  1  0.01610000  0.29720000  0.99130000  1.0 0.0610244479
H  H75  1  0.54720000  0.05590000  0.78110000  1.0 0.0610244479
H  H76  1  0.27480000  0.76610000  0.21890000  1.0 0.0610244479
H  H77  1  0.94410000  0.72520000  0.49130000  1.0 0.0610244479
H  H78  1  0.23390000  0.45280000  0.50870000  1.0 0.0610244479
H  H79  1  0.70280000  0.69410000  0.71890000  1.0 0.0610244479
H  H80  1  0.97520000  0.98390000  0.28110000  1.0 0.0610244479
H  H81  1  0.35400000  0.04860000  0.10580000  1.0 0.0707129727
H  H82  1  0.94280000  0.24820000  0.89420000  1.0 0.0707129727
H  H83  1  0.49820000  0.10400000  0.80540000  1.0 0.0707129727
H  H84  1  0.29860000  0.69280000  0.19460000  1.0 0.0707129727
H  H85  1  0.89600000  0.70140000  0.39420000  1.0 0.0707129727
H  H86  1  0.30720000  0.50180000  0.60580000  1.0 0.0707129727
H  H87  1  0.75180000  0.64600000  0.69460000  1.0 0.0707129727
H  H88  1  0.95140000  0.05720000  0.30540000  1.0 0.0707129727
H  H89  1  0.31950000  0.95120000  0.03330000  1.0 0.0707129727
H  H90  1  0.91790000  0.28620000  0.96670000  1.0 0.0707129727
H  H91  1  0.53620000  0.06950000  0.86830000  1.0 0.0707129727
H  H92  1  0.20120000  0.66790000  0.13170000  1.0 0.0707129727
H  H93  1  0.93050000  0.79880000  0.46670000  1.0 0.0707129727
H  H94  1  0.33210000  0.46380000  0.53330000  1.0 0.0707129727
H  H95  1  0.71380000  0.68050000  0.63170000  1.0 0.0707129727
H  H96  1  0.04880000  0.08210000  0.36830000  1.0 0.0707129727
H  H97  1  0.27330000  0.94160000  0.16690000  1.0 0.0896849871
H  H98  1  0.77470000  0.10640000  0.83310000  1.0 0.0896849871
H  H99  1  0.35640000  0.02330000  0.83170000  1.0 0.0896849871
H  H100  1  0.19160000  0.52470000  0.16830000  1.0 0.0896849871
H  H101  1  0.97670000  0.80840000  0.33310000  1.0 0.0896849871
H  H102  1  0.47530000  0.64360000  0.66690000  1.0 0.0896849871
H  H103  1  0.89360000  0.72670000  0.66830000  1.0 0.0896849871
H  H104  1  0.05840000  0.22530000  0.33170000  1.0 0.0896849871
H  H105  1  0.24250000  0.01030000  0.17440000  1.0 0.0803220225
H  H106  1  0.83590000  0.06810000  0.82560000  1.0 0.0803220225
H  H107  1  0.31810000  0.99250000  0.73220000  1.0 0.0803220225
H  H108  1  0.26030000  0.58590000  0.26780000  1.0 0.0803220225
H  H109  1  0.00750000  0.73970000  0.32560000  1.0 0.0803220225
H  H110  1  0.41410000  0.68190000  0.67440000  1.0 0.0803220225
H  H111  1  0.93190000  0.75750000  0.76780000  1.0 0.0803220225
H  H112  1  0.98970000  0.16410000  0.23220000  1.0 0.0803220225
H  H113  1  0.15840000  0.89170000  0.13930000  1.0 0.0896849871
H  H114  1  0.75240000  0.01910000  0.86070000  1.0 0.0896849871
H  H115  1  0.26910000  0.90840000  0.76670000  1.0 0.0896849871
H  H116  1  0.14170000  0.50240000  0.23330000  1.0 0.0896849871
H  H117  1  0.09160000  0.85830000  0.36070000  1.0 0.0896849871
H  H118  1  0.49760000  0.73090000  0.63930000  1.0 0.0896849871
H  H119  1  0.98090000  0.84160000  0.73330000  1.0 0.0896849871
H  H120  1  0.10830000  0.24760000  0.26670000  1.0 0.0896849871
H  H121  1  0.94560000  0.59470000  0.96810000  1.0 0.0610244479
H  H122  1  0.62660000  0.97750000  0.03190000  1.0 0.0610244479
H  H123  1  0.22750000  0.69560000  0.85090000  1.0 0.0610244479
H  H124  1  0.84470000  0.37660000  0.14910000  1.0 0.0610244479
H  H125  1  0.30440000  0.15530000  0.53190000  1.0 0.0610244479
H  H126  1  0.62340000  0.77250000  0.46810000  1.0 0.0610244479
H  H127  1  0.02250000  0.05440000  0.64910000  1.0 0.0610244479
H  H128  1  0.40530000  0.37340000  0.35090000  1.0 0.0610244479
H  H129  1  0.03470000  0.76820000  0.04650000  1.0 0.1109203457
H  H130  1  0.72170000  0.98820000  0.95350000  1.0 0.1109203457
H  H131  1  0.23820000  0.78470000  0.76650000  1.0 0.1109203457
H  H132  1  0.01820000  0.47170000  0.23350000  1.0 0.1109203457
H  H133  1  0.21530000  0.98180000  0.45350000  1.0 0.1109203457
H  H134  1  0.52830000  0.76180000  0.54650000  1.0 0.1109203457
H  H135  1  0.01180000  0.96530000  0.73350000  1.0 0.1109203457
H  H136  1  0.23180000  0.27830000  0.26650000  1.0 0.1109203457
H  H137  1  0.21460000  0.83850000  0.92630000  1.0 0.1109203457
H  H138  1  0.91220000  0.28830000  0.07370000  1.0 0.1109203457
H  H139  1  0.53830000  0.96460000  0.87610000  1.0 0.1109203457
H  H140  1  0.08850000  0.66220000  0.12390000  1.0 0.1109203457
H  H141  1  0.03540000  0.91150000  0.57370000  1.0 0.1109203457
H  H142  1  0.33780000  0.46170000  0.42630000  1.0 0.1109203457
H  H143  1  0.71170000  0.78540000  0.62390000  1.0 0.1109203457
H  H144  1  0.16150000  0.08780000  0.37610000  1.0 0.1109203457
H  H145  1  0.12560000  0.66290000  0.84410000  1.0 0.0803220225
H  H146  1  0.81880000  0.28150000  0.15590000  1.0 0.0803220225
H  H147  1  0.53150000  0.87560000  0.96270000  1.0 0.0803220225
H  H148  1  0.91290000  0.56880000  0.03730000  1.0 0.0803220225
H  H149  1  0.12440000  0.08710000  0.65590000  1.0 0.0803220225
H  H150  1  0.43120000  0.46850000  0.34410000  1.0 0.0803220225
H  H151  1  0.71850000  0.87440000  0.53730000  1.0 0.0803220225
H  H152  1  0.33710000  0.18120000  0.46270000  1.0 0.0803220225
H  H153  1  0.14050000  0.93420000  0.13590000  1.0 0.046645699
H  H154  1  0.79830000  0.00460000  0.86410000  1.0 0.046645699
H  H155  1  0.25460000  0.89050000  0.70630000  1.0 0.046645699
H  H156  1  0.18420000  0.54830000  0.29370000  1.0 0.046645699
H  H157  1  0.10950000  0.81580000  0.36410000  1.0 0.046645699
H  H158  1  0.45170000  0.74540000  0.63590000  1.0 0.046645699
H  H159  1  0.99540000  0.85950000  0.79370000  1.0 0.046645699
H  H160  1  0.06580000  0.20170000  0.20630000  1.0 0.046645699
H  H161  1  0.19000000  0.03090000  0.11650000  1.0 0.0610244479
H  H162  1  0.91440000  0.07350000  0.88350000  1.0 0.0610244479
H  H163  1  0.32350000  0.94000000  0.65910000  1.0 0.0610244479
H  H164  1  0.28090000  0.66440000  0.34090000  1.0 0.0610244479
H  H165  1  0.06000000  0.71910000  0.38350000  1.0 0.0610244479
H  H166  1  0.33560000  0.67650000  0.61650000  1.0 0.0610244479
H  H167  1  0.92650000  0.81000000  0.84090000  1.0 0.0610244479
H  H168  1  0.96910000  0.08560000  0.15910000  1.0 0.0610244479
H  H169  1  0.08810000  0.92510000  0.04580000  1.0 0.1005131136
H  H170  1  0.87930000  0.04230000  0.95420000  1.0 0.1005131136
H  H171  1  0.29230000  0.83810000  0.66300000  1.0 0.1005131136
H  H172  1  0.17510000  0.62930000  0.33700000  1.0 0.1005131136
H  H173  1  0.16190000  0.82490000  0.45420000  1.0 0.1005131136
H  H174  1  0.37070000  0.70770000  0.54580000  1.0 0.1005131136
H  H175  1  0.95770000  0.91190000  0.83700000  1.0 0.1005131136
H  H176  1  0.07490000  0.12070000  0.16300000  1.0 0.1005131136
H  H177  1  0.16240000  0.97100000  0.95600000  1.0 0.0803220225
H  H178  1  0.01500000  0.20640000  0.04400000  1.0 0.0803220225
H  H179  1  0.45640000  0.91240000  0.69140000  1.0 0.0803220225
H  H180  1  0.22100000  0.76500000  0.30860000  1.0 0.0803220225
H  H181  1  0.08760000  0.77900000  0.54400000  1.0 0.0803220225
H  H182  1  0.23500000  0.54360000  0.45600000  1.0 0.0803220225
H  H183  1  0.79360000  0.83760000  0.80860000  1.0 0.0803220225
H  H184  1  0.02900000  0.98500000  0.19140000  1.0 0.0803220225
H  H185  1  0.27690000  0.05150000  0.02340000  1.0 0.0896849871
H  H186  1  0.02810000  0.25350000  0.97660000  1.0 0.0896849871
H  H187  1  0.50350000  0.02690000  0.72540000  1.0 0.0896849871
H  H188  1  0.30150000  0.77810000  0.27460000  1.0 0.0896849871
H  H189  1  0.97310000  0.69850000  0.47660000  1.0 0.0896849871
H  H190  1  0.22190000  0.49650000  0.52340000  1.0 0.0896849871
H  H191  1  0.74650000  0.72310000  0.77460000  1.0 0.0896849871
H  H192  1  0.94850000  0.97190000  0.22540000  1.0 0.0896849871
H  H193  1  0.23760000  0.94950000  0.95370000  1.0 0.0707129727
H  H194  1  0.99580000  0.28390000  0.04630000  1.0 0.0707129727
H  H195  1  0.53390000  0.98760000  0.78810000  1.0 0.0707129727
H  H196  1  0.19950000  0.74580000  0.21190000  1.0 0.0707129727
H  H197  1  0.01240000  0.80050000  0.54630000  1.0 0.0707129727
H  H198  1  0.25420000  0.46610000  0.45370000  1.0 0.0707129727
H  H199  1  0.71610000  0.76240000  0.71190000  1.0 0.0707129727
H  H200  1  0.05050000  0.00420000  0.28810000  1.0 0.0707129727
H  H201  1  0.35730000  0.00010000  0.10060000  1.0 0.0707129727
H  H202  1  0.89950000  0.25670000  0.89940000  1.0 0.0707129727
H  H203  1  0.50670000  0.10730000  0.85720000  1.0 0.0707129727
H  H204  1  0.25010000  0.64950000  0.14280000  1.0 0.0707129727
H  H205  1  0.89270000  0.74990000  0.39940000  1.0 0.0707129727
H  H206  1  0.35050000  0.49330000  0.60060000  1.0 0.0707129727
H  H207  1  0.74330000  0.64270000  0.64280000  1.0 0.0707129727
H  H208  1  0.99990000  0.10050000  0.35720000  1.0 0.0707129727
H  H209  1  0.32960000  0.05740000  0.15380000  1.0 0.0896849871
H  H210  1  0.90360000  0.17580000  0.84620000  1.0 0.0896849871
H  H211  1  0.42580000  0.07960000  0.77220000  1.0 0.0896849871
H  H212  1  0.30740000  0.65360000  0.22780000  1.0 0.0896849871
H  H213  1  0.92040000  0.69260000  0.34620000  1.0 0.0896849871
H  H214  1  0.34640000  0.57420000  0.65380000  1.0 0.0896849871
H  H215  1  0.82420000  0.67040000  0.72780000  1.0 0.0896849871
H  H216  1  0.94260000  0.09640000  0.27220000  1.0 0.0896849871
H  H217  1  0.29630000  0.95350000  0.15380000  1.0 0.0803220225
H  H218  1  0.79970000  0.14250000  0.84620000  1.0 0.0803220225
H  H219  1  0.39250000  0.04630000  0.84280000  1.0 0.0803220225
H  H220  1  0.20350000  0.54970000  0.15720000  1.0 0.0803220225
H  H221  1  0.95370000  0.79650000  0.34620000  1.0 0.0803220225
H  H222  1  0.45030000  0.60750000  0.65380000  1.0 0.0803220225
H  H223  1  0.85750000  0.70370000  0.65720000  1.0 0.0803220225
H  H224  1  0.04650000  0.20030000  0.34280000  1.0 0.0803220225
C  C1  1  0.73140000  0.24550000  0.73770000  1.0 0.5379018876
C  C2  1  0.50780000  0.99370000  0.26230000  1.0 0.5379018876
C  C3  1  0.24370000  0.48140000  0.98590000  1.0 0.5379018876
C  C4  1  0.49550000  0.25780000  0.01410000  1.0 0.5379018876
C  C5  1  0.51860000  0.50450000  0.76230000  1.0 0.5379018876
C  C6  1  0.74220000  0.75630000  0.23770000  1.0 0.5379018876
C  C7  1  0.00630000  0.26860000  0.51410000  1.0 0.5379018876
C  C8  1  0.75450000  0.49220000  0.48590000  1.0 0.5379018876
C  C9  1  0.93510000  0.28250000  0.72440000  1.0 0.5669304151
C  C10  1  0.55810000  0.21070000  0.27560000  1.0 0.5669304151
C  C11  1  0.46070000  0.68510000  0.15260000  1.0 0.5669304151
C  C12  1  0.53250000  0.30810000  0.84740000  1.0 0.5669304151
C  C13  1  0.31490000  0.46750000  0.77560000  1.0 0.5669304151
C  C14  1  0.69190000  0.53930000  0.22440000  1.0 0.5669304151
C  C15  1  0.78930000  0.06490000  0.34740000  1.0 0.5669304151
C  C16  1  0.71750000  0.44190000  0.65260000  1.0 0.5669304151
C  C17  1  0.84020000  0.33920000  0.77640000  1.0 0.0303613804
C  C18  1  0.56280000  0.06380000  0.22360000  1.0 0.0303613804
C  C19  1  0.31380000  0.59020000  0.00100000  1.0 0.0303613804
C  C20  1  0.58920000  0.31280000  0.99900000  1.0 0.0303613804
C  C21  1  0.40980000  0.41080000  0.72360000  1.0 0.0303613804
C  C22  1  0.68720000  0.68620000  0.27640000  1.0 0.0303613804
C  C23  1  0.93620000  0.15980000  0.49900000  1.0 0.0303613804
C  C24  1  0.66080000  0.43720000  0.50100000  1.0 0.0303613804
C  C25  1  0.92400000  0.35390000  0.77090000  1.0 0.0114021562
C  C26  1  0.58300000  0.15310000  0.22910000  1.0 0.0114021562
C  C27  1  0.40310000  0.67400000  0.07010000  1.0 0.0114021562
C  C28  1  0.60390000  0.33300000  0.92990000  1.0 0.0114021562
C  C29  1  0.32600000  0.39610000  0.72910000  1.0 0.0114021562
C  C30  1  0.66700000  0.59690000  0.27090000  1.0 0.0114021562
C  C31  1  0.84690000  0.07600000  0.42990000  1.0 0.0114021562
C  C32  1  0.64610000  0.41700000  0.57010000  1.0 0.0114021562
C  C33  1  0.97040000  0.49910000  0.84790000  1.0 0.3120611254
C  C34  1  0.65120000  0.12250000  0.15210000  1.0 0.3120611254
C  C35  1  0.37250000  0.72040000  0.97130000  1.0 0.3120611254
C  C36  1  0.74910000  0.40120000  0.02870000  1.0 0.3120611254
C  C37  1  0.27960000  0.25090000  0.65210000  1.0 0.3120611254
C  C38  1  0.59880000  0.62750000  0.34790000  1.0 0.3120611254
C  C39  1  0.87750000  0.02960000  0.52870000  1.0 0.3120611254
C  C40  1  0.50090000  0.34880000  0.47130000  1.0 0.3120611254
C  C41  1  0.03160000  0.60910000  0.89950000  1.0 0.0303613804
C  C42  1  0.70960000  0.13210000  0.10050000  1.0 0.0303613804
C  C43  1  0.38210000  0.78160000  0.92250000  1.0 0.0303613804
C  C44  1  0.85910000  0.45960000  0.07750000  1.0 0.0303613804
C  C45  1  0.21840000  0.14090000  0.60050000  1.0 0.0303613804
C  C46  1  0.54040000  0.61790000  0.39950000  1.0 0.0303613804
C  C47  1  0.86790000  0.96840000  0.57750000  1.0 0.0303613804
C  C48  1  0.39090000  0.29040000  0.42250000  1.0 0.0303613804
C  C49  1  0.99600000  0.65620000  0.88540000  1.0 -0.0496694535
C  C50  1  0.77080000  0.11060000  0.11460000  1.0 -0.0496694535
C  C51  1  0.36060000  0.74600000  0.83980000  1.0 -0.0496694535
C  C52  1  0.90620000  0.52080000  0.16020000  1.0 -0.0496694535
C  C53  1  0.25400000  0.09380000  0.61460000  1.0 -0.0496694535
C  C54  1  0.47920000  0.63940000  0.38540000  1.0 -0.0496694535
C  C55  1  0.88940000  0.00400000  0.66020000  1.0 -0.0496694535
C  C56  1  0.34380000  0.22920000  0.33980000  1.0 -0.0496694535
C  C57  1  0.05420000  0.76150000  0.93790000  1.0 -0.0496694535
C  C58  1  0.82360000  0.11630000  0.06210000  1.0 -0.0496694535
C  C59  1  0.36630000  0.80420000  0.79270000  1.0 -0.0496694535
C  C60  1  0.01150000  0.57360000  0.20730000  1.0 -0.0496694535
C  C61  1  0.19580000  0.98850000  0.56210000  1.0 -0.0496694535
C  C62  1  0.42640000  0.63370000  0.43790000  1.0 -0.0496694535
C  C63  1  0.88370000  0.94580000  0.70730000  1.0 -0.0496694535
C  C64  1  0.23850000  0.17640000  0.29270000  1.0 -0.0496694535
C  C65  1  0.14660000  0.81960000  0.99900000  1.0 0.0220092826
C  C66  1  0.82060000  0.14760000  0.00100000  1.0 0.0220092826
C  C67  1  0.39760000  0.89660000  0.82700000  1.0 0.0220092826
C  C68  1  0.06960000  0.57060000  0.17300000  1.0 0.0220092826
C  C69  1  0.10340000  0.93040000  0.50100000  1.0 0.0220092826
C  C70  1  0.42940000  0.60240000  0.49900000  1.0 0.0220092826
C  C71  1  0.85240000  0.85340000  0.67300000  1.0 0.0220092826
C  C72  1  0.18040000  0.17940000  0.32700000  1.0 0.0220092826
C  C73  1  0.18930000  0.76920000  0.01430000  1.0 -0.140278047
C  C74  1  0.75490000  0.17500000  0.98570000  1.0 -0.140278047
C  C75  1  0.42500000  0.93930000  0.92010000  1.0 -0.140278047
C  C76  1  0.01920000  0.50490000  0.07990000  1.0 -0.140278047
C  C77  1  0.06070000  0.98080000  0.48570000  1.0 -0.140278047
C  C78  1  0.49510000  0.57500000  0.51430000  1.0 -0.140278047
C  C79  1  0.82500000  0.81070000  0.57990000  1.0 -0.140278047
C  C80  1  0.23080000  0.24510000  0.42010000  1.0 -0.140278047
C  C81  1  0.13030000  0.66560000  0.96630000  1.0 -0.1180471611
C  C82  1  0.69930000  0.16400000  0.03370000  1.0 -0.1180471611
C  C83  1  0.41400000  0.88030000  0.96470000  1.0 -0.1180471611
C  C84  1  0.91560000  0.44930000  0.03530000  1.0 -0.1180471611
C  C85  1  0.11970000  0.08440000  0.53370000  1.0 -0.1180471611
C  C86  1  0.55070000  0.58600000  0.46630000  1.0 -0.1180471611
C  C87  1  0.83600000  0.86970000  0.53530000  1.0 -0.1180471611
C  C88  1  0.33440000  0.30070000  0.46470000  1.0 -0.1180471611
C  C89  1  0.20400000  0.93210000  0.05130000  1.0 0.1220682509
C  C90  1  0.88080000  0.15270000  0.94870000  1.0 0.1275863025
C  C91  1  0.40270000  0.95400000  0.77190000  1.0 0.1220682509
C  C92  1  0.18210000  0.63080000  0.22810000  1.0 0.1220682509
C  C93  1  0.04600000  0.81790000  0.44870000  1.0 0.1220682509
C  C94  1  0.36920000  0.59730000  0.55130000  1.0 0.1220682509
C  C95  1  0.84730000  0.79600000  0.72810000  1.0 0.1220682509
C  C96  1  0.06790000  0.11920000  0.27190000  1.0 0.1275863025
C  C97  1  0.15370000  0.97360000  0.02870000  1.0 -0.2246708777
C  C98  1  0.94490000  0.12500000  0.97130000  1.0 -0.2246708777
C  C99  1  0.37500000  0.90370000  0.68010000  1.0 -0.2246708777
C  C100  1  0.22360000  0.69490000  0.31990000  1.0 -0.2246708777
C  C101  1  0.09630000  0.77640000  0.47130000  1.0 -0.2246708777
C  C102  1  0.30510000  0.62500000  0.52870000  1.0 -0.2246708777
C  C103  1  0.87500000  0.84630000  0.81990000  1.0 -0.2246708777
C  C104  1  0.02640000  0.05510000  0.18010000  1.0 -0.2246708777
C  C105  1  0.30430000  0.99540000  0.04910000  1.0 -0.1690022909
C  C106  1  0.94630000  0.25520000  0.95090000  1.0 -0.1690022909
C  C107  1  0.50520000  0.05430000  0.80890000  1.0 -0.1690022909
C  C108  1  0.24540000  0.69630000  0.19110000  1.0 -0.1690022909
C  C109  1  0.94570000  0.75460000  0.45090000  1.0 -0.1690022909
C  C110  1  0.30370000  0.49480000  0.54910000  1.0 -0.1690022909
C  C111  1  0.74480000  0.69570000  0.69110000  1.0 -0.1690022909
C  C112  1  0.00460000  0.05370000  0.30890000  1.0 -0.1690022909
C  C113  1  0.22210000  0.94550000  0.14100000  1.0 -0.1873096433
C  C114  1  0.80450000  0.08110000  0.85900000  1.0 -0.1873096433
C  C115  1  0.33110000  0.97210000  0.77660000  1.0 -0.1873096433
C  C116  1  0.19550000  0.55450000  0.22340000  1.0 -0.1873096433
C  C117  1  0.02790000  0.80450000  0.35900000  1.0 -0.1873096433
C  C118  1  0.44550000  0.66890000  0.64100000  1.0 -0.1873096433
C  C119  1  0.91890000  0.77790000  0.72340000  1.0 -0.1873096433
C  C120  1  0.05450000  0.19550000  0.27660000  1.0 -0.1873096433
C  C121  1  0.00200000  0.64300000  0.96080000  1.0 -0.0693350044
C  C122  1  0.68220000  0.04120000  0.03920000  1.0 -0.0693350044
C  C123  1  0.29120000  0.75200000  0.85900000  1.0 -0.0693350044
C  C124  1  0.89300000  0.43220000  0.14100000  1.0 -0.0693350044
C  C125  1  0.24800000  0.10700000  0.53920000  1.0 -0.0693350044
C  C126  1  0.56780000  0.70880000  0.46080000  1.0 -0.0693350044
C  C127  1  0.95880000  0.99800000  0.64100000  1.0 -0.0693350044
C  C128  1  0.35700000  0.31780000  0.35900000  1.0 -0.0693350044
C  C129  1  0.05600000  0.74670000  0.00930000  1.0 -0.1478712615
C  C130  1  0.73740000  0.04670000  0.99070000  1.0 -0.1478712615
C  C131  1  0.29670000  0.80600000  0.80930000  1.0 -0.1478712615
C  C132  1  0.99670000  0.48740000  0.19070000  1.0 -0.1478712615
C  C133  1  0.19400000  0.00330000  0.49070000  1.0 -0.1478712615
C  C134  1  0.51260000  0.70330000  0.50930000  1.0 -0.1478712615
C  C135  1  0.95330000  0.94400000  0.69070000  1.0 -0.1478712615
C  C136  1  0.25330000  0.26260000  0.30930000  1.0 -0.1478712615
C  C137  1  0.16420000  0.79000000  0.93860000  1.0 -0.0641858578
C  C138  1  0.85140000  0.22560000  0.06140000  1.0 -0.0641858578
C  C139  1  0.47560000  0.91420000  0.87420000  1.0 -0.0641858578
C  C140  1  0.04000000  0.60140000  0.12580000  1.0 -0.0641858578
C  C141  1  0.08580000  0.96000000  0.56140000  1.0 -0.0641858578
C  C142  1  0.39860000  0.52440000  0.43860000  1.0 -0.0641858578
C  C143  1  0.77440000  0.83580000  0.62580000  1.0 -0.0641858578
C  C144  1  0.21000000  0.14860000  0.37420000  1.0 -0.0641858578
C  C145  1  0.10800000  0.68150000  0.88650000  1.0 -0.0416550678
C  C146  1  0.79500000  0.22150000  0.11350000  1.0 -0.0416550678
C  C147  1  0.47150000  0.85800000  0.92650000  1.0 -0.0416550678
C  C148  1  0.93150000  0.54500000  0.07350000  1.0 -0.0416550678
C  C149  1  0.14200000  0.06850000  0.61350000  1.0 -0.0416550678
C  C150  1  0.45500000  0.52850000  0.38650000  1.0 -0.0416550678
C  C151  1  0.77850000  0.89200000  0.57350000  1.0 -0.0416550678
C  C152  1  0.31850000  0.20500000  0.42650000  1.0 -0.0416550678
C  C153  1  0.15240000  0.95860000  0.09220000  1.0 -0.1991593391
C  C154  1  0.86640000  0.06020000  0.90780000  1.0 -0.1991593391
C  C155  1  0.31020000  0.90240000  0.69380000  1.0 -0.1991593391
C  C156  1  0.20860000  0.61640000  0.30620000  1.0 -0.1991593391
C  C157  1  0.09760000  0.79140000  0.40780000  1.0 -0.1991593391
C  C158  1  0.38360000  0.68980000  0.59220000  1.0 -0.1991593391
C  C159  1  0.93980000  0.84760000  0.80620000  1.0 -0.1991593391
C  C160  1  0.04140000  0.13360000  0.19380000  1.0 -0.1991593391
C  C161  1  0.22000000  0.98000000  0.99060000  1.0 -0.2088957764
C  C162  1  0.98940000  0.22940000  0.00940000  1.0 -0.2088957764
C  C163  1  0.47940000  0.97000000  0.74000000  1.0 -0.2088957764
C  C164  1  0.23000000  0.73940000  0.26000000  1.0 -0.2088957764
C  C165  1  0.03000000  0.77000000  0.50940000  1.0 -0.2088957764
C  C166  1  0.26060000  0.52060000  0.49060000  1.0 -0.2088957764
C  C167  1  0.77060000  0.78000000  0.76000000  1.0 -0.2088957764
C  C168  1  0.02000000  0.01060000  0.24000000  1.0 -0.2088957764
C  C169  1  0.30680000  0.99170000  0.11970000  1.0 -0.2088957764
C  C170  1  0.87200000  0.18710000  0.88030000  1.0 -0.2088957764
C  C171  1  0.43710000  0.05680000  0.81510000  1.0 -0.2088957764
C  C172  1  0.24170000  0.62200000  0.18490000  1.0 -0.2088957764
C  C173  1  0.94320000  0.75830000  0.38030000  1.0 -0.2088957764
C  C174  1  0.37800000  0.56290000  0.61970000  1.0 -0.2088957764
C  C175  1  0.81290000  0.69320000  0.68490000  1.0 -0.2088957764
C  C176  1  0.00830000  0.12800000  0.31510000  1.0 -0.2088957764
N  N1  1  0.86973000  0.43074000  0.82627000  1.0 -0.3883842174
N  N2  1  0.60447000  0.04346000  0.17373000  1.0 -0.3883842174
N  N3  1  0.29346000  0.61973000  0.93899000  1.0 -0.3883842174
N  N4  1  0.68074000  0.35447000  0.06101000  1.0 -0.3883842174
N  N5  1  0.38027000  0.31926000  0.67373000  1.0 -0.3883842174
N  N6  1  0.64553000  0.70654000  0.32627000  1.0 -0.3883842174
N  N7  1  0.95654000  0.13027000  0.56101000  1.0 -0.3883842174
N  N8  1  0.56926000  0.39553000  0.43899000  1.0 -0.3883842174
N  N9  1  0.00670000  0.45609000  0.81659000  1.0 -0.3883842174
N  N10  1  0.63950000  0.19011000  0.18341000  1.0 -0.3883842174
N  N11  1  0.44011000  0.75670000  0.05061000  1.0 -0.3883842174
N  N12  1  0.70609000  0.38950000  0.94939000  1.0 -0.3883842174
N  N13  1  0.24330000  0.29391000  0.68341000  1.0 -0.3883842174
N  N14  1  0.61050000  0.55989000  0.31659000  1.0 -0.3883842174
N  N15  1  0.80989000  0.99330000  0.44939000  1.0 -0.3883842174
N  N16  1  0.54391000  0.36050000  0.55061000  1.0 -0.3883842174
O  O1  1  0.66961000  0.25128000  0.75409000  1.0 -0.5427353439
O  O2  1  0.49719000  0.91552000  0.24591000  1.0 -0.5427353439
O  O3  1  0.16552000  0.41961000  0.91833000  1.0 -0.5427353439
O  O4  1  0.50128000  0.24719000  0.08167000  1.0 -0.5427353439
O  O5  1  0.58039000  0.49872000  0.74591000  1.0 -0.5427353439
O  O6  1  0.75281000  0.83448000  0.25409000  1.0 -0.5427353439
O  O7  1  0.08448000  0.33039000  0.58167000  1.0 -0.5427353439
O  O8  1  0.74872000  0.50281000  0.41833000  1.0 -0.5427353439
O  O9  1  0.70650000  0.16140000  0.69010000  1.0 -0.5483614859
O  O10  1  0.47130000  0.01640000  0.30990000  1.0 -0.5483614859
O  O11  1  0.26640000  0.45650000  0.04510000  1.0 -0.5483614859
O  O12  1  0.41140000  0.22130000  0.95490000  1.0 -0.5483614859
O  O13  1  0.54350000  0.58860000  0.80990000  1.0 -0.5483614859
O  O14  1  0.77870000  0.73360000  0.19010000  1.0 -0.5483614859
O  O15  1  0.98360000  0.29350000  0.45490000  1.0 -0.5483614859
O  O16  1  0.83860000  0.52870000  0.54510000  1.0 -0.5483614859
O  O17  1  0.85750000  0.18964000  0.68134000  1.0 -0.5018397477
O  O18  1  0.50830000  0.17616000  0.31866000  1.0 -0.5018397477
O  O19  1  0.42616000  0.60750000  0.16786000  1.0 -0.5018397477
O  O20  1  0.43964000  0.25830000  0.83214000  1.0 -0.5018397477
O  O21  1  0.39250000  0.56036000  0.81866000  1.0 -0.5018397477
O  O22  1  0.74170000  0.57384000  0.18134000  1.0 -0.5018397477
O  O23  1  0.82384000  0.14250000  0.33214000  1.0 -0.5018397477
O  O24  1  0.81036000  0.49170000  0.66786000  1.0 -0.5018397477
O  O25  1  0.02284000  0.31865000  0.73209000  1.0 -0.5556538534
O  O26  1  0.58656000  0.29075000  0.26791000  1.0 -0.5556538534
O  O27  1  0.54075000  0.77284000  0.20419000  1.0 -0.5556538534
O  O28  1  0.56865000  0.33656000  0.79581000  1.0 -0.5556538534
O  O29  1  0.22716000  0.43135000  0.76791000  1.0 -0.5556538534
O  O30  1  0.66344000  0.45925000  0.23209000  1.0 -0.5556538534
O  O31  1  0.70925000  0.97716000  0.29581000  1.0 -0.5556538534
O  O32  1  0.68135000  0.41344000  0.70419000  1.0 -0.5556538534
O  O33  1  0.76460000  0.57110000  0.87650000  1.0 -0.7277531829
O  O34  1  0.69460000  0.88810000  0.12350000  1.0 -0.7277531829
O  O35  1  0.13810000  0.51460000  0.69350000  1.0 -0.7277531829
O  O36  1  0.82110000  0.44460000  0.30650000  1.0 -0.7277531829
O  O37  1  0.48540000  0.17890000  0.62350000  1.0 -0.7277531829
O  O38  1  0.55540000  0.86190000  0.37650000  1.0 -0.7277531829
O  O39  1  0.11190000  0.23540000  0.80650000  1.0 -0.7277531829
O  O40  1  0.42890000  0.30540000  0.19350000  1.0 -0.7277531829
