# DDEC6 charges by PACMAN v1.1 (https://github.com/mtap-research/PACMAN-charge/)
data_QIRWAR_ASR_pacman
_symmetry_space_group_name_H-M   'P 1'
_cell_length_a   13.28700000
_cell_length_b   11.02400000
_cell_length_c   14.74500000
_cell_angle_alpha   90.00000000
_cell_angle_beta   97.27000000
_cell_angle_gamma   90.00000000
_symmetry_Int_Tables_number   1
_chemical_formula_structural   Cu5H8C20(N5O9)2
_chemical_formula_sum   'Cu10 H16 C40 N20 O36'
_cell_volume   2142.42409014
_cell_formula_units_Z   2
loop_
 _symmetry_equiv_pos_site_id
 _symmetry_equiv_pos_as_xyz
  1  'x, y, z'
loop_
 _atom_site_type_symbol
 _atom_site_label
 _atom_site_symmetry_multiplicity
 _atom_site_fract_x
 _atom_site_fract_y
 _atom_site_fract_z
 _atom_site_occupancy
 _atom_site_charge
Cu  Cu1  1  0.76686000  0.71258000  0.98530000  1.0 0.8531577447
Cu  Cu2  1  0.73314000  0.21258000  0.01470000  1.0 0.8531577447
Cu  Cu3  1  0.23314000  0.28742000  0.01470000  1.0 0.8531577447
Cu  Cu4  1  0.26686000  0.78742000  0.98530000  1.0 0.8531577447
Cu  Cu5  1  0.76348000  0.80270000  0.68559000  1.0 0.662994028
Cu  Cu6  1  0.73652000  0.30270000  0.31441000  1.0 0.662994028
Cu  Cu7  1  0.23652000  0.19730000  0.31441000  1.0 0.662994028
Cu  Cu8  1  0.26348000  0.69730000  0.68559000  1.0 0.662994028
Cu  Cu9  1  0.00000000  0.50000000  0.50000000  1.0 0.8838899443
Cu  Cu10  1  0.50000000  0.00000000  0.50000000  1.0 0.885280461
H  H1  1  0.71270000  0.22540000  0.80160000  1.0 0.1481385836
H  H2  1  0.78730000  0.72540000  0.19840000  1.0 0.1481385836
H  H3  1  0.28730000  0.77460000  0.19840000  1.0 0.1481385836
H  H4  1  0.21270000  0.27460000  0.80160000  1.0 0.1481385836
H  H5  1  0.73130000  0.08370000  0.68780000  1.0 0.1306120911
H  H6  1  0.76870000  0.58370000  0.31220000  1.0 0.1306120911
H  H7  1  0.26870000  0.91630000  0.31220000  1.0 0.1306120911
H  H8  1  0.23130000  0.41630000  0.68780000  1.0 0.1306120911
H  H9  1  0.96790000  0.91950000  0.78230000  1.0 0.1306120911
H  H10  1  0.53210000  0.41950000  0.21770000  1.0 0.1306120911
H  H11  1  0.03210000  0.08050000  0.21770000  1.0 0.1306120911
H  H12  1  0.46790000  0.58050000  0.78230000  1.0 0.1306120911
H  H13  1  0.13810000  0.87700000  0.77830000  1.0 0.141912193
H  H14  1  0.36190000  0.37700000  0.22170000  1.0 0.141912193
H  H15  1  0.86190000  0.12300000  0.22170000  1.0 0.141912193
H  H16  1  0.63810000  0.62300000  0.77830000  1.0 0.141912193
C  C1  1  0.76610000  0.90390000  0.85900000  1.0 0.4068122813
C  C2  1  0.73390000  0.40390000  0.14100000  1.0 0.4068122813
C  C3  1  0.23390000  0.09610000  0.14100000  1.0 0.4068122813
C  C4  1  0.26610000  0.59610000  0.85900000  1.0 0.4068122813
C  C5  1  0.75720000  0.99310000  0.92680000  1.0 -0.0482381685
C  C6  1  0.74280000  0.49310000  0.07320000  1.0 -0.0482381685
C  C7  1  0.24280000  0.00690000  0.07320000  1.0 -0.0482381685
C  C8  1  0.25720000  0.50690000  0.92680000  1.0 -0.0482381685
C  C9  1  0.76910000  0.96650000  0.02690000  1.0 0.5721742818
C  C10  1  0.73090000  0.46650000  0.97310000  1.0 0.5721742818
C  C11  1  0.23090000  0.03350000  0.97310000  1.0 0.5721742818
C  C12  1  0.26910000  0.53350000  0.02690000  1.0 0.5721742818
C  C13  1  0.72740000  0.14320000  0.81750000  1.0 0.0331832273
C  C14  1  0.77260000  0.64320000  0.18250000  1.0 0.0331832273
C  C15  1  0.27260000  0.85680000  0.18250000  1.0 0.0331832273
C  C16  1  0.22740000  0.35680000  0.81750000  1.0 0.0331832273
C  C17  1  0.73820000  0.05850000  0.74990000  1.0 0.0635452652
C  C18  1  0.76180000  0.55850000  0.25010000  1.0 0.0635452652
C  C19  1  0.26180000  0.94150000  0.25010000  1.0 0.0635452652
C  C20  1  0.23820000  0.44150000  0.74990000  1.0 0.0635452652
C  C21  1  0.04770000  0.66420000  0.64620000  1.0 0.431651921
C  C22  1  0.45230000  0.16420000  0.35380000  1.0 0.431651921
C  C23  1  0.95230000  0.33580000  0.35380000  1.0 0.431651921
C  C24  1  0.54770000  0.83580000  0.64620000  1.0 0.431651921
C  C25  1  0.94340000  0.69190000  0.64950000  1.0 -0.0703850715
C  C26  1  0.55660000  0.19190000  0.35050000  1.0 -0.0703850715
C  C27  1  0.05660000  0.30810000  0.35050000  1.0 -0.0703850715
C  C28  1  0.44340000  0.80810000  0.64950000  1.0 -0.0703850715
C  C29  1  0.85690000  0.62120000  0.60080000  1.0 0.5721742818
C  C30  1  0.64310000  0.12120000  0.39920000  1.0 0.5721742818
C  C31  1  0.14310000  0.37880000  0.39920000  1.0 0.5721742818
C  C32  1  0.35690000  0.87880000  0.60080000  1.0 0.5721742818
C  C33  1  0.98710000  0.85350000  0.74680000  1.0 0.0100408285
C  C34  1  0.51290000  0.35350000  0.25320000  1.0 0.0100408285
C  C35  1  0.01290000  0.14650000  0.25320000  1.0 0.0100408285
C  C36  1  0.48710000  0.64650000  0.74680000  1.0 0.0100408285
C  C37  1  0.08820000  0.82780000  0.74420000  1.0 0.0887723202
C  C38  1  0.41180000  0.32780000  0.25580000  1.0 0.0887723202
C  C39  1  0.91180000  0.17220000  0.25580000  1.0 0.0887723202
C  C40  1  0.58820000  0.67220000  0.74420000  1.0 0.0887723202
N  N1  1  0.75800000  0.94220000  0.77020000  1.0 -0.2986082948
N  N2  1  0.74200000  0.44220000  0.22980000  1.0 -0.2986082948
N  N3  1  0.24200000  0.05780000  0.22980000  1.0 -0.2986082948
N  N4  1  0.25800000  0.55780000  0.77020000  1.0 -0.2986082948
N  N5  1  0.73780000  0.10870000  0.90510000  1.0 -0.1518687895
N  N6  1  0.76220000  0.60870000  0.09490000  1.0 -0.1518687895
N  N7  1  0.26220000  0.89130000  0.09490000  1.0 -0.1518687895
N  N8  1  0.23780000  0.39130000  0.90510000  1.0 -0.1518687895
N  N9  1  0.53010000  0.81270000  0.96560000  1.0 0.7110093096
N  N10  1  0.96990000  0.31270000  0.03440000  1.0 0.7110093096
N  N11  1  0.46990000  0.18730000  0.03440000  1.0 0.7110093096
N  N12  1  0.03010000  0.68730000  0.96560000  1.0 0.7110093096
N  N13  1  0.91640000  0.78500000  0.69900000  1.0 -0.1638333342
N  N14  1  0.58360000  0.28500000  0.30100000  1.0 -0.1638333342
N  N15  1  0.08360000  0.21500000  0.30100000  1.0 -0.1638333342
N  N16  1  0.41640000  0.71500000  0.69900000  1.0 -0.1638333342
N  N17  1  0.11820000  0.73550000  0.69510000  1.0 -0.2683871677
N  N18  1  0.38180000  0.23550000  0.30490000  1.0 -0.2683871677
N  N19  1  0.88180000  0.26450000  0.30490000  1.0 -0.2683871677
N  N20  1  0.61820000  0.76450000  0.69510000  1.0 -0.2683871677
O  O1  1  0.78810000  0.86130000  0.05700000  1.0 -0.4865330449
O  O2  1  0.71190000  0.36130000  0.94300000  1.0 -0.4865330449
O  O3  1  0.21190000  0.13870000  0.94300000  1.0 -0.4865330449
O  O4  1  0.28810000  0.63870000  0.05700000  1.0 -0.4865330449
O  O5  1  0.76080000  0.05670000  0.07909000  1.0 -0.4658111846
O  O6  1  0.73920000  0.55670000  0.92091000  1.0 -0.4658111846
O  O7  1  0.23920000  0.94330000  0.92091000  1.0 -0.4658111846
O  O8  1  0.26080000  0.44330000  0.07909000  1.0 -0.4658111846
O  O9  1  0.78010000  0.79030000  0.87210000  1.0 -0.5029440216
O  O10  1  0.71990000  0.29030000  0.12790000  1.0 -0.5029440216
O  O11  1  0.21990000  0.20970000  0.12790000  1.0 -0.5029440216
O  O12  1  0.28010000  0.70970000  0.87210000  1.0 -0.5029440216
O  O13  1  0.58690000  0.72710000  0.99840000  1.0 -0.4865330449
O  O14  1  0.91310000  0.22710000  0.00160000  1.0 -0.4865330449
O  O15  1  0.41310000  0.27290000  0.00160000  1.0 -0.4865330449
O  O16  1  0.08690000  0.77290000  0.99840000  1.0 -0.4865330449
O  O17  1  0.55570000  0.87250000  0.90030000  1.0 -0.4429621628
O  O18  1  0.94430000  0.37250000  0.09970000  1.0 -0.4429621628
O  O19  1  0.44430000  0.12750000  0.09970000  1.0 -0.4429621628
O  O20  1  0.05570000  0.62750000  0.90030000  1.0 -0.4429621628
O  O21  1  0.45100000  0.83650000  0.99860000  1.0 -0.4453199795
O  O22  1  0.04900000  0.33650000  0.00140000  1.0 -0.4429621628
O  O23  1  0.54900000  0.16350000  0.00140000  1.0 -0.4453199795
O  O24  1  0.95100000  0.66350000  0.99860000  1.0 -0.4453199795
O  O25  1  0.76920000  0.65390000  0.61380000  1.0 -0.4814785412
O  O26  1  0.73080000  0.15390000  0.38620000  1.0 -0.4814785412
O  O27  1  0.23080000  0.34610000  0.38620000  1.0 -0.4814785412
O  O28  1  0.26920000  0.84610000  0.61380000  1.0 -0.4814785412
O  O29  1  0.87270000  0.53410000  0.54980000  1.0 -0.5354185989
O  O30  1  0.62730000  0.03410000  0.45020000  1.0 -0.5354185989
O  O31  1  0.12730000  0.46590000  0.45020000  1.0 -0.5354185989
O  O32  1  0.37270000  0.96590000  0.54980000  1.0 -0.5354185989
O  O33  1  0.08020000  0.57750000  0.60110000  1.0 -0.5513510993
O  O34  1  0.41980000  0.07750000  0.39890000  1.0 -0.5513510993
O  O35  1  0.91980000  0.42250000  0.39890000  1.0 -0.5513510993
O  O36  1  0.58020000  0.92250000  0.60110000  1.0 -0.5513510993
