# DDEC6 charges by PACMAN v1.1 (https://github.com/mtap-research/PACMAN-charge/)
data_QITDOO_FSR_pacman
_symmetry_space_group_name_H-M   'P 1'
_cell_length_a   23.19300000
_cell_length_b   23.19300000
_cell_length_c   23.19300000
_cell_angle_alpha   96.92180000
_cell_angle_beta   96.92180000
_cell_angle_gamma   139.37400000
_symmetry_Int_Tables_number   1
_chemical_formula_structural   LaH9C18O7
_chemical_formula_sum   'La16 H144 C288 O112'
_cell_volume   7618.06470616
_cell_formula_units_Z   16
loop_
 _symmetry_equiv_pos_site_id
 _symmetry_equiv_pos_as_xyz
  1  'x, y, z'
loop_
 _atom_site_type_symbol
 _atom_site_label
 _atom_site_symmetry_multiplicity
 _atom_site_fract_x
 _atom_site_fract_y
 _atom_site_fract_z
 _atom_site_occupancy
 _atom_site_charge
La  La1  1  0.90657000  0.60953000  0.75730000  1.0 1.8124180712
La  La2  1  0.85223000  0.14927000  0.24270000  1.0 1.8124180712
La  La3  1  0.39927000  0.65657000  0.79704000  1.0 1.8124180712
La  La4  1  0.85953000  0.60223000  0.20296000  1.0 1.8124180712
La  La5  1  0.35223000  0.10953000  0.70296000  1.0 1.8124180712
La  La6  1  0.40657000  0.64927000  0.29704000  1.0 1.8124180712
La  La7  1  0.35953000  0.15657000  0.25730000  1.0 1.8124180712
La  La8  1  0.89927000  0.10223000  0.74270000  1.0 1.8124180712
La  La9  1  0.60495000  0.36513000  0.71162000  1.0 1.8124180712
La  La10  1  0.65351000  0.89333000  0.28838000  1.0 1.8124180712
La  La11  1  0.14333000  0.35495000  0.73982000  1.0 1.8124180712
La  La12  1  0.61513000  0.40351000  0.26018000  1.0 1.8124180712
La  La13  1  0.15351000  0.86513000  0.76018000  1.0 1.8124180712
La  La14  1  0.10495000  0.39333000  0.23982000  1.0 1.8124180712
La  La15  1  0.11513000  0.85495000  0.21162000  1.0 1.8124180712
La  La16  1  0.64333000  0.90351000  0.78838000  1.0 1.8124180712
H  H1  1  0.83280000  0.34820000  0.71000000  1.0 0.1191388654
H  H2  1  0.63820000  0.12280000  0.29000000  1.0 0.1191388654
H  H3  1  0.37280000  0.58280000  0.98460000  1.0 0.1191388654
H  H4  1  0.59820000  0.38820000  0.01540000  1.0 0.1191388654
H  H5  1  0.13820000  0.84820000  0.51540000  1.0 0.1191388654
H  H6  1  0.33280000  0.62280000  0.48460000  1.0 0.1191388654
H  H7  1  0.09820000  0.08280000  0.21000000  1.0 0.1191388654
H  H8  1  0.87280000  0.88820000  0.79000000  1.0 0.1191388654
H  H9  1  0.83790000  0.25240000  0.70590000  1.0 0.1322099314
H  H10  1  0.54650000  0.13200000  0.29410000  1.0 0.1322099314
H  H11  1  0.38200000  0.58790000  0.08550000  1.0 0.1322099314
H  H12  1  0.50240000  0.29650000  0.91450000  1.0 0.1322099314
H  H13  1  0.04650000  0.75240000  0.41450000  1.0 0.1322099314
H  H14  1  0.33790000  0.63200000  0.58550000  1.0 0.1322099314
H  H15  1  0.00240000  0.08790000  0.20590000  1.0 0.1322099314
H  H16  1  0.88200000  0.79650000  0.79410000  1.0 0.1322099314
H  H17  1  0.07210000  0.39790000  0.88140000  1.0 0.1360569425
H  H18  1  0.51650000  0.19070000  0.11860000  1.0 0.1360569425
H  H19  1  0.44070000  0.82210000  0.17420000  1.0 0.1360569425
H  H20  1  0.64790000  0.26650000  0.82580000  1.0 0.1360569425
H  H21  1  0.01650000  0.89790000  0.32580000  1.0 0.1360569425
H  H22  1  0.57210000  0.69070000  0.67420000  1.0 0.1360569425
H  H23  1  0.14790000  0.32210000  0.38140000  1.0 0.1360569425
H  H24  1  0.94070000  0.76650000  0.61860000  1.0 0.1360569425
H  H25  1  0.17380000  0.53420000  0.96280000  1.0 0.1191388654
H  H26  1  0.57140000  0.21100000  0.03720000  1.0 0.1191388654
H  H27  1  0.46100000  0.92380000  0.13960000  1.0 0.1191388654
H  H28  1  0.78420000  0.32140000  0.86040000  1.0 0.1191388654
H  H29  1  0.07140000  0.03420000  0.36040000  1.0 0.1191388654
H  H30  1  0.67380000  0.71100000  0.63960000  1.0 0.1191388654
H  H31  1  0.28420000  0.42380000  0.46280000  1.0 0.1191388654
H  H32  1  0.96100000  0.82140000  0.53720000  1.0 0.1191388654
H  H33  1  0.17800000  0.63780000  0.96620000  1.0 0.1191388654
H  H34  1  0.67160000  0.21180000  0.03380000  1.0 0.1191388654
H  H35  1  0.46180000  0.92800000  0.04020000  1.0 0.1191388654
H  H36  1  0.88780000  0.42160000  0.95980000  1.0 0.1191388654
H  H37  1  0.17160000  0.13780000  0.45980000  1.0 0.1191388654
H  H38  1  0.67800000  0.71180000  0.54020000  1.0 0.1191388654
H  H39  1  0.38780000  0.42800000  0.46620000  1.0 0.1191388654
H  H40  1  0.96180000  0.92160000  0.53380000  1.0 0.1191388654
H  H41  1  0.06300000  0.59320000  0.89180000  1.0 0.1322099314
H  H42  1  0.70140000  0.17120000  0.10820000  1.0 0.1322099314
H  H43  1  0.42120000  0.81300000  0.96980000  1.0 0.1322099314
H  H44  1  0.84320000  0.45140000  0.03020000  1.0 0.1322099314
H  H45  1  0.20140000  0.09320000  0.53020000  1.0 0.1322099314
H  H46  1  0.56300000  0.67120000  0.46980000  1.0 0.1322099314
H  H47  1  0.34320000  0.31300000  0.39180000  1.0 0.1322099314
H  H48  1  0.92120000  0.95140000  0.60820000  1.0 0.1322099314
H  H49  1  0.40410000  0.22280000  0.49750000  1.0 0.1322099314
H  H50  1  0.72530000  0.90660000  0.50250000  1.0 0.1322099314
H  H51  1  0.15660000  0.15410000  0.68130000  1.0 0.1322099314
H  H52  1  0.47280000  0.47530000  0.31870000  1.0 0.1322099314
H  H53  1  0.22530000  0.72280000  0.81870000  1.0 0.1322099314
H  H54  1  0.90410000  0.40660000  0.18130000  1.0 0.1322099314
H  H55  1  0.97280000  0.65410000  0.99750000  1.0 0.1322099314
H  H56  1  0.65660000  0.97530000  0.00250000  1.0 0.1322099314
H  H57  1  0.31540000  0.12640000  0.39620000  1.0 0.1322099314
H  H58  1  0.73020000  0.91920000  0.60380000  1.0 0.1322099314
H  H59  1  0.16920000  0.06540000  0.68900000  1.0 0.1322099314
H  H60  1  0.37640000  0.48020000  0.31100000  1.0 0.1322099314
H  H61  1  0.23020000  0.62640000  0.81100000  1.0 0.1322099314
H  H62  1  0.81540000  0.41920000  0.18900000  1.0 0.1322099314
H  H63  1  0.87640000  0.56540000  0.89620000  1.0 0.1322099314
H  H64  1  0.66920000  0.98020000  0.10380000  1.0 0.1322099314
H  H65  1  0.25050000  0.87810000  0.38900000  1.0 0.1360569425
H  H66  1  0.48910000  0.86150000  0.61100000  1.0 0.1360569425
H  H67  1  0.11150000  0.00050000  0.87240000  1.0 0.1360569425
H  H68  1  0.12810000  0.23910000  0.12760000  1.0 0.1360569425
H  H69  1  0.98910000  0.37810000  0.62760000  1.0 0.1360569425
H  H70  1  0.75050000  0.36150000  0.37240000  1.0 0.1360569425
H  H71  1  0.62810000  0.50050000  0.88900000  1.0 0.1360569425
H  H72  1  0.61150000  0.73910000  0.11100000  1.0 0.1360569425
H  H73  1  0.28990000  0.84250000  0.45700000  1.0 0.1191388654
H  H74  1  0.38550000  0.83290000  0.54300000  1.0 0.1191388654
H  H75  1  0.08290000  0.03990000  0.94740000  1.0 0.1191388654
H  H76  1  0.09250000  0.13550000  0.05260000  1.0 0.1191388654
H  H77  1  0.88550000  0.34250000  0.55260000  1.0 0.1191388654
H  H78  1  0.78990000  0.33290000  0.44740000  1.0 0.1191388654
H  H79  1  0.59250000  0.53990000  0.95700000  1.0 0.1191388654
H  H80  1  0.58290000  0.63550000  0.04300000  1.0 0.1191388654
H  H81  1  0.38240000  0.94140000  0.55960000  1.0 0.1143094502
H  H82  1  0.38180000  0.82280000  0.44040000  1.0 0.1143094502
H  H83  1  0.07280000  0.13240000  0.94100000  1.0 0.1143094502
H  H84  1  0.19140000  0.13180000  0.05900000  1.0 0.1143094502
H  H85  1  0.88180000  0.44140000  0.55900000  1.0 0.1143094502
H  H86  1  0.88240000  0.32280000  0.44100000  1.0 0.1143094502
H  H87  1  0.69140000  0.63240000  0.05960000  1.0 0.1143094502
H  H88  1  0.57280000  0.63180000  0.94040000  1.0 0.1143094502
H  H89  1  0.43790000  0.07860000  0.59070000  1.0 0.1322099314
H  H90  1  0.48790000  0.84720000  0.40930000  1.0 0.1322099314
H  H91  1  0.09720000  0.18790000  0.85930000  1.0 0.1322099314
H  H92  1  0.32860000  0.23790000  0.14070000  1.0 0.1322099314
H  H93  1  0.98790000  0.57860000  0.64070000  1.0 0.1322099314
H  H94  1  0.93790000  0.34720000  0.35930000  1.0 0.1322099314
H  H95  1  0.82860000  0.68790000  0.09070000  1.0 0.1322099314
H  H96  1  0.59720000  0.73790000  0.90930000  1.0 0.1322099314
H  H97  1  0.73540000  0.53230000  0.54530000  1.0 0.1322099314
H  H98  1  0.98700000  0.19010000  0.45470000  1.0 0.1322099314
H  H99  1  0.44010000  0.48540000  0.70310000  1.0 0.1322099314
H  H100  1  0.78230000  0.73700000  0.29690000  1.0 0.1322099314
H  H101  1  0.48700000  0.03230000  0.79690000  1.0 0.1322099314
H  H102  1  0.23540000  0.69010000  0.20310000  1.0 0.1322099314
H  H103  1  0.28230000  0.98540000  0.04530000  1.0 0.1322099314
H  H104  1  0.94010000  0.23700000  0.95470000  1.0 0.1322099314
H  H105  1  0.64200000  0.45050000  0.44170000  1.0 0.1322099314
H  H106  1  0.00880000  0.20030000  0.55830000  1.0 0.1322099314
H  H107  1  0.45030000  0.39200000  0.69150000  1.0 0.1322099314
H  H108  1  0.70050000  0.75880000  0.30850000  1.0 0.1322099314
H  H109  1  0.50880000  0.95050000  0.80850000  1.0 0.1322099314
H  H110  1  0.14200000  0.70030000  0.19150000  1.0 0.1322099314
H  H111  1  0.20050000  0.89200000  0.94170000  1.0 0.1322099314
H  H112  1  0.95030000  0.25880000  0.05830000  1.0 0.1322099314
H  H113  1  0.52640000  0.16910000  0.40150000  1.0 0.1322099314
H  H114  1  0.76760000  0.12490000  0.59850000  1.0 0.1322099314
H  H115  1  0.37490000  0.27640000  0.85730000  1.0 0.1322099314
H  H116  1  0.41910000  0.51760000  0.14270000  1.0 0.1322099314
H  H117  1  0.26760000  0.66910000  0.64270000  1.0 0.1322099314
H  H118  1  0.02640000  0.62490000  0.35730000  1.0 0.1322099314
H  H119  1  0.91910000  0.77640000  0.90150000  1.0 0.1322099314
H  H120  1  0.87490000  0.01760000  0.09850000  1.0 0.1322099314
H  H121  1  0.55240000  0.11420000  0.45760000  1.0 0.1191388654
H  H122  1  0.65660000  0.09480000  0.54240000  1.0 0.1191388654
H  H123  1  0.34480000  0.30240000  0.93820000  1.0 0.1191388654
H  H124  1  0.36420000  0.40660000  0.06180000  1.0 0.1191388654
H  H125  1  0.15660000  0.61420000  0.56180000  1.0 0.1191388654
H  H126  1  0.05240000  0.59480000  0.43820000  1.0 0.1191388654
H  H127  1  0.86420000  0.80240000  0.95760000  1.0 0.1191388654
H  H128  1  0.84480000  0.90660000  0.04240000  1.0 0.1191388654
H  H129  1  0.64340000  0.19310000  0.56070000  1.0 0.1191388654
H  H130  1  0.63240000  0.08270000  0.43930000  1.0 0.1191388654
H  H131  1  0.33270000  0.39340000  0.95030000  1.0 0.1191388654
H  H132  1  0.44310000  0.38240000  0.04970000  1.0 0.1191388654
H  H133  1  0.13240000  0.69310000  0.54970000  1.0 0.1191388654
H  H134  1  0.14340000  0.58270000  0.45030000  1.0 0.1191388654
H  H135  1  0.94310000  0.89340000  0.06070000  1.0 0.1191388654
H  H136  1  0.83270000  0.88240000  0.93930000  1.0 0.1191388654
H  H137  1  0.71640000  0.33720000  0.60540000  1.0 0.1322099314
H  H138  1  0.73180000  0.11100000  0.39460000  1.0 0.1322099314
H  H139  1  0.36100000  0.46640000  0.87920000  1.0 0.1322099314
H  H140  1  0.58720000  0.48180000  0.12080000  1.0 0.1322099314
H  H141  1  0.23180000  0.83720000  0.62080000  1.0 0.1322099314
H  H142  1  0.21640000  0.61100000  0.37920000  1.0 0.1322099314
H  H143  1  0.08720000  0.96640000  0.10540000  1.0 0.1322099314
H  H144  1  0.86100000  0.98180000  0.89460000  1.0 0.1322099314
C  C1  1  0.92220000  0.50060000  0.78580000  1.0 0.5580012627
C  C2  1  0.71480000  0.13640000  0.21420000  1.0 0.5580012627
C  C3  1  0.38640000  0.67220000  0.92160000  1.0 0.5580012627
C  C4  1  0.75060000  0.46480000  0.07840000  1.0 0.5580012627
C  C5  1  0.21480000  0.00060000  0.57840000  1.0 0.5580012627
C  C6  1  0.42220000  0.63640000  0.42160000  1.0 0.5580012627
C  C7  1  0.25060000  0.17220000  0.28580000  1.0 0.5580012627
C  C8  1  0.88640000  0.96480000  0.71420000  1.0 0.5580012627
C  C9  1  0.93300000  0.44490000  0.79090000  1.0 -0.0614556318
C  C10  1  0.65400000  0.14210000  0.20910000  1.0 -0.0614556318
C  C11  1  0.39210000  0.68300000  0.98810000  1.0 -0.0614556318
C  C12  1  0.69490000  0.40400000  0.01190000  1.0 -0.0614556318
C  C13  1  0.15400000  0.94490000  0.51190000  1.0 -0.0614556318
C  C14  1  0.43300000  0.64210000  0.48810000  1.0 -0.0614556318
C  C15  1  0.19490000  0.18300000  0.29090000  1.0 -0.0614556318
C  C16  1  0.89210000  0.90400000  0.70910000  1.0 -0.0614556318
C  C17  1  0.87550000  0.36460000  0.74230000  1.0 -0.1009380103
C  C18  1  0.62230000  0.13320000  0.25770000  1.0 -0.1009380103
C  C19  1  0.38320000  0.62550000  0.01090000  1.0 -0.1009380103
C  C20  1  0.61460000  0.37230000  0.98910000  1.0 -0.1009380103
C  C21  1  0.12230000  0.86460000  0.48910000  1.0 -0.1009380103
C  C22  1  0.37550000  0.63320000  0.51090000  1.0 -0.1009380103
C  C23  1  0.11460000  0.12550000  0.24230000  1.0 -0.1009380103
C  C24  1  0.88320000  0.87230000  0.75770000  1.0 -0.1009380103
C  C25  1  0.87870000  0.30670000  0.73940000  1.0 -0.11414489
C  C26  1  0.56730000  0.13930000  0.26060000  1.0 -0.11414489
C  C27  1  0.38930000  0.62870000  0.07200000  1.0 -0.11414489
C  C28  1  0.55670000  0.31730000  0.92800000  1.0 -0.11414489
C  C29  1  0.06730000  0.80670000  0.42800000  1.0 -0.11414489
C  C30  1  0.37870000  0.63930000  0.57200000  1.0 -0.11414489
C  C31  1  0.05670000  0.12870000  0.23940000  1.0 -0.11414489
C  C32  1  0.88930000  0.81730000  0.76060000  1.0 -0.11414489
C  C33  1  0.94180000  0.32950000  0.78590000  1.0 -0.054447668
C  C34  1  0.54360000  0.15590000  0.21410000  1.0 -0.054447668
C  C35  1  0.40590000  0.69180000  0.11230000  1.0 -0.054447668
C  C36  1  0.57950000  0.29360000  0.88770000  1.0 -0.054447668
C  C37  1  0.04360000  0.82950000  0.38770000  1.0 -0.054447668
C  C38  1  0.44180000  0.65590000  0.61230000  1.0 -0.054447668
C  C39  1  0.07950000  0.19180000  0.28590000  1.0 -0.054447668
C  C40  1  0.90590000  0.79360000  0.71410000  1.0 -0.054447668
C  C41  1  0.93750000  0.26120000  0.78050000  1.0 0.5965277829
C  C42  1  0.48070000  0.15700000  0.21950000  1.0 0.5965277829
C  C43  1  0.40700000  0.68750000  0.17630000  1.0 0.5965277829
C  C44  1  0.51120000  0.23070000  0.82370000  1.0 0.5965277829
C  C45  1  0.98070000  0.76120000  0.32370000  1.0 0.5965277829
C  C46  1  0.43750000  0.65700000  0.67630000  1.0 0.5965277829
C  C47  1  0.01120000  0.18750000  0.28050000  1.0 0.5965277829
C  C48  1  0.90700000  0.73070000  0.71950000  1.0 0.5965277829
C  C49  1  0.00660000  0.41410000  0.83550000  1.0 0.0493902145
C  C50  1  0.57860000  0.17110000  0.16450000  1.0 0.0579728157
C  C51  1  0.42110000  0.75660000  0.09250000  1.0 0.0579728157
C  C52  1  0.66410000  0.32860000  0.90750000  1.0 0.0579728157
C  C53  1  0.07860000  0.91410000  0.40750000  1.0 0.0579728157
C  C54  1  0.50660000  0.67110000  0.59250000  1.0 0.0579728157
C  C55  1  0.16410000  0.25660000  0.33550000  1.0 0.0579728157
C  C56  1  0.92110000  0.82860000  0.66450000  1.0 0.0579728157
C  C57  1  0.07070000  0.43700000  0.88270000  1.0 -0.1315323975
C  C58  1  0.55430000  0.18800000  0.11730000  1.0 -0.1315323975
C  C59  1  0.43800000  0.82070000  0.13370000  1.0 -0.1315323975
C  C60  1  0.68700000  0.30430000  0.86630000  1.0 -0.1315323975
C  C61  1  0.05430000  0.93700000  0.36630000  1.0 -0.1315323975
C  C62  1  0.57070000  0.68800000  0.63370000  1.0 -0.1315323975
C  C63  1  0.18700000  0.32070000  0.38270000  1.0 -0.1315323975
C  C64  1  0.93800000  0.80430000  0.61730000  1.0 -0.1315323975
C  C65  1  0.13170000  0.51910000  0.93100000  1.0 -0.071959727
C  C66  1  0.58810000  0.20070000  0.06900000  1.0 -0.071959727
C  C67  1  0.45070000  0.88170000  0.11260000  1.0 -0.071959727
C  C68  1  0.76910000  0.33810000  0.88740000  1.0 -0.071959727
C  C69  1  0.08810000  0.01910000  0.38740000  1.0 -0.071959727
C  C70  1  0.63170000  0.70070000  0.61260000  1.0 -0.071959727
C  C71  1  0.26910000  0.38170000  0.43100000  1.0 -0.071959727
C  C72  1  0.95070000  0.83810000  0.56900000  1.0 -0.071959727
C  C73  1  0.13300000  0.58070000  0.93450000  1.0 -0.1009380103
C  C74  1  0.64620000  0.19850000  0.06550000  1.0 -0.1009380103
C  C75  1  0.44850000  0.88300000  0.05230000  1.0 -0.1009380103
C  C76  1  0.83070000  0.39620000  0.94770000  1.0 -0.1009380103
C  C77  1  0.14620000  0.08070000  0.44770000  1.0 -0.1009380103
C  C78  1  0.63300000  0.69850000  0.55230000  1.0 -0.1009380103
C  C79  1  0.33070000  0.38300000  0.43450000  1.0 -0.1009380103
C  C80  1  0.94850000  0.89620000  0.56550000  1.0 -0.1009380103
C  C81  1  0.06480000  0.55420000  0.88900000  1.0 -0.1315323975
C  C82  1  0.66520000  0.17580000  0.11100000  1.0 -0.1315323975
C  C83  1  0.42580000  0.81480000  0.01060000  1.0 -0.1315323975
C  C84  1  0.80420000  0.41520000  0.98940000  1.0 -0.1315323975
C  C85  1  0.16520000  0.05420000  0.48940000  1.0 -0.1315323975
C  C86  1  0.56480000  0.67580000  0.51060000  1.0 -0.1315323975
C  C87  1  0.30420000  0.31480000  0.38900000  1.0 -0.1315323975
C  C88  1  0.92580000  0.91520000  0.61100000  1.0 -0.1315323975
C  C89  1  0.99910000  0.47030000  0.83920000  1.0 0.0579728157
C  C90  1  0.63110000  0.15990000  0.16080000  1.0 0.0579728157
C  C91  1  0.40990000  0.74910000  0.02880000  1.0 0.0579728157
C  C92  1  0.72030000  0.38110000  0.97120000  1.0 0.0579728157
C  C93  1  0.13110000  0.97030000  0.47120000  1.0 0.0579728157
C  C94  1  0.49910000  0.65990000  0.52880000  1.0 0.0579728157
C  C95  1  0.22030000  0.24910000  0.33920000  1.0 0.0579728157
C  C96  1  0.90990000  0.88110000  0.66080000  1.0 0.0579728157
C  C97  1  0.46490000  0.21510000  0.59060000  1.0 0.5832335182
C  C98  1  0.62450000  0.87430000  0.40940000  1.0 0.5832335182
C  C99  1  0.12430000  0.21490000  0.74980000  1.0 0.5832335182
C  C100  1  0.46510000  0.37450000  0.25020000  1.0 0.5832335182
C  C101  1  0.12450000  0.71510000  0.75020000  1.0 0.5832335182
C  C102  1  0.96490000  0.37430000  0.24980000  1.0 0.5832335182
C  C103  1  0.96510000  0.71490000  0.09060000  1.0 0.5832335182
C  C104  1  0.62430000  0.87450000  0.90940000  1.0 0.5832335182
C  C105  1  0.40750000  0.14710000  0.52760000  1.0 -0.0614556318
C  C106  1  0.61950000  0.87990000  0.47240000  1.0 -0.0614556318
C  C107  1  0.12990000  0.15750000  0.76040000  1.0 -0.0614556318
C  C108  1  0.39710000  0.36950000  0.23960000  1.0 -0.0614556318
C  C109  1  0.11950000  0.64710000  0.73960000  1.0 -0.0614556318
C  C110  1  0.90750000  0.37990000  0.26040000  1.0 -0.0614556318
C  C111  1  0.89710000  0.65750000  0.02760000  1.0 -0.071959727
C  C112  1  0.62990000  0.86950000  0.97240000  1.0 -0.0614556318
C  C113  1  0.38440000  0.16900000  0.48500000  1.0 -0.1009380103
C  C114  1  0.68400000  0.89940000  0.51500000  1.0 -0.1009380103
C  C115  1  0.14940000  0.13440000  0.71540000  1.0 -0.1009380103
C  C116  1  0.41900000  0.43400000  0.28460000  1.0 -0.1009380103
C  C117  1  0.18400000  0.66900000  0.78460000  1.0 -0.1009380103
C  C118  1  0.88440000  0.39940000  0.21540000  1.0 -0.1009380103
C  C119  1  0.91900000  0.63440000  0.98500000  1.0 -0.1009380103
C  C120  1  0.64940000  0.93400000  0.01500000  1.0 -0.1009380103
C  C121  1  0.33190000  0.11140000  0.42350000  1.0 -0.0930913262
C  C122  1  0.68790000  0.90840000  0.57650000  1.0 -0.0930913262
C  C123  1  0.15840000  0.08190000  0.72050000  1.0 -0.0930913262
C  C124  1  0.36140000  0.43790000  0.27950000  1.0 -0.0930913262
C  C125  1  0.18790000  0.61140000  0.77950000  1.0 -0.0930913262
C  C126  1  0.83190000  0.40840000  0.22050000  1.0 -0.0930913262
C  C127  1  0.86140000  0.58190000  0.92350000  1.0 -0.0930913262
C  C128  1  0.65840000  0.93790000  0.07650000  1.0 -0.0930913262
C  C129  1  0.30430000  0.03310000  0.40260000  1.0 -0.0614556318
C  C130  1  0.63050000  0.90170000  0.59740000  1.0 -0.0614556318
C  C131  1  0.15170000  0.05430000  0.77120000  1.0 -0.0614556318
C  C132  1  0.28310000  0.38050000  0.22880000  1.0 -0.0614556318
C  C133  1  0.13050000  0.53310000  0.72880000  1.0 -0.0614556318
C  C134  1  0.80430000  0.40170000  0.27120000  1.0 -0.0614556318
C  C135  1  0.78310000  0.55430000  0.90260000  1.0 -0.0614556318
C  C136  1  0.65170000  0.88050000  0.09740000  1.0 -0.0614556318
C  C137  1  0.25500000  0.98030000  0.33490000  1.0 0.5896425672
C  C138  1  0.64540000  0.92010000  0.66510000  1.0 0.5896425672
C  C139  1  0.17010000  0.00500000  0.77470000  1.0 0.5896425672
C  C140  1  0.23030000  0.39540000  0.22530000  1.0 0.5896425672
C  C141  1  0.14540000  0.48030000  0.72530000  1.0 0.5896425672
C  C142  1  0.75500000  0.42010000  0.27470000  1.0 0.5896425672
C  C143  1  0.73030000  0.50500000  0.83490000  1.0 0.5896425672
C  C144  1  0.67010000  0.89540000  0.16510000  1.0 0.5896425672
C  C145  1  0.32230000  0.00450000  0.44520000  1.0 0.06915994
C  C146  1  0.55930000  0.87710000  0.55480000  1.0 0.06915994
C  C147  1  0.12710000  0.07230000  0.81780000  1.0 0.06915994
C  C148  1  0.25450000  0.30930000  0.18220000  1.0 0.06915994
C  C149  1  0.05930000  0.50450000  0.68220000  1.0 0.06915994
C  C150  1  0.82230000  0.37710000  0.31780000  1.0 0.06915994
C  C151  1  0.75450000  0.57230000  0.94520000  1.0 0.06915994
C  C152  1  0.62710000  0.80930000  0.05480000  1.0 0.06915994
C  C153  1  0.28890000  0.91950000  0.42900000  1.0 -0.1315323975
C  C154  1  0.49050000  0.85990000  0.57100000  1.0 -0.1315323975
C  C155  1  0.10990000  0.03890000  0.86940000  1.0 -0.1315323975
C  C156  1  0.16950000  0.24050000  0.13060000  1.0 -0.1315323975
C  C157  1  0.99050000  0.41950000  0.63060000  1.0 -0.1315323975
C  C158  1  0.78890000  0.35990000  0.36940000  1.0 -0.1315323975
C  C159  1  0.66950000  0.53890000  0.92900000  1.0 -0.1315323975
C  C160  1  0.60990000  0.74050000  0.07100000  1.0 -0.1315323975
C  C161  1  0.31140000  0.89740000  0.46980000  1.0 -0.1009380103
C  C162  1  0.42760000  0.84160000  0.53020000  1.0 -0.1009380103
C  C163  1  0.09160000  0.06140000  0.91400000  1.0 -0.1009380103
C  C164  1  0.14740000  0.17760000  0.08600000  1.0 -0.1009380103
C  C165  1  0.92760000  0.39740000  0.58600000  1.0 -0.1009380103
C  C166  1  0.81140000  0.34160000  0.41400000  1.0 -0.1009380103
C  C167  1  0.64740000  0.56140000  0.96980000  1.0 -0.1009380103
C  C168  1  0.59160000  0.67760000  0.03020000  1.0 -0.1009380103
C  C169  1  0.36760000  0.95710000  0.53170000  1.0 -0.0838727005
C  C170  1  0.42540000  0.83590000  0.46830000  1.0 -0.0838727005
C  C171  1  0.08590000  0.11760000  0.91050000  1.0 -0.0838727005
C  C172  1  0.20710000  0.17540000  0.08950000  1.0 -0.0838727005
C  C173  1  0.92540000  0.45710000  0.58950000  1.0 -0.0838727005
C  C174  1  0.86760000  0.33590000  0.41050000  1.0 -0.0838727005
C  C175  1  0.70710000  0.61760000  0.03170000  1.0 -0.0838727005
C  C176  1  0.58590000  0.67540000  0.96830000  1.0 -0.0838727005
C  C177  1  0.40000000  0.03890000  0.55030000  1.0 -0.11414489
C  C178  1  0.48860000  0.84970000  0.44970000  1.0 -0.11414489
C  C179  1  0.09970000  0.15000000  0.86110000  1.0 -0.11414489
C  C180  1  0.28890000  0.23860000  0.13890000  1.0 -0.11414489
C  C181  1  0.98860000  0.53890000  0.63890000  1.0 -0.11414489
C  C182  1  0.90000000  0.34970000  0.36110000  1.0 -0.11414489
C  C183  1  0.78890000  0.65000000  0.05030000  1.0 -0.11414489
C  C184  1  0.59970000  0.73860000  0.94970000  1.0 -0.11414489
C  C185  1  0.37680000  0.06380000  0.50860000  1.0 0.0579728157
C  C186  1  0.55520000  0.86820000  0.49140000  1.0 0.0579728157
C  C187  1  0.11820000  0.12680000  0.81300000  1.0 0.0579728157
C  C188  1  0.31380000  0.30520000  0.18700000  1.0 0.0579728157
C  C189  1  0.05520000  0.56380000  0.68700000  1.0 0.0579728157
C  C190  1  0.87680000  0.36820000  0.31300000  1.0 0.0579728157
C  C191  1  0.81380000  0.62680000  0.00860000  1.0 0.0579728157
C  C192  1  0.61820000  0.80520000  0.99140000  1.0 0.0579728157
C  C193  1  0.77390000  0.48800000  0.62610000  1.0 0.5896425672
C  C194  1  0.86190000  0.14780000  0.37390000  1.0 0.5896425672
C  C195  1  0.39780000  0.52390000  0.78590000  1.0 0.5896425672
C  C196  1  0.73800000  0.61190000  0.21410000  1.0 0.5896425672
C  C197  1  0.36190000  0.98800000  0.71410000  1.0 0.5896425672
C  C198  1  0.27390000  0.64780000  0.28590000  1.0 0.5896425672
C  C199  1  0.23800000  0.02390000  0.12610000  1.0 0.5896425672
C  C200  1  0.89780000  0.11190000  0.87390000  1.0 0.5896425672
C  C201  1  0.71470000  0.43440000  0.55950000  1.0 -0.0614556318
C  C202  1  0.87490000  0.15520000  0.44050000  1.0 -0.0614556318
C  C203  1  0.40520000  0.46470000  0.78030000  1.0 -0.0614556318
C  C204  1  0.68440000  0.62490000  0.21970000  1.0 -0.0614556318
C  C205  1  0.37490000  0.93440000  0.71970000  1.0 -0.0614556318
C  C206  1  0.21470000  0.65520000  0.28030000  1.0 -0.0614556318
C  C207  1  0.18440000  0.96470000  0.05950000  1.0 -0.0614556318
C  C208  1  0.90520000  0.12490000  0.94050000  1.0 -0.0614556318
C  C209  1  0.70480000  0.47360000  0.52660000  1.0 -0.1009380103
C  C210  1  0.94700000  0.17820000  0.47340000  1.0 -0.1009380103
C  C211  1  0.42820000  0.45480000  0.73120000  1.0 -0.1009380103
C  C212  1  0.72360000  0.69700000  0.26880000  1.0 -0.1009380103
C  C213  1  0.44700000  0.97360000  0.76880000  1.0 -0.1009380103
C  C214  1  0.20480000  0.67820000  0.23120000  1.0 -0.1009380103
C  C215  1  0.22360000  0.95480000  0.02660000  1.0 -0.1009380103
C  C216  1  0.92820000  0.19700000  0.97340000  1.0 -0.1009380103
C  C217  1  0.64760000  0.42340000  0.46400000  1.0 -0.0930913262
C  C218  1  0.95940000  0.18360000  0.53600000  1.0 -0.0930913262
C  C219  1  0.43360000  0.39760000  0.72420000  1.0 -0.0930913262
C  C220  1  0.67340000  0.70940000  0.27580000  1.0 -0.0930913262
C  C221  1  0.45940000  0.92340000  0.77580000  1.0 -0.0930913262
C  C222  1  0.14760000  0.68360000  0.22420000  1.0 -0.0930913262
C  C223  1  0.17340000  0.89760000  0.96400000  1.0 -0.0930913262
C  C224  1  0.93360000  0.20940000  0.03600000  1.0 -0.0930913262
C  C225  1  0.60020000  0.33610000  0.43510000  1.0 -0.071959727
C  C226  1  0.90100000  0.16510000  0.56490000  1.0 -0.071959727
C  C227  1  0.41510000  0.35020000  0.76410000  1.0 -0.071959727
C  C228  1  0.58610000  0.65100000  0.23590000  1.0 -0.071959727
C  C229  1  0.40100000  0.83610000  0.73590000  1.0 -0.071959727
C  C230  1  0.10020000  0.66510000  0.26410000  1.0 -0.071959727
C  C231  1  0.08610000  0.85020000  0.93510000  1.0 -0.071959727
C  C232  1  0.91510000  0.15100000  0.06490000  1.0 -0.071959727
C  C233  1  0.53300000  0.28610000  0.37090000  1.0 0.5965277829
C  C234  1  0.91520000  0.16210000  0.62910000  1.0 0.5965277829
C  C235  1  0.41210000  0.28300000  0.74690000  1.0 0.5965277829
C  C236  1  0.53610000  0.66520000  0.25310000  1.0 0.5965277829
C  C237  1  0.41520000  0.78610000  0.75310000  1.0 0.5965277829
C  C238  1  0.03300000  0.66210000  0.24690000  1.0 0.5965277829
C  C239  1  0.03610000  0.78300000  0.87090000  1.0 0.5965277829
C  C240  1  0.91210000  0.16520000  0.12910000  1.0 0.5965277829
C  C241  1  0.60940000  0.29240000  0.46760000  1.0 0.06915994
C  C242  1  0.82480000  0.14180000  0.53240000  1.0 0.06915994
C  C243  1  0.39180000  0.35940000  0.81700000  1.0 0.06915994
C  C244  1  0.54240000  0.57480000  0.18300000  1.0 0.06915994
C  C245  1  0.32480000  0.79240000  0.68300000  1.0 0.06915994
C  C246  1  0.10940000  0.64180000  0.31700000  1.0 0.06915994
C  C247  1  0.04240000  0.85940000  0.96760000  1.0 0.06915994
C  C248  1  0.89180000  0.07480000  0.03240000  1.0 0.06915994
C  C249  1  0.56580000  0.20480000  0.44220000  1.0 -0.1315323975
C  C250  1  0.76260000  0.12360000  0.55780000  1.0 -0.1315323975
C  C251  1  0.37360000  0.31580000  0.86100000  1.0 -0.1315323975
C  C252  1  0.45480000  0.51260000  0.13900000  1.0 -0.1315323975
C  C253  1  0.26260000  0.70480000  0.63900000  1.0 -0.1315323975
C  C254  1  0.06580000  0.62360000  0.36100000  1.0 -0.1315323975
C  C255  1  0.95480000  0.81580000  0.94220000  1.0 -0.1315323975
C  C256  1  0.87360000  0.01260000  0.05780000  1.0 -0.1315323975
C  C257  1  0.58070000  0.17190000  0.47640000  1.0 -0.1009380103
C  C258  1  0.69550000  0.10430000  0.52360000  1.0 -0.1009380103
C  C259  1  0.35430000  0.33070000  0.90880000  1.0 -0.1009380103
C  C260  1  0.42190000  0.44550000  0.09120000  1.0 -0.1009380103
C  C261  1  0.19550000  0.67190000  0.59120000  1.0 -0.1009380103
C  C262  1  0.08070000  0.60430000  0.40880000  1.0 -0.1009380103
C  C263  1  0.92190000  0.83070000  0.97640000  1.0 -0.1009380103
C  C264  1  0.85430000  0.94550000  0.02360000  1.0 -0.1009380103
C  C265  1  0.63610000  0.21890000  0.53840000  1.0 -0.1009380103
C  C266  1  0.68050000  0.09770000  0.46160000  1.0 -0.1009380103
C  C267  1  0.34770000  0.38610000  0.91720000  1.0 -0.1009380103
C  C268  1  0.46890000  0.43050000  0.08280000  1.0 -0.1009380103
C  C269  1  0.18050000  0.71890000  0.58280000  1.0 -0.1009380103
C  C270  1  0.13610000  0.59770000  0.41720000  1.0 -0.1009380103
C  C271  1  0.96890000  0.88610000  0.03840000  1.0 -0.1009380103
C  C272  1  0.84770000  0.93050000  0.96160000  1.0 -0.1009380103
C  C273  1  0.67860000  0.30400000  0.56440000  1.0 -0.1315323975
C  C274  1  0.73960000  0.11420000  0.43560000  1.0 -0.1315323975
C  C275  1  0.36420000  0.42860000  0.87460000  1.0 -0.1315323975
C  C276  1  0.55400000  0.48960000  0.12540000  1.0 -0.1315323975
C  C277  1  0.23960000  0.80400000  0.62540000  1.0 -0.1315323975
C  C278  1  0.17860000  0.61420000  0.37460000  1.0 -0.1315323975
C  C279  1  0.05400000  0.92860000  0.06440000  1.0 -0.1315323975
C  C280  1  0.86420000  0.98960000  0.93560000  1.0 -0.1315323975
C  C281  1  0.66720000  0.34380000  0.53100000  1.0 0.0493902145
C  C282  1  0.81280000  0.13620000  0.46900000  1.0 0.0493902145
C  C283  1  0.38620000  0.41720000  0.82340000  1.0 0.0493902145
C  C284  1  0.59380000  0.56280000  0.17660000  1.0 0.0493902145
C  C285  1  0.31280000  0.84380000  0.67660000  1.0 0.0493902145
C  C286  1  0.16720000  0.63620000  0.32340000  1.0 0.0493902145
C  C287  1  0.09380000  0.91720000  0.03100000  1.0 0.0493902145
C  C288  1  0.88620000  0.06280000  0.96900000  1.0 0.0493902145
O  O1  1  0.85785000  0.46665000  0.73970000  1.0 -0.5122062139
O  O2  1  0.72695000  0.11815000  0.26030000  1.0 -0.5122062139
O  O3  1  0.36815000  0.60785000  0.89120000  1.0 -0.5122062139
O  O4  1  0.71665000  0.47695000  0.10880000  1.0 -0.5122062139
O  O5  1  0.22695000  0.96665000  0.60880000  1.0 -0.5122062139
O  O6  1  0.35785000  0.61815000  0.39120000  1.0 -0.5122062139
O  O7  1  0.21665000  0.10785000  0.23970000  1.0 -0.5122062139
O  O8  1  0.86815000  0.97695000  0.76030000  1.0 -0.5122062139
O  O9  1  0.97448000  0.57921000  0.82529000  1.0 -0.5705230333
O  O10  1  0.75392000  0.14919000  0.17471000  1.0 -0.5705230333
O  O11  1  0.39919000  0.72448000  0.89527000  1.0 -0.5705230333
O  O12  1  0.82921000  0.50392000  0.10473000  1.0 -0.5705230333
O  O13  1  0.25392000  0.07921000  0.60473000  1.0 -0.5705230333
O  O14  1  0.47448000  0.64919000  0.39527000  1.0 -0.5705230333
O  O15  1  0.32921000  0.22448000  0.32529000  1.0 -0.5705230333
O  O16  1  0.89919000  0.00392000  0.67471000  1.0 -0.5705230333
O  O17  1  0.67030000  0.31473000  0.71263000  1.0 -0.3390620895
O  O18  1  0.60210000  0.95767000  0.28737000  1.0 -0.3390620895
O  O19  1  0.20767000  0.42030000  0.85557000  1.0 -0.3390620895
O  O20  1  0.56473000  0.35210000  0.14443000  1.0 -0.3390620895
O  O21  1  0.10210000  0.81473000  0.64443000  1.0 -0.3390620895
O  O22  1  0.17030000  0.45767000  0.35557000  1.0 -0.3390620895
O  O23  1  0.06473000  0.92030000  0.21263000  1.0 -0.3390620895
O  O24  1  0.70767000  0.85210000  0.78737000  1.0 -0.3390620895
O  O25  1  0.00679000  0.28454000  0.77693000  1.0 -0.620839762
O  O26  1  0.50761000  0.22986000  0.22307000  1.0 -0.620839762
O  O27  1  0.47986000  0.75679000  0.22225000  1.0 -0.620839762
O  O28  1  0.53454000  0.25761000  0.77775000  1.0 -0.620839762
O  O29  1  0.00761000  0.78454000  0.27775000  1.0 -0.620839762
O  O30  1  0.50679000  0.72986000  0.72225000  1.0 -0.620839762
O  O31  1  0.03454000  0.25679000  0.27693000  1.0 -0.620839762
O  O32  1  0.97986000  0.75761000  0.72307000  1.0 -0.620839762
O  O33  1  0.63980000  0.49420000  0.68960000  1.0 -0.3206247337
O  O34  1  0.80460000  0.95020000  0.31040000  1.0 -0.3206247337
O  O35  1  0.20020000  0.38980000  0.64560000  1.0 -0.3206247337
O  O36  1  0.74420000  0.55460000  0.35440000  1.0 -0.3206247337
O  O37  1  0.30460000  0.99420000  0.85440000  1.0 -0.3206247337
O  O38  1  0.13980000  0.45020000  0.14560000  1.0 -0.3206247337
O  O39  1  0.24420000  0.88980000  0.18960000  1.0 -0.3206247337
O  O40  1  0.70020000  0.05460000  0.81040000  1.0 -0.3206247337
O  O41  1  0.86137000  0.17770000  0.77827000  1.0 -0.5122062139
O  O42  1  0.39943000  0.08310000  0.22173000  1.0 -0.5122062139
O  O43  1  0.33310000  0.61137000  0.18367000  1.0 -0.5122062139
O  O44  1  0.42770000  0.14943000  0.81633000  1.0 -0.5122062139
O  O45  1  0.89943000  0.67770000  0.31633000  1.0 -0.5122062139
O  O46  1  0.36137000  0.58310000  0.68367000  1.0 -0.5122062139
O  O47  1  0.92770000  0.11137000  0.27827000  1.0 -0.5122062139
O  O48  1  0.83310000  0.64943000  0.72173000  1.0 -0.5122062139
O  O49  1  0.45831000  0.18810000  0.63781000  1.0 -0.6472281911
O  O50  1  0.55029000  0.82050000  0.36219000  1.0 -0.6472281911
O  O51  1  0.07050000  0.20831000  0.77021000  1.0 -0.6472281911
O  O52  1  0.43810000  0.30029000  0.22979000  1.0 -0.6472281911
O  O53  1  0.05029000  0.68810000  0.72979000  1.0 -0.6472281911
O  O54  1  0.95831000  0.32050000  0.27021000  1.0 -0.6472281911
O  O55  1  0.93810000  0.70831000  0.13781000  1.0 -0.6472281911
O  O56  1  0.57050000  0.80029000  0.86219000  1.0 -0.6472281911
O  O57  1  0.51876000  0.29858000  0.59834000  1.0 -0.5184825681
O  O58  1  0.70024000  0.92042000  0.40166000  1.0 -0.5184825681
O  O59  1  0.17042000  0.26876000  0.72018000  1.0 -0.5184825681
O  O60  1  0.54858000  0.45024000  0.27982000  1.0 -0.5184825681
O  O61  1  0.20024000  0.79858000  0.77982000  1.0 -0.5184825681
O  O62  1  0.01876000  0.42042000  0.22018000  1.0 -0.5184825681
O  O63  1  0.04858000  0.76876000  0.09834000  1.0 -0.5184825681
O  O64  1  0.67042000  0.95024000  0.90166000  1.0 -0.5184825681
O  O65  1  0.25716000  0.01872000  0.29888000  1.0 -0.620839762
O  O66  1  0.71984000  0.95828000  0.70112000  1.0 -0.620839762
O  O67  1  0.20828000  0.00716000  0.73844000  1.0 -0.620839762
O  O68  1  0.26872000  0.46984000  0.26156000  1.0 -0.620839762
O  O69  1  0.21984000  0.51872000  0.76156000  1.0 -0.620839762
O  O70  1  0.75716000  0.45828000  0.23844000  1.0 -0.620839762
O  O71  1  0.76872000  0.50716000  0.79888000  1.0 -0.620839762
O  O72  1  0.70828000  0.96984000  0.20112000  1.0 -0.620839762
O  O73  1  0.20745000  0.89757000  0.31422000  1.0 -0.542245651
O  O74  1  0.58335000  0.89323000  0.68578000  1.0 -0.542245651
O  O75  1  0.14323000  0.95745000  0.80988000  1.0 -0.542245651
O  O76  1  0.14757000  0.33333333  0.19012000  1.0 -0.542245651
O  O77  1  0.08335000  0.39757000  0.69012000  1.0 -0.542245651
O  O78  1  0.70745000  0.39323000  0.30988000  1.0 -0.542245651
O  O79  1  0.64757000  0.45745000  0.81422000  1.0 -0.542245651
O  O80  1  0.64323000  0.83335000  0.18578000  1.0 -0.542245651
O  O81  1  0.73853000  0.46111000  0.66764000  1.0 -0.5705230333
O  O82  1  0.79347000  0.07089000  0.33236000  1.0 -0.5705230333
O  O83  1  0.32089000  0.48853000  0.77742000  1.0 -0.5705230333
O  O84  1  0.71111000  0.54347000  0.22258000  1.0 -0.5705230333
O  O85  1  0.29347000  0.96111000  0.72258000  1.0 -0.5705230333
O  O86  1  0.23853000  0.57089000  0.27742000  1.0 -0.5705230333
O  O87  1  0.21111000  0.98853000  0.16764000  1.0 -0.5705230333
O  O88  1  0.82089000  0.04347000  0.83236000  1.0 -0.5705230333
O  O89  1  0.86072000  0.56268000  0.63820000  1.0 -0.542245651
O  O90  1  0.92448000  0.22252000  0.36180000  1.0 -0.542245651
O  O91  1  0.47252000  0.61072000  0.79804000  1.0 -0.542245651
O  O92  1  0.81268000  0.67448000  0.20196000  1.0 -0.542245651
O  O93  1  0.42448000  0.06268000  0.70196000  1.0 -0.542245651
O  O94  1  0.36072000  0.72252000  0.29804000  1.0 -0.542245651
O  O95  1  0.31268000  0.11072000  0.13820000  1.0 -0.542245651
O  O96  1  0.97252000  0.17448000  0.86180000  1.0 -0.542245651
O  O97  1  0.46739000  0.19850000  0.34989000  1.0 -0.5612415395
O  O98  1  0.84861000  0.11750000  0.65011000  1.0 -0.5612415395
O  O99  1  0.36750000  0.21739000  0.76889000  1.0 -0.5612415395
O  O100  1  0.44850000  0.59861000  0.23111000  1.0 -0.5612415395
O  O101  1  0.34861000  0.69850000  0.73111000  1.0 -0.5612415395
O  O102  1  0.96739000  0.61750000  0.26889000  1.0 -0.5612415395
O  O103  1  0.94850000  0.71739000  0.84989000  1.0 -0.5612415395
O  O104  1  0.86750000  0.09861000  0.15011000  1.0 -0.5612415395
O  O105  1  0.54223000  0.33160000  0.34003000  1.0 -0.6037689545
O  O106  1  0.99157000  0.20220000  0.65997000  1.0 -0.6037689545
O  O107  1  0.45220000  0.29223000  0.71063000  1.0 -0.6037689545
O  O108  1  0.58160000  0.74157000  0.28937000  1.0 -0.6037689545
O  O109  1  0.49157000  0.83160000  0.78937000  1.0 -0.6037689545
O  O110  1  0.04223000  0.70220000  0.21063000  1.0 -0.6037689545
O  O111  1  0.08160000  0.79223000  0.84003000  1.0 -0.6037689545
O  O112  1  0.95220000  0.24157000  0.15997000  1.0 -0.6037689545
