# DDEC6 charges by PACMAN v1.1 (https://github.com/mtap-research/PACMAN-charge/)
data_QITHEG_ASR_pacman
_symmetry_space_group_name_H-M   'P 1'
_cell_length_a   24.64450000
_cell_length_b   24.64450000
_cell_length_c   24.64450000
_cell_angle_alpha   109.47100000
_cell_angle_beta   109.47100000
_cell_angle_gamma   109.47100000
_symmetry_Int_Tables_number   1
_chemical_formula_structural   Ni7H19C17(NO3)2
_chemical_formula_sum   'Ni168 H456 C408 N48 O144'
_cell_volume   11522.36665969
_cell_formula_units_Z   24
loop_
 _symmetry_equiv_pos_site_id
 _symmetry_equiv_pos_as_xyz
  1  'x, y, z'
loop_
 _atom_site_type_symbol
 _atom_site_label
 _atom_site_symmetry_multiplicity
 _atom_site_fract_x
 _atom_site_fract_y
 _atom_site_fract_z
 _atom_site_occupancy
 _atom_site_charge
Ni  Ni1  1  0.51880000  0.24860000  0.96900000  1.0 -0.120807795
Ni  Ni2  1  0.24860000  0.77960000  0.72980000  1.0 -0.120807795
Ni  Ni3  1  0.98120000  0.95020000  0.72980000  1.0 -0.120807795
Ni  Ni4  1  0.96900000  0.51880000  0.24860000  1.0 -0.120807795
Ni  Ni5  1  0.77960000  0.54980000  0.53100000  1.0 -0.120807795
Ni  Ni6  1  0.95020000  0.72040000  0.96900000  1.0 -0.120807795
Ni  Ni7  1  0.51880000  0.77020000  0.54980000  1.0 -0.120807795
Ni  Ni8  1  0.54980000  0.51880000  0.77020000  1.0 -0.120807795
Ni  Ni9  1  0.72040000  0.25140000  0.77020000  1.0 -0.120807795
Ni  Ni10  1  0.77020000  0.72040000  0.25140000  1.0 -0.120807795
Ni  Ni11  1  0.25140000  0.98120000  0.53100000  1.0 -0.120807795
Ni  Ni12  1  0.72040000  0.96900000  0.95020000  1.0 -0.120807795
Ni  Ni13  1  0.53100000  0.77960000  0.54980000  1.0 -0.120807795
Ni  Ni14  1  0.98120000  0.53100000  0.25140000  1.0 -0.120807795
Ni  Ni15  1  0.72980000  0.98120000  0.95020000  1.0 -0.120807795
Ni  Ni16  1  0.77960000  0.72980000  0.24860000  1.0 -0.120807795
Ni  Ni17  1  0.24860000  0.96900000  0.51880000  1.0 -0.120807795
Ni  Ni18  1  0.96900000  0.95020000  0.72040000  1.0 -0.120807795
Ni  Ni19  1  0.77020000  0.54980000  0.51880000  1.0 -0.120807795
Ni  Ni20  1  0.25140000  0.77020000  0.72040000  1.0 -0.120807795
Ni  Ni21  1  0.53100000  0.25140000  0.98120000  1.0 -0.120807795
Ni  Ni22  1  0.54980000  0.53100000  0.77960000  1.0 -0.120807795
Ni  Ni23  1  0.95020000  0.72980000  0.98120000  1.0 -0.120807795
Ni  Ni24  1  0.72980000  0.24860000  0.77960000  1.0 -0.120807795
Ni  Ni25  1  0.55150000  0.26380000  0.96850000  1.0 -0.140272607
Ni  Ni26  1  0.26380000  0.79530000  0.71230000  1.0 -0.140272607
Ni  Ni27  1  0.94850000  0.91700000  0.71230000  1.0 -0.140272607
Ni  Ni28  1  0.96850000  0.55150000  0.26380000  1.0 -0.140272607
Ni  Ni29  1  0.79530000  0.58300000  0.53150000  1.0 -0.140272607
Ni  Ni30  1  0.91700000  0.70470000  0.96850000  1.0 -0.140272607
Ni  Ni31  1  0.55150000  0.78770000  0.58300000  1.0 -0.140272607
Ni  Ni32  1  0.58300000  0.55150000  0.78770000  1.0 -0.140272607
Ni  Ni33  1  0.70470000  0.23620000  0.78770000  1.0 -0.140272607
Ni  Ni34  1  0.78770000  0.70470000  0.23620000  1.0 -0.140272607
Ni  Ni35  1  0.23620000  0.94850000  0.53150000  1.0 -0.140272607
Ni  Ni36  1  0.70470000  0.96850000  0.91700000  1.0 -0.140272607
Ni  Ni37  1  0.53150000  0.79530000  0.58300000  1.0 -0.140272607
Ni  Ni38  1  0.94850000  0.53150000  0.23620000  1.0 -0.140272607
Ni  Ni39  1  0.71230000  0.94850000  0.91700000  1.0 -0.140272607
Ni  Ni40  1  0.79530000  0.71230000  0.26380000  1.0 -0.140272607
Ni  Ni41  1  0.26380000  0.96850000  0.55150000  1.0 -0.140272607
Ni  Ni42  1  0.96850000  0.91700000  0.70470000  1.0 -0.140272607
Ni  Ni43  1  0.78770000  0.58300000  0.55150000  1.0 -0.140272607
Ni  Ni44  1  0.23620000  0.78770000  0.70470000  1.0 -0.140272607
Ni  Ni45  1  0.53150000  0.23620000  0.94850000  1.0 -0.140272607
Ni  Ni46  1  0.58300000  0.53150000  0.79530000  1.0 -0.140272607
Ni  Ni47  1  0.91700000  0.71230000  0.94850000  1.0 -0.140272607
Ni  Ni48  1  0.71230000  0.26380000  0.79530000  1.0 -0.140272607
Ni  Ni49  1  0.56600000  0.26720000  0.98700000  1.0 -0.1458531713
Ni  Ni50  1  0.26720000  0.78020000  0.70120000  1.0 -0.1458531713
Ni  Ni51  1  0.93400000  0.92100000  0.70120000  1.0 -0.140272607
Ni  Ni52  1  0.98700000  0.56600000  0.26720000  1.0 -0.140272607
Ni  Ni53  1  0.78020000  0.57900000  0.51300000  1.0 -0.140272607
Ni  Ni54  1  0.92100000  0.71980000  0.98700000  1.0 -0.140272607
Ni  Ni55  1  0.56600000  0.79880000  0.57900000  1.0 -0.1458531713
Ni  Ni56  1  0.57900000  0.56600000  0.79880000  1.0 -0.1458531713
Ni  Ni57  1  0.71980000  0.23280000  0.79880000  1.0 -0.1458531713
Ni  Ni58  1  0.79880000  0.71980000  0.23280000  1.0 -0.140272607
Ni  Ni59  1  0.23280000  0.93400000  0.51300000  1.0 -0.1458531713
Ni  Ni60  1  0.71980000  0.98700000  0.92100000  1.0 -0.1458531713
Ni  Ni61  1  0.51300000  0.78020000  0.57900000  1.0 -0.1458531713
Ni  Ni62  1  0.93400000  0.51300000  0.23280000  1.0 -0.140272607
Ni  Ni63  1  0.70120000  0.93400000  0.92100000  1.0 -0.1458531713
Ni  Ni64  1  0.78020000  0.70120000  0.26720000  1.0 -0.140272607
Ni  Ni65  1  0.26720000  0.98700000  0.56600000  1.0 -0.1458531713
Ni  Ni66  1  0.98700000  0.92100000  0.71980000  1.0 -0.140272607
Ni  Ni67  1  0.79880000  0.57900000  0.56600000  1.0 -0.140272607
Ni  Ni68  1  0.23280000  0.79880000  0.71980000  1.0 -0.1458531713
Ni  Ni69  1  0.51300000  0.23280000  0.93400000  1.0 -0.1458531713
Ni  Ni70  1  0.57900000  0.51300000  0.78020000  1.0 -0.1458531713
Ni  Ni71  1  0.92100000  0.70120000  0.93400000  1.0 -0.1458531713
Ni  Ni72  1  0.70120000  0.26720000  0.78020000  1.0 -0.1458531713
Ni  Ni73  1  0.53560000  0.28350000  0.01230000  1.0 -0.1104272513
Ni  Ni74  1  0.28350000  0.77120000  0.74790000  1.0 -0.1104272513
Ni  Ni75  1  0.96440000  0.97670000  0.74790000  1.0 -0.1104272513
Ni  Ni76  1  0.01230000  0.53560000  0.28350000  1.0 -0.1104272513
Ni  Ni77  1  0.77120000  0.52330000  0.48770000  1.0 -0.1104272513
Ni  Ni78  1  0.97670000  0.72880000  0.01230000  1.0 -0.1104272513
Ni  Ni79  1  0.53560000  0.75210000  0.52330000  1.0 -0.1104272513
Ni  Ni80  1  0.52330000  0.53560000  0.75210000  1.0 -0.1104272513
Ni  Ni81  1  0.72880000  0.21650000  0.75210000  1.0 -0.1104272513
Ni  Ni82  1  0.75210000  0.72880000  0.21650000  1.0 -0.1104272513
Ni  Ni83  1  0.21650000  0.96440000  0.48770000  1.0 -0.1104272513
Ni  Ni84  1  0.72880000  0.01230000  0.97670000  1.0 -0.1104272513
Ni  Ni85  1  0.48770000  0.77120000  0.52330000  1.0 -0.1104272513
Ni  Ni86  1  0.96440000  0.48770000  0.21650000  1.0 -0.1104272513
Ni  Ni87  1  0.74790000  0.96440000  0.97670000  1.0 -0.1104272513
Ni  Ni88  1  0.77120000  0.74790000  0.28350000  1.0 -0.1104272513
Ni  Ni89  1  0.28350000  0.01230000  0.53560000  1.0 -0.1104272513
Ni  Ni90  1  0.01230000  0.97670000  0.72880000  1.0 -0.1104272513
Ni  Ni91  1  0.75210000  0.52330000  0.53560000  1.0 -0.1104272513
Ni  Ni92  1  0.21650000  0.75210000  0.72880000  1.0 -0.1104272513
Ni  Ni93  1  0.48770000  0.21650000  0.96440000  1.0 -0.1104272513
Ni  Ni94  1  0.52330000  0.48770000  0.77120000  1.0 -0.1104272513
Ni  Ni95  1  0.97670000  0.74790000  0.96440000  1.0 -0.1104272513
Ni  Ni96  1  0.74790000  0.28350000  0.77120000  1.0 -0.1104272513
Ni  Ni97  1  0.52710000  0.28740000  0.96570000  1.0 -0.1276557647
Ni  Ni98  1  0.28740000  0.82170000  0.76030000  1.0 -0.1276557647
Ni  Ni99  1  0.97290000  0.93860000  0.76030000  1.0 -0.1276557647
Ni  Ni100  1  0.96570000  0.52710000  0.28740000  1.0 -0.1276557647
Ni  Ni101  1  0.82170000  0.56140000  0.53430000  1.0 -0.1276557647
Ni  Ni102  1  0.93860000  0.67830000  0.96570000  1.0 -0.1276557647
Ni  Ni103  1  0.52710000  0.73970000  0.56140000  1.0 -0.1276557647
Ni  Ni104  1  0.56140000  0.52710000  0.73970000  1.0 -0.1276557647
Ni  Ni105  1  0.67830000  0.21260000  0.73970000  1.0 -0.1276557647
Ni  Ni106  1  0.73970000  0.67830000  0.21260000  1.0 -0.1276557647
Ni  Ni107  1  0.21260000  0.97290000  0.53430000  1.0 -0.1276557647
Ni  Ni108  1  0.67830000  0.96570000  0.93860000  1.0 -0.1276557647
Ni  Ni109  1  0.53430000  0.82170000  0.56140000  1.0 -0.1276557647
Ni  Ni110  1  0.97290000  0.53430000  0.21260000  1.0 -0.1276557647
Ni  Ni111  1  0.76030000  0.97290000  0.93860000  1.0 -0.1276557647
Ni  Ni112  1  0.82170000  0.76030000  0.28740000  1.0 -0.1276557647
Ni  Ni113  1  0.28740000  0.96570000  0.52710000  1.0 -0.1276557647
Ni  Ni114  1  0.96570000  0.93860000  0.67830000  1.0 -0.1276557647
Ni  Ni115  1  0.73970000  0.56140000  0.52710000  1.0 -0.1276557647
Ni  Ni116  1  0.21260000  0.73970000  0.67830000  1.0 -0.1276557647
Ni  Ni117  1  0.53430000  0.21260000  0.97290000  1.0 -0.1276557647
Ni  Ni118  1  0.56140000  0.53430000  0.82170000  1.0 -0.1276557647
Ni  Ni119  1  0.93860000  0.76030000  0.97290000  1.0 -0.1276557647
Ni  Ni120  1  0.76030000  0.28740000  0.82170000  1.0 -0.1276557647
Ni  Ni121  1  0.55280000  0.29230000  0.98510000  1.0 -0.1276557647
Ni  Ni122  1  0.29230000  0.80720000  0.73950000  1.0 -0.1276557647
Ni  Ni123  1  0.94720000  0.93230000  0.73950000  1.0 -0.120807795
Ni  Ni124  1  0.98510000  0.55280000  0.29230000  1.0 -0.120807795
Ni  Ni125  1  0.80720000  0.56770000  0.51490000  1.0 -0.120807795
Ni  Ni126  1  0.93230000  0.69280000  0.98510000  1.0 -0.120807795
Ni  Ni127  1  0.55280000  0.76050000  0.56770000  1.0 -0.120807795
Ni  Ni128  1  0.56770000  0.55280000  0.76050000  1.0 -0.1276557647
Ni  Ni129  1  0.69280000  0.20770000  0.76050000  1.0 -0.120807795
Ni  Ni130  1  0.76050000  0.69280000  0.20770000  1.0 -0.120807795
Ni  Ni131  1  0.20770000  0.94720000  0.51490000  1.0 -0.1276557647
Ni  Ni132  1  0.69280000  0.98510000  0.93230000  1.0 -0.120807795
Ni  Ni133  1  0.51490000  0.80720000  0.56770000  1.0 -0.1276557647
Ni  Ni134  1  0.94720000  0.51490000  0.20770000  1.0 -0.120807795
Ni  Ni135  1  0.73950000  0.94720000  0.93230000  1.0 -0.120807795
Ni  Ni136  1  0.80720000  0.73950000  0.29230000  1.0 -0.120807795
Ni  Ni137  1  0.29230000  0.98510000  0.55280000  1.0 -0.1276557647
Ni  Ni138  1  0.98510000  0.93230000  0.69280000  1.0 -0.120807795
Ni  Ni139  1  0.76050000  0.56770000  0.55280000  1.0 -0.120807795
Ni  Ni140  1  0.20770000  0.76050000  0.69280000  1.0 -0.1276557647
Ni  Ni141  1  0.51490000  0.20770000  0.94720000  1.0 -0.1276557647
Ni  Ni142  1  0.56770000  0.51490000  0.80720000  1.0 -0.1276557647
Ni  Ni143  1  0.93230000  0.73950000  0.94720000  1.0 -0.120807795
Ni  Ni144  1  0.73950000  0.29230000  0.80720000  1.0 -0.120807795
Ni  Ni145  1  0.54180000  0.24450000  0.00950000  1.0 -0.1104272513
Ni  Ni146  1  0.24450000  0.73500000  0.70270000  1.0 -0.1104272513
Ni  Ni147  1  0.95820000  0.96770000  0.70270000  1.0 -0.1104272513
Ni  Ni148  1  0.00950000  0.54180000  0.24450000  1.0 -0.1104272513
Ni  Ni149  1  0.73500000  0.53230000  0.49050000  1.0 -0.1104272513
Ni  Ni150  1  0.96770000  0.76500000  0.00950000  1.0 -0.1104272513
Ni  Ni151  1  0.54180000  0.79730000  0.53230000  1.0 -0.1104272513
Ni  Ni152  1  0.53230000  0.54180000  0.79730000  1.0 -0.1104272513
Ni  Ni153  1  0.76500000  0.25550000  0.79730000  1.0 -0.1104272513
Ni  Ni154  1  0.79730000  0.76500000  0.25550000  1.0 -0.1104272513
Ni  Ni155  1  0.25550000  0.95820000  0.49050000  1.0 -0.1104272513
Ni  Ni156  1  0.76500000  0.00950000  0.96770000  1.0 -0.1104272513
Ni  Ni157  1  0.49050000  0.73500000  0.53230000  1.0 -0.1104272513
Ni  Ni158  1  0.95820000  0.49050000  0.25550000  1.0 -0.1104272513
Ni  Ni159  1  0.70270000  0.95820000  0.96770000  1.0 -0.1104272513
Ni  Ni160  1  0.73500000  0.70270000  0.24450000  1.0 -0.1104272513
Ni  Ni161  1  0.24450000  0.00950000  0.54180000  1.0 -0.1104272513
Ni  Ni162  1  0.00950000  0.96770000  0.76500000  1.0 -0.1104272513
Ni  Ni163  1  0.79730000  0.53230000  0.54180000  1.0 -0.1104272513
Ni  Ni164  1  0.25550000  0.79730000  0.76500000  1.0 -0.1104272513
Ni  Ni165  1  0.49050000  0.25550000  0.95820000  1.0 -0.1104272513
Ni  Ni166  1  0.53230000  0.49050000  0.73500000  1.0 -0.1104272513
Ni  Ni167  1  0.96770000  0.70270000  0.95820000  1.0 -0.1104272513
Ni  Ni168  1  0.70270000  0.24450000  0.73500000  1.0 -0.1104272513
H  H1  1  0.63100000  0.52200000  0.10900000  1.0 0.2198940253
H  H2  1  0.52200000  0.91300000  0.89100000  1.0 0.2198940253
H  H3  1  0.86900000  0.97800000  0.89100000  1.0 0.2198940253
H  H4  1  0.10900000  0.63100000  0.52200000  1.0 0.2198940253
H  H5  1  0.91300000  0.52200000  0.39100000  1.0 0.2198940253
H  H6  1  0.97800000  0.58700000  0.10900000  1.0 0.2198940253
H  H7  1  0.63100000  0.60900000  0.52200000  1.0 0.2198940253
H  H8  1  0.52200000  0.63100000  0.60900000  1.0 0.2198940253
H  H9  1  0.58700000  0.97800000  0.60900000  1.0 0.2198940253
H  H10  1  0.60900000  0.58700000  0.97800000  1.0 0.2198940253
H  H11  1  0.97800000  0.86900000  0.39100000  1.0 0.2198940253
H  H12  1  0.58700000  0.10900000  0.97800000  1.0 0.2198940253
H  H13  1  0.39100000  0.91300000  0.52200000  1.0 0.2198940253
H  H14  1  0.86900000  0.39100000  0.97800000  1.0 0.2198940253
H  H15  1  0.89100000  0.86900000  0.97800000  1.0 0.2198940253
H  H16  1  0.91300000  0.89100000  0.52200000  1.0 0.2198940253
H  H17  1  0.52200000  0.10900000  0.63100000  1.0 0.2198940253
H  H18  1  0.10900000  0.97800000  0.58700000  1.0 0.2198940253
H  H19  1  0.60900000  0.52200000  0.63100000  1.0 0.2198940253
H  H20  1  0.97800000  0.60900000  0.58700000  1.0 0.2198940253
H  H21  1  0.39100000  0.97800000  0.86900000  1.0 0.2198940253
H  H22  1  0.52200000  0.39100000  0.91300000  1.0 0.2198940253
H  H23  1  0.97800000  0.89100000  0.86900000  1.0 0.2198940253
H  H24  1  0.89100000  0.52200000  0.91300000  1.0 0.2198940253
H  H25  1  0.41900000  0.28000000  0.01100000  1.0 0.070002234
H  H26  1  0.28000000  0.76900000  0.86100000  1.0 0.070002234
H  H27  1  0.08100000  0.09200000  0.86100000  1.0 0.070002234
H  H28  1  0.01100000  0.41900000  0.28000000  1.0 0.070002234
H  H29  1  0.76900000  0.40800000  0.48900000  1.0 0.070002234
H  H30  1  0.09200000  0.73100000  0.01100000  1.0 0.070002234
H  H31  1  0.41900000  0.63900000  0.40800000  1.0 0.070002234
H  H32  1  0.40800000  0.41900000  0.63900000  1.0 0.070002234
H  H33  1  0.73100000  0.22000000  0.63900000  1.0 0.070002234
H  H34  1  0.63900000  0.73100000  0.22000000  1.0 0.070002234
H  H35  1  0.22000000  0.08100000  0.48900000  1.0 0.070002234
H  H36  1  0.73100000  0.01100000  0.09200000  1.0 0.070002234
H  H37  1  0.48900000  0.76900000  0.40800000  1.0 0.070002234
H  H38  1  0.08100000  0.48900000  0.22000000  1.0 0.070002234
H  H39  1  0.86100000  0.08100000  0.09200000  1.0 0.070002234
H  H40  1  0.76900000  0.86100000  0.28000000  1.0 0.070002234
H  H41  1  0.28000000  0.01100000  0.41900000  1.0 0.070002234
H  H42  1  0.01100000  0.09200000  0.73100000  1.0 0.070002234
H  H43  1  0.63900000  0.40800000  0.41900000  1.0 0.070002234
H  H44  1  0.22000000  0.63900000  0.73100000  1.0 0.070002234
H  H45  1  0.48900000  0.22000000  0.08100000  1.0 0.070002234
H  H46  1  0.40800000  0.48900000  0.76900000  1.0 0.070002234
H  H47  1  0.09200000  0.86100000  0.08100000  1.0 0.070002234
H  H48  1  0.86100000  0.28000000  0.76900000  1.0 0.070002234
H  H49  1  0.44300000  0.29400000  0.03300000  1.0 0.0497360344
H  H50  1  0.29400000  0.76100000  0.85100000  1.0 0.0497360344
H  H51  1  0.05700000  0.09000000  0.85100000  1.0 0.0497360344
H  H52  1  0.03300000  0.44300000  0.29400000  1.0 0.0497360344
H  H53  1  0.76100000  0.41000000  0.46700000  1.0 0.0497360344
H  H54  1  0.09000000  0.73900000  0.03300000  1.0 0.0497360344
H  H55  1  0.44300000  0.64900000  0.41000000  1.0 0.0497360344
H  H56  1  0.41000000  0.44300000  0.64900000  1.0 0.0497360344
H  H57  1  0.73900000  0.20600000  0.64900000  1.0 0.0497360344
H  H58  1  0.64900000  0.73900000  0.20600000  1.0 0.0497360344
H  H59  1  0.20600000  0.05700000  0.46700000  1.0 0.0497360344
H  H60  1  0.73900000  0.03300000  0.09000000  1.0 0.0497360344
H  H61  1  0.46700000  0.76100000  0.41000000  1.0 0.0497360344
H  H62  1  0.05700000  0.46700000  0.20600000  1.0 0.0497360344
H  H63  1  0.85100000  0.05700000  0.09000000  1.0 0.0497360344
H  H64  1  0.76100000  0.85100000  0.29400000  1.0 0.0497360344
H  H65  1  0.29400000  0.03300000  0.44300000  1.0 0.0497360344
H  H66  1  0.03300000  0.09000000  0.73900000  1.0 0.0497360344
H  H67  1  0.64900000  0.41000000  0.44300000  1.0 0.0497360344
H  H68  1  0.20600000  0.64900000  0.73900000  1.0 0.0497360344
H  H69  1  0.46700000  0.20600000  0.05700000  1.0 0.0497360344
H  H70  1  0.41000000  0.46700000  0.76100000  1.0 0.0497360344
H  H71  1  0.09000000  0.85100000  0.05700000  1.0 0.0497360344
H  H72  1  0.85100000  0.29400000  0.76100000  1.0 0.0497360344
H  H73  1  0.31400000  0.18500000  0.95300000  1.0 0.1160345756
H  H74  1  0.18500000  0.73200000  0.87100000  1.0 0.1160345756
H  H75  1  0.18600000  0.13900000  0.87100000  1.0 0.1160345756
H  H76  1  0.95300000  0.31400000  0.18500000  1.0 0.1160345756
H  H77  1  0.73200000  0.36100000  0.54700000  1.0 0.1160345756
H  H78  1  0.13900000  0.76800000  0.95300000  1.0 0.1160345756
H  H79  1  0.31400000  0.62900000  0.36100000  1.0 0.1160345756
H  H80  1  0.36100000  0.31400000  0.62900000  1.0 0.1160345756
H  H81  1  0.76800000  0.31500000  0.62900000  1.0 0.1160345756
H  H82  1  0.62900000  0.76800000  0.31500000  1.0 0.1160345756
H  H83  1  0.31500000  0.18600000  0.54700000  1.0 0.1160345756
H  H84  1  0.76800000  0.95300000  0.13900000  1.0 0.1160345756
H  H85  1  0.54700000  0.73200000  0.36100000  1.0 0.1160345756
H  H86  1  0.18600000  0.54700000  0.31500000  1.0 0.1160345756
H  H87  1  0.87100000  0.18600000  0.13900000  1.0 0.1160345756
H  H88  1  0.73200000  0.87100000  0.18500000  1.0 0.1160345756
H  H89  1  0.18500000  0.95300000  0.31400000  1.0 0.1160345756
H  H90  1  0.95300000  0.13900000  0.76800000  1.0 0.1160345756
H  H91  1  0.62900000  0.36100000  0.31400000  1.0 0.1160345756
H  H92  1  0.31500000  0.62900000  0.76800000  1.0 0.1160345756
H  H93  1  0.54700000  0.31500000  0.18600000  1.0 0.1160345756
H  H94  1  0.36100000  0.54700000  0.73200000  1.0 0.1160345756
H  H95  1  0.13900000  0.87100000  0.18600000  1.0 0.1160345756
H  H96  1  0.87100000  0.18500000  0.73200000  1.0 0.1160345756
H  H97  1  0.34500000  0.20800000  0.02900000  1.0 0.0208802384
H  H98  1  0.20800000  0.67900000  0.86300000  1.0 0.0208802384
H  H99  1  0.15500000  0.18400000  0.86300000  1.0 0.0208802384
H  H100  1  0.02900000  0.34500000  0.20800000  1.0 0.0208802384
H  H101  1  0.67900000  0.31600000  0.47100000  1.0 0.0208802384
H  H102  1  0.18400000  0.82100000  0.02900000  1.0 0.0208802384
H  H103  1  0.34500000  0.63700000  0.31600000  1.0 0.0208802384
H  H104  1  0.31600000  0.34500000  0.63700000  1.0 0.0208802384
H  H105  1  0.82100000  0.29200000  0.63700000  1.0 0.0208802384
H  H106  1  0.63700000  0.82100000  0.29200000  1.0 0.0208802384
H  H107  1  0.29200000  0.15500000  0.47100000  1.0 0.0208802384
H  H108  1  0.82100000  0.02900000  0.18400000  1.0 0.0208802384
H  H109  1  0.47100000  0.67900000  0.31600000  1.0 0.0208802384
H  H110  1  0.15500000  0.47100000  0.29200000  1.0 0.0208802384
H  H111  1  0.86300000  0.15500000  0.18400000  1.0 0.0208802384
H  H112  1  0.67900000  0.86300000  0.20800000  1.0 0.0208802384
H  H113  1  0.20800000  0.02900000  0.34500000  1.0 0.0208802384
H  H114  1  0.02900000  0.18400000  0.82100000  1.0 0.0208802384
H  H115  1  0.63700000  0.31600000  0.34500000  1.0 0.0208802384
H  H116  1  0.29200000  0.63700000  0.82100000  1.0 0.0208802384
H  H117  1  0.47100000  0.29200000  0.15500000  1.0 0.0208802384
H  H118  1  0.31600000  0.47100000  0.67900000  1.0 0.0208802384
H  H119  1  0.18400000  0.86300000  0.15500000  1.0 0.0208802384
H  H120  1  0.86300000  0.20800000  0.67900000  1.0 0.0208802384
H  H121  1  0.34500000  0.14800000  0.98100000  1.0 0.0960137103
H  H122  1  0.14800000  0.66700000  0.80300000  1.0 0.0960137103
H  H123  1  0.15500000  0.13600000  0.80300000  1.0 0.0960137103
H  H124  1  0.98100000  0.34500000  0.14800000  1.0 0.0960137103
H  H125  1  0.66700000  0.36400000  0.51900000  1.0 0.0960137103
H  H126  1  0.13600000  0.83300000  0.98100000  1.0 0.0960137103
H  H127  1  0.34500000  0.69700000  0.36400000  1.0 0.0960137103
H  H128  1  0.36400000  0.34500000  0.69700000  1.0 0.0960137103
H  H129  1  0.83300000  0.35200000  0.69700000  1.0 0.0960137103
H  H130  1  0.69700000  0.83300000  0.35200000  1.0 0.0960137103
H  H131  1  0.35200000  0.15500000  0.51900000  1.0 0.0960137103
H  H132  1  0.83300000  0.98100000  0.13600000  1.0 0.0960137103
H  H133  1  0.51900000  0.66700000  0.36400000  1.0 0.0960137103
H  H134  1  0.15500000  0.51900000  0.35200000  1.0 0.0960137103
H  H135  1  0.80300000  0.15500000  0.13600000  1.0 0.0960137103
H  H136  1  0.66700000  0.80300000  0.14800000  1.0 0.0960137103
H  H137  1  0.14800000  0.98100000  0.34500000  1.0 0.0960137103
H  H138  1  0.98100000  0.13600000  0.83300000  1.0 0.0960137103
H  H139  1  0.69700000  0.36400000  0.34500000  1.0 0.0960137103
H  H140  1  0.35200000  0.69700000  0.83300000  1.0 0.0960137103
H  H141  1  0.51900000  0.35200000  0.15500000  1.0 0.0960137103
H  H142  1  0.36400000  0.51900000  0.66700000  1.0 0.0960137103
H  H143  1  0.13600000  0.80300000  0.15500000  1.0 0.0960137103
H  H144  1  0.80300000  0.14800000  0.66700000  1.0 0.0960137103
H  H145  1  0.33600000  0.20700000  0.98500000  1.0 0.027889311
H  H146  1  0.20700000  0.72200000  0.87100000  1.0 0.027889311
H  H147  1  0.16400000  0.14900000  0.87100000  1.0 0.027889311
H  H148  1  0.98500000  0.33600000  0.20700000  1.0 0.027889311
H  H149  1  0.72200000  0.35100000  0.51500000  1.0 0.027889311
H  H150  1  0.14900000  0.77800000  0.98500000  1.0 0.027889311
H  H151  1  0.33600000  0.62900000  0.35100000  1.0 0.027889311
H  H152  1  0.35100000  0.33600000  0.62900000  1.0 0.027889311
H  H153  1  0.77800000  0.29300000  0.62900000  1.0 0.027889311
H  H154  1  0.62900000  0.77800000  0.29300000  1.0 0.027889311
H  H155  1  0.29300000  0.16400000  0.51500000  1.0 0.027889311
H  H156  1  0.77800000  0.98500000  0.14900000  1.0 0.027889311
H  H157  1  0.51500000  0.72200000  0.35100000  1.0 0.027889311
H  H158  1  0.16400000  0.51500000  0.29300000  1.0 0.027889311
H  H159  1  0.87100000  0.16400000  0.14900000  1.0 0.027889311
H  H160  1  0.72200000  0.87100000  0.20700000  1.0 0.027889311
H  H161  1  0.20700000  0.98500000  0.33600000  1.0 0.027889311
H  H162  1  0.98500000  0.14900000  0.77800000  1.0 0.027889311
H  H163  1  0.62900000  0.35100000  0.33600000  1.0 0.027889311
H  H164  1  0.29300000  0.62900000  0.77800000  1.0 0.027889311
H  H165  1  0.51500000  0.29300000  0.16400000  1.0 0.027889311
H  H166  1  0.35100000  0.51500000  0.72200000  1.0 0.027889311
H  H167  1  0.14900000  0.87100000  0.16400000  1.0 0.027889311
H  H168  1  0.87100000  0.20700000  0.72200000  1.0 0.027889311
H  H169  1  0.37300000  0.23500000  0.06200000  1.0 0.1277868845
H  H170  1  0.23500000  0.67300000  0.86200000  1.0 0.1277868845
H  H171  1  0.12700000  0.18900000  0.86200000  1.0 0.1277868845
H  H172  1  0.06200000  0.37300000  0.23500000  1.0 0.1277868845
H  H173  1  0.67300000  0.31100000  0.43800000  1.0 0.1277868845
H  H174  1  0.18900000  0.82700000  0.06200000  1.0 0.1277868845
H  H175  1  0.37300000  0.63800000  0.31100000  1.0 0.1277868845
H  H176  1  0.31100000  0.37300000  0.63800000  1.0 0.1277868845
H  H177  1  0.82700000  0.26500000  0.63800000  1.0 0.1277868845
H  H178  1  0.63800000  0.82700000  0.26500000  1.0 0.1277868845
H  H179  1  0.26500000  0.12700000  0.43800000  1.0 0.1277868845
H  H180  1  0.82700000  0.06200000  0.18900000  1.0 0.1277868845
H  H181  1  0.43800000  0.67300000  0.31100000  1.0 0.1277868845
H  H182  1  0.12700000  0.43800000  0.26500000  1.0 0.1277868845
H  H183  1  0.86200000  0.12700000  0.18900000  1.0 0.1277868845
H  H184  1  0.67300000  0.86200000  0.23500000  1.0 0.1277868845
H  H185  1  0.23500000  0.06200000  0.37300000  1.0 0.1277868845
H  H186  1  0.06200000  0.18900000  0.82700000  1.0 0.1277868845
H  H187  1  0.63800000  0.31100000  0.37300000  1.0 0.1277868845
H  H188  1  0.26500000  0.63800000  0.82700000  1.0 0.1277868845
H  H189  1  0.43800000  0.26500000  0.12700000  1.0 0.1277868845
H  H190  1  0.31100000  0.43800000  0.67300000  1.0 0.1277868845
H  H191  1  0.18900000  0.86200000  0.12700000  1.0 0.1277868845
H  H192  1  0.86200000  0.23500000  0.67300000  1.0 0.1277868845
H  H193  1  0.36500000  0.16900000  0.01400000  1.0 0.0620886033
H  H194  1  0.16900000  0.65500000  0.80400000  1.0 0.0620886033
H  H195  1  0.13500000  0.14900000  0.80400000  1.0 0.0620886033
H  H196  1  0.01400000  0.36500000  0.16900000  1.0 0.0620886033
H  H197  1  0.65500000  0.35100000  0.48600000  1.0 0.0620886033
H  H198  1  0.14900000  0.84500000  0.01400000  1.0 0.0620886033
H  H199  1  0.36500000  0.69600000  0.35100000  1.0 0.0620886033
H  H200  1  0.35100000  0.36500000  0.69600000  1.0 0.0620886033
H  H201  1  0.84500000  0.33100000  0.69600000  1.0 0.0620886033
H  H202  1  0.69600000  0.84500000  0.33100000  1.0 0.0620886033
H  H203  1  0.33100000  0.13500000  0.48600000  1.0 0.0620886033
H  H204  1  0.84500000  0.01400000  0.14900000  1.0 0.0620886033
H  H205  1  0.48600000  0.65500000  0.35100000  1.0 0.0620886033
H  H206  1  0.13500000  0.48600000  0.33100000  1.0 0.0620886033
H  H207  1  0.80400000  0.13500000  0.14900000  1.0 0.0620886033
H  H208  1  0.65500000  0.80400000  0.16900000  1.0 0.0620886033
H  H209  1  0.16900000  0.01400000  0.36500000  1.0 0.0620886033
H  H210  1  0.01400000  0.14900000  0.84500000  1.0 0.0620886033
H  H211  1  0.69600000  0.35100000  0.36500000  1.0 0.0620886033
H  H212  1  0.33100000  0.69600000  0.84500000  1.0 0.0620886033
H  H213  1  0.48600000  0.33100000  0.13500000  1.0 0.0620886033
H  H214  1  0.35100000  0.48600000  0.65500000  1.0 0.0620886033
H  H215  1  0.14900000  0.80400000  0.13500000  1.0 0.0620886033
H  H216  1  0.80400000  0.16900000  0.65500000  1.0 0.0620886033
H  H217  1  0.63100000  0.34100000  0.95600000  1.0 0.0819770638
H  H218  1  0.34100000  0.88500000  0.71000000  1.0 0.0819770638
H  H219  1  0.86900000  0.82500000  0.71000000  1.0 0.0819770638
H  H220  1  0.95600000  0.63100000  0.34100000  1.0 0.0819770638
H  H221  1  0.88500000  0.67500000  0.54400000  1.0 0.0819770638
H  H222  1  0.82500000  0.61500000  0.95600000  1.0 0.0819770638
H  H223  1  0.63100000  0.79000000  0.67500000  1.0 0.0819770638
H  H224  1  0.67500000  0.63100000  0.79000000  1.0 0.0819770638
H  H225  1  0.61500000  0.15900000  0.79000000  1.0 0.0819770638
H  H226  1  0.79000000  0.61500000  0.15900000  1.0 0.0819770638
H  H227  1  0.15900000  0.86900000  0.54400000  1.0 0.0819770638
H  H228  1  0.61500000  0.95600000  0.82500000  1.0 0.0819770638
H  H229  1  0.54400000  0.88500000  0.67500000  1.0 0.0819770638
H  H230  1  0.86900000  0.54400000  0.15900000  1.0 0.0819770638
H  H231  1  0.71000000  0.86900000  0.82500000  1.0 0.0819770638
H  H232  1  0.88500000  0.71000000  0.34100000  1.0 0.0819770638
H  H233  1  0.34100000  0.95600000  0.63100000  1.0 0.0819770638
H  H234  1  0.95600000  0.82500000  0.61500000  1.0 0.0819770638
H  H235  1  0.79000000  0.67500000  0.63100000  1.0 0.0819770638
H  H236  1  0.15900000  0.79000000  0.61500000  1.0 0.0819770638
H  H237  1  0.54400000  0.15900000  0.86900000  1.0 0.0819770638
H  H238  1  0.67500000  0.54400000  0.88500000  1.0 0.0819770638
H  H239  1  0.82500000  0.71000000  0.86900000  1.0 0.0819770638
H  H240  1  0.71000000  0.34100000  0.88500000  1.0 0.0819770638
H  H241  1  0.73800000  0.37700000  0.98500000  1.0 0.0960137103
H  H242  1  0.37700000  0.89200000  0.63900000  1.0 0.0960137103
H  H243  1  0.76200000  0.74700000  0.63900000  1.0 0.0960137103
H  H244  1  0.98500000  0.73800000  0.37700000  1.0 0.0960137103
H  H245  1  0.89200000  0.75300000  0.51500000  1.0 0.0960137103
H  H246  1  0.74700000  0.60800000  0.98500000  1.0 0.0960137103
H  H247  1  0.73800000  0.86100000  0.75300000  1.0 0.0960137103
H  H248  1  0.75300000  0.73800000  0.86100000  1.0 0.0960137103
H  H249  1  0.60800000  0.12300000  0.86100000  1.0 0.0960137103
H  H250  1  0.86100000  0.60800000  0.12300000  1.0 0.0960137103
H  H251  1  0.12300000  0.76200000  0.51500000  1.0 0.0960137103
H  H252  1  0.60800000  0.98500000  0.74700000  1.0 0.0960137103
H  H253  1  0.51500000  0.89200000  0.75300000  1.0 0.0960137103
H  H254  1  0.76200000  0.51500000  0.12300000  1.0 0.0960137103
H  H255  1  0.63900000  0.76200000  0.74700000  1.0 0.0960137103
H  H256  1  0.89200000  0.63900000  0.37700000  1.0 0.0960137103
H  H257  1  0.37700000  0.98500000  0.73800000  1.0 0.0960137103
H  H258  1  0.98500000  0.74700000  0.60800000  1.0 0.0960137103
H  H259  1  0.86100000  0.75300000  0.73800000  1.0 0.0960137103
H  H260  1  0.12300000  0.86100000  0.60800000  1.0 0.0960137103
H  H261  1  0.51500000  0.12300000  0.76200000  1.0 0.0960137103
H  H262  1  0.75300000  0.51500000  0.89200000  1.0 0.0960137103
H  H263  1  0.74700000  0.63900000  0.76200000  1.0 0.0960137103
H  H264  1  0.63900000  0.37700000  0.89200000  1.0 0.0960137103
H  H265  1  0.80200000  0.35000000  0.05200000  1.0 0.0896113922
H  H266  1  0.35000000  0.79800000  0.54800000  1.0 0.0896113922
H  H267  1  0.69800000  0.75000000  0.54800000  1.0 0.0896113922
H  H268  1  0.05200000  0.80200000  0.35000000  1.0 0.0896113922
H  H269  1  0.79800000  0.75000000  0.44800000  1.0 0.0896113922
H  H270  1  0.75000000  0.70200000  0.05200000  1.0 0.0896113922
H  H271  1  0.80200000  0.95200000  0.75000000  1.0 0.0896113922
H  H272  1  0.75000000  0.80200000  0.95200000  1.0 0.0896113922
H  H273  1  0.70200000  0.15000000  0.95200000  1.0 0.0896113922
H  H274  1  0.95200000  0.70200000  0.15000000  1.0 0.0896113922
H  H275  1  0.15000000  0.69800000  0.44800000  1.0 0.0896113922
H  H276  1  0.70200000  0.05200000  0.75000000  1.0 0.0896113922
H  H277  1  0.44800000  0.79800000  0.75000000  1.0 0.0896113922
H  H278  1  0.69800000  0.44800000  0.15000000  1.0 0.0896113922
H  H279  1  0.54800000  0.69800000  0.75000000  1.0 0.0896113922
H  H280  1  0.79800000  0.54800000  0.35000000  1.0 0.0896113922
H  H281  1  0.35000000  0.05200000  0.80200000  1.0 0.0896113922
H  H282  1  0.05200000  0.75000000  0.70200000  1.0 0.0896113922
H  H283  1  0.95200000  0.75000000  0.80200000  1.0 0.0896113922
H  H284  1  0.15000000  0.95200000  0.70200000  1.0 0.0896113922
H  H285  1  0.44800000  0.15000000  0.69800000  1.0 0.0896113922
H  H286  1  0.75000000  0.44800000  0.79800000  1.0 0.0896113922
H  H287  1  0.75000000  0.54800000  0.69800000  1.0 0.0819770638
H  H288  1  0.54800000  0.35000000  0.79800000  1.0 0.0896113922
H  H289  1  0.74900000  0.28500000  0.08800000  1.0 0.0819770638
H  H290  1  0.28500000  0.69700000  0.53600000  1.0 0.0819770638
H  H291  1  0.75100000  0.83900000  0.53600000  1.0 0.0819770638
H  H292  1  0.08800000  0.74900000  0.28500000  1.0 0.0819770638
H  H293  1  0.69700000  0.66100000  0.41200000  1.0 0.0819770638
H  H294  1  0.83900000  0.80300000  0.08800000  1.0 0.0819770638
H  H295  1  0.74900000  0.96400000  0.66100000  1.0 0.0819770638
H  H296  1  0.66100000  0.74900000  0.96400000  1.0 0.0819770638
H  H297  1  0.80300000  0.21500000  0.96400000  1.0 0.0819770638
H  H298  1  0.96400000  0.80300000  0.21500000  1.0 0.0819770638
H  H299  1  0.21500000  0.75100000  0.41200000  1.0 0.0819770638
H  H300  1  0.80300000  0.08800000  0.83900000  1.0 0.0819770638
H  H301  1  0.41200000  0.69700000  0.66100000  1.0 0.0819770638
H  H302  1  0.75100000  0.41200000  0.21500000  1.0 0.0819770638
H  H303  1  0.53600000  0.75100000  0.83900000  1.0 0.0819770638
H  H304  1  0.69700000  0.53600000  0.28500000  1.0 0.0819770638
H  H305  1  0.28500000  0.08800000  0.74900000  1.0 0.0819770638
H  H306  1  0.08800000  0.83900000  0.80300000  1.0 0.0819770638
H  H307  1  0.96400000  0.66100000  0.74900000  1.0 0.0819770638
H  H308  1  0.21500000  0.96400000  0.80300000  1.0 0.0819770638
H  H309  1  0.41200000  0.21500000  0.75100000  1.0 0.0819770638
H  H310  1  0.66100000  0.41200000  0.69700000  1.0 0.0819770638
H  H311  1  0.83900000  0.53600000  0.75100000  1.0 0.0819770638
H  H312  1  0.53600000  0.28500000  0.69700000  1.0 0.0819770638
H  H313  1  0.64200000  0.24900000  0.05700000  1.0 0.1160345756
H  H314  1  0.24900000  0.69200000  0.60700000  1.0 0.1160345756
H  H315  1  0.85800000  0.91500000  0.60700000  1.0 0.1160345756
H  H316  1  0.05700000  0.64200000  0.24900000  1.0 0.1160345756
H  H317  1  0.69200000  0.58500000  0.44300000  1.0 0.1160345756
H  H318  1  0.91500000  0.80800000  0.05700000  1.0 0.1160345756
H  H319  1  0.64200000  0.89300000  0.58500000  1.0 0.1160345756
H  H320  1  0.58500000  0.64200000  0.89300000  1.0 0.1160345756
H  H321  1  0.80800000  0.25100000  0.89300000  1.0 0.1160345756
H  H322  1  0.89300000  0.80800000  0.25100000  1.0 0.1160345756
H  H323  1  0.25100000  0.85800000  0.44300000  1.0 0.1160345756
H  H324  1  0.80800000  0.05700000  0.91500000  1.0 0.1160345756
H  H325  1  0.44300000  0.69200000  0.58500000  1.0 0.1160345756
H  H326  1  0.85800000  0.44300000  0.25100000  1.0 0.1160345756
H  H327  1  0.60700000  0.85800000  0.91500000  1.0 0.1160345756
H  H328  1  0.69200000  0.60700000  0.24900000  1.0 0.1160345756
H  H329  1  0.24900000  0.05700000  0.64200000  1.0 0.1160345756
H  H330  1  0.05700000  0.91500000  0.80800000  1.0 0.1160345756
H  H331  1  0.89300000  0.58500000  0.64200000  1.0 0.1160345756
H  H332  1  0.25100000  0.89300000  0.80800000  1.0 0.1160345756
H  H333  1  0.44300000  0.25100000  0.85800000  1.0 0.1160345756
H  H334  1  0.58500000  0.44300000  0.69200000  1.0 0.1160345756
H  H335  1  0.91500000  0.60700000  0.85800000  1.0 0.1160345756
H  H336  1  0.60700000  0.24900000  0.69200000  1.0 0.1160345756
H  H337  1  0.64300000  0.33100000  0.96400000  1.0 0.0896113922
H  H338  1  0.33100000  0.86700000  0.68800000  1.0 0.0896113922
H  H339  1  0.85700000  0.82100000  0.68800000  1.0 0.0896113922
H  H340  1  0.96400000  0.64300000  0.33100000  1.0 0.0896113922
H  H341  1  0.86700000  0.67900000  0.53600000  1.0 0.0896113922
H  H342  1  0.82100000  0.63300000  0.96400000  1.0 0.0896113922
H  H343  1  0.64300000  0.81200000  0.67900000  1.0 0.0896113922
H  H344  1  0.67900000  0.64300000  0.81200000  1.0 0.0896113922
H  H345  1  0.63300000  0.16900000  0.81200000  1.0 0.0896113922
H  H346  1  0.81200000  0.63300000  0.16900000  1.0 0.0896113922
H  H347  1  0.16900000  0.85700000  0.53600000  1.0 0.0896113922
H  H348  1  0.63300000  0.96400000  0.82100000  1.0 0.0896113922
H  H349  1  0.53600000  0.86700000  0.67900000  1.0 0.0896113922
H  H350  1  0.85700000  0.53600000  0.16900000  1.0 0.0896113922
H  H351  1  0.68800000  0.85700000  0.82100000  1.0 0.0896113922
H  H352  1  0.86700000  0.68800000  0.33100000  1.0 0.0896113922
H  H353  1  0.33100000  0.96400000  0.64300000  1.0 0.0896113922
H  H354  1  0.96400000  0.82100000  0.63300000  1.0 0.0896113922
H  H355  1  0.81200000  0.67900000  0.64300000  1.0 0.0896113922
H  H356  1  0.16900000  0.81200000  0.63300000  1.0 0.0896113922
H  H357  1  0.53600000  0.16900000  0.85700000  1.0 0.0896113922
H  H358  1  0.67900000  0.53600000  0.86700000  1.0 0.0896113922
H  H359  1  0.82100000  0.68800000  0.85700000  1.0 0.0896113922
H  H360  1  0.68800000  0.33100000  0.86700000  1.0 0.0896113922
H  H361  1  0.75300000  0.36900000  0.00400000  1.0 0.0819770638
H  H362  1  0.36900000  0.86500000  0.61600000  1.0 0.0819770638
H  H363  1  0.74700000  0.75100000  0.61600000  1.0 0.0819770638
H  H364  1  0.00400000  0.75300000  0.36900000  1.0 0.0819770638
H  H365  1  0.86500000  0.74900000  0.49600000  1.0 0.0819770638
H  H366  1  0.75100000  0.63500000  0.00400000  1.0 0.0819770638
H  H367  1  0.75300000  0.88400000  0.74900000  1.0 0.0819770638
H  H368  1  0.74900000  0.75300000  0.88400000  1.0 0.0819770638
H  H369  1  0.63500000  0.13100000  0.88400000  1.0 0.0819770638
H  H370  1  0.88400000  0.63500000  0.13100000  1.0 0.0819770638
H  H371  1  0.13100000  0.74700000  0.49600000  1.0 0.0819770638
H  H372  1  0.63500000  0.00400000  0.75100000  1.0 0.0819770638
H  H373  1  0.49600000  0.86500000  0.74900000  1.0 0.0819770638
H  H374  1  0.74700000  0.49600000  0.13100000  1.0 0.0819770638
H  H375  1  0.61600000  0.74700000  0.75100000  1.0 0.0819770638
H  H376  1  0.86500000  0.61600000  0.36900000  1.0 0.0819770638
H  H377  1  0.36900000  0.00400000  0.75300000  1.0 0.0819770638
H  H378  1  0.00400000  0.75100000  0.63500000  1.0 0.0819770638
H  H379  1  0.88400000  0.74900000  0.75300000  1.0 0.0819770638
H  H380  1  0.13100000  0.88400000  0.63500000  1.0 0.0819770638
H  H381  1  0.49600000  0.13100000  0.74700000  1.0 0.0819770638
H  H382  1  0.74900000  0.49600000  0.86500000  1.0 0.0819770638
H  H383  1  0.75100000  0.61600000  0.74700000  1.0 0.0819770638
H  H384  1  0.61600000  0.36900000  0.86500000  1.0 0.0819770638
H  H385  1  0.81100000  0.34200000  0.07500000  1.0 0.070002234
H  H386  1  0.34200000  0.76700000  0.53100000  1.0 0.070002234
H  H387  1  0.68900000  0.76400000  0.53100000  1.0 0.070002234
H  H388  1  0.07500000  0.81100000  0.34200000  1.0 0.070002234
H  H389  1  0.76700000  0.73600000  0.42500000  1.0 0.070002234
H  H390  1  0.76400000  0.73300000  0.07500000  1.0 0.070002234
H  H391  1  0.81100000  0.96900000  0.73600000  1.0 0.070002234
H  H392  1  0.73600000  0.81100000  0.96900000  1.0 0.070002234
H  H393  1  0.73300000  0.15800000  0.96900000  1.0 0.070002234
H  H394  1  0.96900000  0.73300000  0.15800000  1.0 0.070002234
H  H395  1  0.15800000  0.68900000  0.42500000  1.0 0.070002234
H  H396  1  0.73300000  0.07500000  0.76400000  1.0 0.070002234
H  H397  1  0.42500000  0.76700000  0.73600000  1.0 0.070002234
H  H398  1  0.68900000  0.42500000  0.15800000  1.0 0.070002234
H  H399  1  0.53100000  0.68900000  0.76400000  1.0 0.070002234
H  H400  1  0.76700000  0.53100000  0.34200000  1.0 0.070002234
H  H401  1  0.34200000  0.07500000  0.81100000  1.0 0.070002234
H  H402  1  0.07500000  0.76400000  0.73300000  1.0 0.070002234
H  H403  1  0.96900000  0.73600000  0.81100000  1.0 0.070002234
H  H404  1  0.15800000  0.96900000  0.73300000  1.0 0.070002234
H  H405  1  0.42500000  0.15800000  0.68900000  1.0 0.070002234
H  H406  1  0.73600000  0.42500000  0.76700000  1.0 0.070002234
H  H407  1  0.76400000  0.53100000  0.68900000  1.0 0.070002234
H  H408  1  0.53100000  0.34200000  0.76700000  1.0 0.070002234
H  H409  1  0.74900000  0.27600000  0.10500000  1.0 0.1075715244
H  H410  1  0.27600000  0.67100000  0.52700000  1.0 0.1075715244
H  H411  1  0.75100000  0.85600000  0.52700000  1.0 0.1075715244
H  H412  1  0.10500000  0.74900000  0.27600000  1.0 0.1075715244
H  H413  1  0.67100000  0.64400000  0.39500000  1.0 0.1075715244
H  H414  1  0.85600000  0.82900000  0.10500000  1.0 0.1075715244
H  H415  1  0.74900000  0.97300000  0.64400000  1.0 0.1075715244
H  H416  1  0.64400000  0.74900000  0.97300000  1.0 0.1075715244
H  H417  1  0.82900000  0.22400000  0.97300000  1.0 0.1075715244
H  H418  1  0.97300000  0.82900000  0.22400000  1.0 0.1075715244
H  H419  1  0.22400000  0.75100000  0.39500000  1.0 0.1075715244
H  H420  1  0.82900000  0.10500000  0.85600000  1.0 0.1075715244
H  H421  1  0.39500000  0.67100000  0.64400000  1.0 0.1075715244
H  H422  1  0.75100000  0.39500000  0.22400000  1.0 0.1075715244
H  H423  1  0.52700000  0.75100000  0.85600000  1.0 0.1075715244
H  H424  1  0.67100000  0.52700000  0.27600000  1.0 0.1075715244
H  H425  1  0.27600000  0.10500000  0.74900000  1.0 0.1075715244
H  H426  1  0.10500000  0.85600000  0.82900000  1.0 0.1075715244
H  H427  1  0.97300000  0.64400000  0.74900000  1.0 0.1075715244
H  H428  1  0.22400000  0.97300000  0.82900000  1.0 0.1075715244
H  H429  1  0.39500000  0.22400000  0.75100000  1.0 0.1075715244
H  H430  1  0.64400000  0.39500000  0.67100000  1.0 0.1075715244
H  H431  1  0.85600000  0.52700000  0.75100000  1.0 0.1075715244
H  H432  1  0.52700000  0.27600000  0.67100000  1.0 0.1075715244
H  H433  1  0.64100000  0.23800000  0.06300000  1.0 0.0819770638
H  H434  1  0.23800000  0.67500000  0.59700000  1.0 0.0896113922
H  H435  1  0.85900000  0.92200000  0.59700000  1.0 0.0819770638
H  H436  1  0.06300000  0.64100000  0.23800000  1.0 0.0819770638
H  H437  1  0.67500000  0.57800000  0.43700000  1.0 0.0819770638
H  H438  1  0.92200000  0.82500000  0.06300000  1.0 0.0819770638
H  H439  1  0.64100000  0.90300000  0.57800000  1.0 0.0819770638
H  H440  1  0.57800000  0.64100000  0.90300000  1.0 0.0819770638
H  H441  1  0.82500000  0.26200000  0.90300000  1.0 0.0819770638
H  H442  1  0.90300000  0.82500000  0.26200000  1.0 0.0819770638
H  H443  1  0.26200000  0.85900000  0.43700000  1.0 0.0896113922
H  H444  1  0.82500000  0.06300000  0.92200000  1.0 0.0819770638
H  H445  1  0.43700000  0.67500000  0.57800000  1.0 0.0819770638
H  H446  1  0.85900000  0.43700000  0.26200000  1.0 0.0819770638
H  H447  1  0.59700000  0.85900000  0.92200000  1.0 0.0819770638
H  H448  1  0.67500000  0.59700000  0.23800000  1.0 0.0819770638
H  H449  1  0.23800000  0.06300000  0.64100000  1.0 0.0819770638
H  H450  1  0.06300000  0.92200000  0.82500000  1.0 0.0819770638
H  H451  1  0.90300000  0.57800000  0.64100000  1.0 0.0819770638
H  H452  1  0.26200000  0.90300000  0.82500000  1.0 0.0896113922
H  H453  1  0.43700000  0.26200000  0.85900000  1.0 0.0819770638
H  H454  1  0.57800000  0.43700000  0.67500000  1.0 0.0819770638
H  H455  1  0.92200000  0.59700000  0.85900000  1.0 0.0819770638
H  H456  1  0.59700000  0.23800000  0.67500000  1.0 0.0819770638
C  C1  1  0.55880000  0.39420000  0.02680000  1.0 0.3573956121
C  C2  1  0.39420000  0.86740000  0.83540000  1.0 0.3573956121
C  C3  1  0.94120000  0.96800000  0.83540000  1.0 0.3573956121
C  C4  1  0.02680000  0.55880000  0.39420000  1.0 0.3573956121
C  C5  1  0.86740000  0.53200000  0.47320000  1.0 0.3573956121
C  C6  1  0.96800000  0.63260000  0.02680000  1.0 0.3573956121
C  C7  1  0.55880000  0.66460000  0.53200000  1.0 0.3573956121
C  C8  1  0.53200000  0.55880000  0.66460000  1.0 0.3573956121
C  C9  1  0.63260000  0.10580000  0.66460000  1.0 0.3573956121
C  C10  1  0.66460000  0.63260000  0.10580000  1.0 0.3573956121
C  C11  1  0.10580000  0.94120000  0.47320000  1.0 0.3573956121
C  C12  1  0.63260000  0.02680000  0.96800000  1.0 0.3573956121
C  C13  1  0.47320000  0.86740000  0.53200000  1.0 0.3573956121
C  C14  1  0.94120000  0.47320000  0.10580000  1.0 0.3573956121
C  C15  1  0.83540000  0.94120000  0.96800000  1.0 0.3573956121
C  C16  1  0.86740000  0.83540000  0.39420000  1.0 0.3573956121
C  C17  1  0.39420000  0.02680000  0.55880000  1.0 0.3573956121
C  C18  1  0.02680000  0.96800000  0.63260000  1.0 0.3573956121
C  C19  1  0.66460000  0.53200000  0.55880000  1.0 0.3573956121
C  C20  1  0.10580000  0.66460000  0.63260000  1.0 0.3573956121
C  C21  1  0.47320000  0.10580000  0.94120000  1.0 0.3573956121
C  C22  1  0.53200000  0.47320000  0.86740000  1.0 0.3573956121
C  C23  1  0.96800000  0.83540000  0.94120000  1.0 0.3573956121
C  C24  1  0.83540000  0.39420000  0.86740000  1.0 0.3573956121
C  C25  1  0.57240000  0.44870000  0.01430000  1.0 -0.0500428651
C  C26  1  0.44870000  0.93440000  0.87630000  1.0 -0.0500428651
C  C27  1  0.92760000  0.94190000  0.87630000  1.0 -0.0500428651
C  C28  1  0.01430000  0.57240000  0.44870000  1.0 -0.0500428651
C  C29  1  0.93440000  0.55810000  0.48570000  1.0 -0.0500428651
C  C30  1  0.94190000  0.56560000  0.01430000  1.0 -0.0500428651
C  C31  1  0.57240000  0.62370000  0.55810000  1.0 -0.0500428651
C  C32  1  0.55810000  0.57240000  0.62370000  1.0 -0.0500428651
C  C33  1  0.56560000  0.05130000  0.62370000  1.0 -0.0500428651
C  C34  1  0.62370000  0.56560000  0.05130000  1.0 -0.0500428651
C  C35  1  0.05130000  0.92760000  0.48570000  1.0 -0.0500428651
C  C36  1  0.56560000  0.01430000  0.94190000  1.0 -0.0500428651
C  C37  1  0.48570000  0.93440000  0.55810000  1.0 -0.0500428651
C  C38  1  0.92760000  0.48570000  0.05130000  1.0 -0.0500428651
C  C39  1  0.87630000  0.92760000  0.94190000  1.0 -0.0500428651
C  C40  1  0.93440000  0.87630000  0.44870000  1.0 -0.0500428651
C  C41  1  0.44870000  0.01430000  0.57240000  1.0 -0.0500428651
C  C42  1  0.01430000  0.94190000  0.56560000  1.0 -0.0500428651
C  C43  1  0.62370000  0.55810000  0.57240000  1.0 -0.0500428651
C  C44  1  0.05130000  0.62370000  0.56560000  1.0 -0.0500428651
C  C45  1  0.48570000  0.05130000  0.92760000  1.0 -0.0500428651
C  C46  1  0.55810000  0.48570000  0.93440000  1.0 -0.0500428651
C  C47  1  0.94190000  0.87630000  0.92760000  1.0 -0.0500428651
C  C48  1  0.87630000  0.44870000  0.93440000  1.0 -0.0500428651
C  C49  1  0.61120000  0.51290000  0.06350000  1.0 0.027889311
C  C50  1  0.51290000  0.94940000  0.90170000  1.0 0.0208802384
C  C51  1  0.88880000  0.95230000  0.90170000  1.0 0.0208802384
C  C52  1  0.06350000  0.61120000  0.51290000  1.0 0.027889311
C  C53  1  0.94940000  0.54770000  0.43650000  1.0 0.0208802384
C  C54  1  0.95230000  0.55060000  0.06350000  1.0 0.0208802384
C  C55  1  0.61120000  0.59830000  0.54770000  1.0 0.0208802384
C  C56  1  0.54770000  0.61120000  0.59830000  1.0 0.0208802384
C  C57  1  0.55060000  0.98710000  0.59830000  1.0 0.027889311
C  C58  1  0.59830000  0.55060000  0.98710000  1.0 0.027889311
C  C59  1  0.98710000  0.88880000  0.43650000  1.0 0.0208802384
C  C60  1  0.55060000  0.06350000  0.95230000  1.0 0.0208802384
C  C61  1  0.43650000  0.94940000  0.54770000  1.0 0.027889311
C  C62  1  0.88880000  0.43650000  0.98710000  1.0 0.027889311
C  C63  1  0.90170000  0.88880000  0.95230000  1.0 0.0208802384
C  C64  1  0.94940000  0.90170000  0.51290000  1.0 0.0208802384
C  C65  1  0.51290000  0.06350000  0.61120000  1.0 0.0208802384
C  C66  1  0.06350000  0.95230000  0.55060000  1.0 0.027889311
C  C67  1  0.59830000  0.54770000  0.61120000  1.0 0.0208802384
C  C68  1  0.98710000  0.59830000  0.55060000  1.0 0.027889311
C  C69  1  0.43650000  0.98710000  0.88880000  1.0 0.027889311
C  C70  1  0.54770000  0.43650000  0.94940000  1.0 0.027889311
C  C71  1  0.95230000  0.90170000  0.88880000  1.0 0.0208802384
C  C72  1  0.90170000  0.51290000  0.94940000  1.0 0.027889311
C  C73  1  0.41640000  0.23860000  0.00420000  1.0 0.0896113922
C  C74  1  0.23860000  0.73440000  0.82220000  1.0 0.0896113922
C  C75  1  0.08360000  0.08780000  0.82220000  1.0 0.0896113922
C  C76  1  0.00420000  0.41640000  0.23860000  1.0 0.0896113922
C  C77  1  0.73440000  0.41220000  0.49580000  1.0 0.0896113922
C  C78  1  0.08780000  0.76560000  0.00420000  1.0 0.0896113922
C  C79  1  0.41640000  0.67780000  0.41220000  1.0 0.0896113922
C  C80  1  0.41220000  0.41640000  0.67780000  1.0 0.0896113922
C  C81  1  0.76560000  0.26140000  0.67780000  1.0 0.0896113922
C  C82  1  0.67780000  0.76560000  0.26140000  1.0 0.0896113922
C  C83  1  0.26140000  0.08360000  0.49580000  1.0 0.0896113922
C  C84  1  0.76560000  0.00420000  0.08780000  1.0 0.0896113922
C  C85  1  0.49580000  0.73440000  0.41220000  1.0 0.0896113922
C  C86  1  0.08360000  0.49580000  0.26140000  1.0 0.0896113922
C  C87  1  0.82220000  0.08360000  0.08780000  1.0 0.0896113922
C  C88  1  0.73440000  0.82220000  0.23860000  1.0 0.0896113922
C  C89  1  0.23860000  0.00420000  0.41640000  1.0 0.0896113922
C  C90  1  0.00420000  0.08780000  0.76560000  1.0 0.0896113922
C  C91  1  0.67780000  0.41220000  0.41640000  1.0 0.0896113922
C  C92  1  0.26140000  0.67780000  0.76560000  1.0 0.0896113922
C  C93  1  0.49580000  0.26140000  0.08360000  1.0 0.0896113922
C  C94  1  0.41220000  0.49580000  0.73440000  1.0 0.0896113922
C  C95  1  0.08780000  0.82220000  0.08360000  1.0 0.0896113922
C  C96  1  0.82220000  0.23860000  0.73440000  1.0 0.0896113922
C  C97  1  0.43740000  0.25170000  0.02670000  1.0 0.0029046932
C  C98  1  0.25170000  0.72500000  0.81430000  1.0 0.0029046932
C  C99  1  0.06260000  0.08930000  0.81430000  1.0 0.0029046932
C  C100  1  0.02670000  0.43740000  0.25170000  1.0 0.0029046932
C  C101  1  0.72500000  0.41070000  0.47330000  1.0 0.0029046932
C  C102  1  0.08930000  0.77500000  0.02670000  1.0 0.0029046932
C  C103  1  0.43740000  0.68570000  0.41070000  1.0 0.0029046932
C  C104  1  0.41070000  0.43740000  0.68570000  1.0 0.0029046932
C  C105  1  0.77500000  0.24830000  0.68570000  1.0 0.0029046932
C  C106  1  0.68570000  0.77500000  0.24830000  1.0 0.0029046932
C  C107  1  0.24830000  0.06260000  0.47330000  1.0 0.0029046932
C  C108  1  0.77500000  0.02670000  0.08930000  1.0 0.0029046932
C  C109  1  0.47330000  0.72500000  0.41070000  1.0 0.0029046932
C  C110  1  0.06260000  0.47330000  0.24830000  1.0 0.0029046932
C  C111  1  0.81430000  0.06260000  0.08930000  1.0 0.0029046932
C  C112  1  0.72500000  0.81430000  0.25170000  1.0 0.0029046932
C  C113  1  0.25170000  0.02670000  0.43740000  1.0 0.0029046932
C  C114  1  0.02670000  0.08930000  0.77500000  1.0 0.0029046932
C  C115  1  0.68570000  0.41070000  0.43740000  1.0 0.0029046932
C  C116  1  0.24830000  0.68570000  0.77500000  1.0 0.0029046932
C  C117  1  0.47330000  0.24830000  0.06260000  1.0 0.0029046932
C  C118  1  0.41070000  0.47330000  0.72500000  1.0 0.0029046932
C  C119  1  0.08930000  0.81430000  0.06260000  1.0 0.0029046932
C  C120  1  0.81430000  0.25170000  0.72500000  1.0 0.0029046932
C  C121  1  0.34880000  0.19060000  0.99060000  1.0 -0.163557231
C  C122  1  0.19060000  0.70000000  0.84180000  1.0 -0.163557231
C  C123  1  0.15120000  0.14180000  0.84180000  1.0 -0.163557231
C  C124  1  0.99060000  0.34880000  0.19060000  1.0 -0.163557231
C  C125  1  0.70000000  0.35820000  0.50940000  1.0 -0.163557231
C  C126  1  0.14180000  0.80000000  0.99060000  1.0 -0.1651692684
C  C127  1  0.34880000  0.65820000  0.35820000  1.0 -0.163557231
C  C128  1  0.35820000  0.34880000  0.65820000  1.0 -0.163557231
C  C129  1  0.80000000  0.30940000  0.65820000  1.0 -0.163557231
C  C130  1  0.65820000  0.80000000  0.30940000  1.0 -0.1651692684
C  C131  1  0.30940000  0.15120000  0.50940000  1.0 -0.163557231
C  C132  1  0.80000000  0.99060000  0.14180000  1.0 -0.163557231
C  C133  1  0.50940000  0.70000000  0.35820000  1.0 -0.163557231
C  C134  1  0.15120000  0.50940000  0.30940000  1.0 -0.163557231
C  C135  1  0.84180000  0.15120000  0.14180000  1.0 -0.1651692684
C  C136  1  0.70000000  0.84180000  0.19060000  1.0 -0.1651692684
C  C137  1  0.19060000  0.99060000  0.34880000  1.0 -0.163557231
C  C138  1  0.99060000  0.14180000  0.80000000  1.0 -0.1651692684
C  C139  1  0.65820000  0.35820000  0.34880000  1.0 -0.163557231
C  C140  1  0.30940000  0.65820000  0.80000000  1.0 -0.163557231
C  C141  1  0.50940000  0.30940000  0.15120000  1.0 -0.163557231
C  C142  1  0.35820000  0.50940000  0.70000000  1.0 -0.163557231
C  C143  1  0.14180000  0.84180000  0.15120000  1.0 -0.1651692684
C  C144  1  0.84180000  0.19060000  0.70000000  1.0 -0.163557231
C  C145  1  0.37140000  0.21200000  0.02140000  1.0 -0.1802532358
C  C146  1  0.21200000  0.69060000  0.84060000  1.0 -0.1802532358
C  C147  1  0.12860000  0.15000000  0.84060000  1.0 -0.1802532358
C  C148  1  0.02140000  0.37140000  0.21200000  1.0 -0.1802532358
C  C149  1  0.69060000  0.35000000  0.47860000  1.0 -0.1802532358
C  C150  1  0.15000000  0.80940000  0.02140000  1.0 -0.1802532358
C  C151  1  0.37140000  0.65940000  0.35000000  1.0 -0.1802532358
C  C152  1  0.35000000  0.37140000  0.65940000  1.0 -0.1802532358
C  C153  1  0.80940000  0.28800000  0.65940000  1.0 -0.1802532358
C  C154  1  0.65940000  0.80940000  0.28800000  1.0 -0.1802532358
C  C155  1  0.28800000  0.12860000  0.47860000  1.0 -0.1802532358
C  C156  1  0.80940000  0.02140000  0.15000000  1.0 -0.1802532358
C  C157  1  0.47860000  0.69060000  0.35000000  1.0 -0.1802532358
C  C158  1  0.12860000  0.47860000  0.28800000  1.0 -0.1802532358
C  C159  1  0.84060000  0.12860000  0.15000000  1.0 -0.1802532358
C  C160  1  0.69060000  0.84060000  0.21200000  1.0 -0.1802532358
C  C161  1  0.21200000  0.02140000  0.37140000  1.0 -0.1802532358
C  C162  1  0.02140000  0.15000000  0.80940000  1.0 -0.1802532358
C  C163  1  0.65940000  0.35000000  0.37140000  1.0 -0.1802532358
C  C164  1  0.28800000  0.65940000  0.80940000  1.0 -0.1802532358
C  C165  1  0.47860000  0.28800000  0.12860000  1.0 -0.1802532358
C  C166  1  0.35000000  0.47860000  0.69060000  1.0 -0.1802532358
C  C167  1  0.15000000  0.84060000  0.12860000  1.0 -0.1802532358
C  C168  1  0.84060000  0.21200000  0.69060000  1.0 -0.1802532358
C  C169  1  0.65520000  0.32780000  0.98400000  1.0 0.0497360344
C  C170  1  0.32780000  0.84380000  0.67260000  1.0 0.0497360344
C  C171  1  0.84480000  0.82880000  0.67260000  1.0 0.0497360344
C  C172  1  0.98400000  0.65520000  0.32780000  1.0 0.0497360344
C  C173  1  0.84380000  0.67120000  0.51600000  1.0 0.0497360344
C  C174  1  0.82880000  0.65620000  0.98400000  1.0 0.0497360344
C  C175  1  0.65520000  0.82740000  0.67120000  1.0 0.0497360344
C  C176  1  0.67120000  0.65520000  0.82740000  1.0 0.0497360344
C  C177  1  0.65620000  0.17220000  0.82740000  1.0 0.0497360344
C  C178  1  0.82740000  0.65620000  0.17220000  1.0 0.0497360344
C  C179  1  0.17220000  0.84480000  0.51600000  1.0 0.0497360344
C  C180  1  0.65620000  0.98400000  0.82880000  1.0 0.0497360344
C  C181  1  0.51600000  0.84380000  0.67120000  1.0 0.0497360344
C  C182  1  0.84480000  0.51600000  0.17220000  1.0 0.0497360344
C  C183  1  0.67260000  0.84480000  0.82880000  1.0 0.0497360344
C  C184  1  0.84380000  0.67260000  0.32780000  1.0 0.0497360344
C  C185  1  0.32780000  0.98400000  0.65520000  1.0 0.0497360344
C  C186  1  0.98400000  0.82880000  0.65620000  1.0 0.0497360344
C  C187  1  0.82740000  0.67120000  0.65520000  1.0 0.0497360344
C  C188  1  0.17220000  0.82740000  0.65620000  1.0 0.0497360344
C  C189  1  0.51600000  0.17220000  0.84480000  1.0 0.0497360344
C  C190  1  0.67120000  0.51600000  0.84380000  1.0 0.0497360344
C  C191  1  0.82880000  0.67260000  0.84480000  1.0 0.0497360344
C  C192  1  0.67260000  0.32780000  0.84380000  1.0 0.0497360344
C  C193  1  0.71880000  0.34950000  0.00130000  1.0 -0.1276557647
C  C194  1  0.34950000  0.84820000  0.63070000  1.0 -0.1276557647
C  C195  1  0.78120000  0.78250000  0.63070000  1.0 -0.1276557647
C  C196  1  0.00130000  0.71880000  0.34950000  1.0 -0.1276557647
C  C197  1  0.84820000  0.71750000  0.49870000  1.0 -0.1276557647
C  C198  1  0.78250000  0.65180000  0.00130000  1.0 -0.1276557647
C  C199  1  0.71880000  0.86930000  0.71750000  1.0 -0.1276557647
C  C200  1  0.71750000  0.71880000  0.86930000  1.0 -0.1276557647
C  C201  1  0.65180000  0.15050000  0.86930000  1.0 -0.1276557647
C  C202  1  0.86930000  0.65180000  0.15050000  1.0 -0.1276557647
C  C203  1  0.15050000  0.78120000  0.49870000  1.0 -0.1276557647
C  C204  1  0.65180000  0.00130000  0.78250000  1.0 -0.1276557647
C  C205  1  0.49870000  0.84820000  0.71750000  1.0 -0.1276557647
C  C206  1  0.78120000  0.49870000  0.15050000  1.0 -0.1276557647
C  C207  1  0.63070000  0.78120000  0.78250000  1.0 -0.1276557647
C  C208  1  0.84820000  0.63070000  0.34950000  1.0 -0.1276557647
C  C209  1  0.34950000  0.00130000  0.71880000  1.0 -0.1276557647
C  C210  1  0.00130000  0.78250000  0.65180000  1.0 -0.1276557647
C  C211  1  0.86930000  0.71750000  0.71880000  1.0 -0.1276557647
C  C212  1  0.15050000  0.86930000  0.65180000  1.0 -0.1276557647
C  C213  1  0.49870000  0.15050000  0.78120000  1.0 -0.1276557647
C  C214  1  0.71750000  0.49870000  0.84820000  1.0 -0.1276557647
C  C215  1  0.78250000  0.63070000  0.78120000  1.0 -0.1276557647
C  C216  1  0.63070000  0.34950000  0.84820000  1.0 -0.1276557647
C  C217  1  0.75660000  0.33500000  0.03980000  1.0 -0.0500428651
C  C218  1  0.33500000  0.79520000  0.57840000  1.0 -0.0500428651
C  C219  1  0.74340000  0.78320000  0.57840000  1.0 -0.0500428651
C  C220  1  0.03980000  0.75660000  0.33500000  1.0 -0.0500428651
C  C221  1  0.79520000  0.71680000  0.46020000  1.0 -0.0500428651
C  C222  1  0.78320000  0.70480000  0.03980000  1.0 -0.0500428651
C  C223  1  0.75660000  0.92160000  0.71680000  1.0 -0.0500428651
C  C224  1  0.71680000  0.75660000  0.92160000  1.0 -0.0500428651
C  C225  1  0.70480000  0.16500000  0.92160000  1.0 -0.0500428651
C  C226  1  0.92160000  0.70480000  0.16500000  1.0 -0.0500428651
C  C227  1  0.16500000  0.74340000  0.46020000  1.0 -0.0500428651
C  C228  1  0.70480000  0.03980000  0.78320000  1.0 -0.0500428651
C  C229  1  0.46020000  0.79520000  0.71680000  1.0 -0.0500428651
C  C230  1  0.74340000  0.46020000  0.16500000  1.0 -0.0500428651
C  C231  1  0.57840000  0.74340000  0.78320000  1.0 -0.0500428651
C  C232  1  0.79520000  0.57840000  0.33500000  1.0 -0.0500428651
C  C233  1  0.33500000  0.03980000  0.75660000  1.0 -0.0500428651
C  C234  1  0.03980000  0.78320000  0.70480000  1.0 -0.0500428651
C  C235  1  0.92160000  0.71680000  0.75660000  1.0 -0.0500428651
C  C236  1  0.16500000  0.92160000  0.70480000  1.0 -0.0500428651
C  C237  1  0.46020000  0.16500000  0.74340000  1.0 -0.0500428651
C  C238  1  0.71680000  0.46020000  0.79520000  1.0 -0.0500428651
C  C239  1  0.78320000  0.57840000  0.74340000  1.0 -0.0500428651
C  C240  1  0.57840000  0.33500000  0.79520000  1.0 -0.0500428651
C  C241  1  0.72510000  0.29770000  0.05940000  1.0 -0.120807795
C  C242  1  0.29770000  0.73830000  0.57260000  1.0 -0.120807795
C  C243  1  0.77490000  0.83430000  0.57260000  1.0 -0.120807795
C  C244  1  0.05940000  0.72510000  0.29770000  1.0 -0.120807795
C  C245  1  0.73830000  0.66570000  0.44060000  1.0 -0.120807795
C  C246  1  0.83430000  0.76170000  0.05940000  1.0 -0.120807795
C  C247  1  0.72510000  0.92740000  0.66570000  1.0 -0.120807795
C  C248  1  0.66570000  0.72510000  0.92740000  1.0 -0.120807795
C  C249  1  0.76170000  0.20230000  0.92740000  1.0 -0.120807795
C  C250  1  0.92740000  0.76170000  0.20230000  1.0 -0.120807795
C  C251  1  0.20230000  0.77490000  0.44060000  1.0 -0.120807795
C  C252  1  0.76170000  0.05940000  0.83430000  1.0 -0.120807795
C  C253  1  0.44060000  0.73830000  0.66570000  1.0 -0.120807795
C  C254  1  0.77490000  0.44060000  0.20230000  1.0 -0.120807795
C  C255  1  0.57260000  0.77490000  0.83430000  1.0 -0.120807795
C  C256  1  0.73830000  0.57260000  0.29770000  1.0 -0.120807795
C  C257  1  0.29770000  0.05940000  0.72510000  1.0 -0.120807795
C  C258  1  0.05940000  0.83430000  0.76170000  1.0 -0.120807795
C  C259  1  0.92740000  0.66570000  0.72510000  1.0 -0.120807795
C  C260  1  0.20230000  0.92740000  0.76170000  1.0 -0.120807795
C  C261  1  0.44060000  0.20230000  0.77490000  1.0 -0.120807795
C  C262  1  0.66570000  0.44060000  0.73830000  1.0 -0.120807795
C  C263  1  0.83430000  0.57260000  0.77490000  1.0 -0.120807795
C  C264  1  0.57260000  0.29770000  0.73830000  1.0 -0.120807795
C  C265  1  0.66130000  0.27630000  0.04100000  1.0 0.0620886033
C  C266  1  0.27630000  0.73530000  0.61500000  1.0 0.0620886033
C  C267  1  0.83870000  0.87970000  0.61500000  1.0 0.0620886033
C  C268  1  0.04100000  0.66130000  0.27630000  1.0 0.0620886033
C  C269  1  0.73530000  0.62030000  0.45900000  1.0 0.0620886033
C  C270  1  0.87970000  0.76470000  0.04100000  1.0 0.0620886033
C  C271  1  0.66130000  0.88500000  0.62030000  1.0 0.0620886033
C  C272  1  0.62030000  0.66130000  0.88500000  1.0 0.0620886033
C  C273  1  0.76470000  0.22370000  0.88500000  1.0 0.0620886033
C  C274  1  0.88500000  0.76470000  0.22370000  1.0 0.0620886033
C  C275  1  0.22370000  0.83870000  0.45900000  1.0 0.0620886033
C  C276  1  0.76470000  0.04100000  0.87970000  1.0 0.0620886033
C  C277  1  0.45900000  0.73530000  0.62030000  1.0 0.0620886033
C  C278  1  0.83870000  0.45900000  0.22370000  1.0 0.0620886033
C  C279  1  0.61500000  0.83870000  0.87970000  1.0 0.0620886033
C  C280  1  0.73530000  0.61500000  0.27630000  1.0 0.0620886033
C  C281  1  0.27630000  0.04100000  0.66130000  1.0 0.0620886033
C  C282  1  0.04100000  0.87970000  0.76470000  1.0 0.0620886033
C  C283  1  0.88500000  0.62030000  0.66130000  1.0 0.0620886033
C  C284  1  0.22370000  0.88500000  0.76470000  1.0 0.0620886033
C  C285  1  0.45900000  0.22370000  0.83870000  1.0 0.0620886033
C  C286  1  0.62030000  0.45900000  0.73530000  1.0 0.0620886033
C  C287  1  0.87970000  0.61500000  0.83870000  1.0 0.0620886033
C  C288  1  0.61500000  0.27630000  0.73530000  1.0 0.0620886033
C  C289  1  0.66580000  0.31920000  0.99460000  1.0 -0.002800735
C  C290  1  0.31920000  0.82460000  0.65340000  1.0 -0.002800735
C  C291  1  0.83420000  0.82880000  0.65340000  1.0 -0.002800735
C  C292  1  0.99460000  0.66580000  0.31920000  1.0 -0.002800735
C  C293  1  0.82460000  0.67120000  0.50540000  1.0 -0.002800735
C  C294  1  0.82880000  0.67540000  0.99460000  1.0 -0.002800735
C  C295  1  0.66580000  0.84660000  0.67120000  1.0 -0.002800735
C  C296  1  0.67120000  0.66580000  0.84660000  1.0 -0.002800735
C  C297  1  0.67540000  0.18080000  0.84660000  1.0 -0.002800735
C  C298  1  0.84660000  0.67540000  0.18080000  1.0 -0.002800735
C  C299  1  0.18080000  0.83420000  0.50540000  1.0 -0.002800735
C  C300  1  0.67540000  0.99460000  0.82880000  1.0 -0.002800735
C  C301  1  0.50540000  0.82460000  0.67120000  1.0 -0.002800735
C  C302  1  0.83420000  0.50540000  0.18080000  1.0 -0.002800735
C  C303  1  0.65340000  0.83420000  0.82880000  1.0 -0.002800735
C  C304  1  0.82460000  0.65340000  0.31920000  1.0 -0.002800735
C  C305  1  0.31920000  0.99460000  0.66580000  1.0 -0.002800735
C  C306  1  0.99460000  0.82880000  0.67540000  1.0 -0.002800735
C  C307  1  0.84660000  0.67120000  0.66580000  1.0 -0.002800735
C  C308  1  0.18080000  0.84660000  0.67540000  1.0 -0.002800735
C  C309  1  0.50540000  0.18080000  0.83420000  1.0 -0.002800735
C  C310  1  0.67120000  0.50540000  0.82460000  1.0 -0.002800735
C  C311  1  0.82880000  0.65340000  0.83420000  1.0 -0.002800735
C  C312  1  0.65340000  0.31920000  0.82460000  1.0 -0.002800735
C  C313  1  0.73030000  0.34120000  0.01730000  1.0 -0.0500428651
C  C314  1  0.34120000  0.82390000  0.61090000  1.0 -0.0431212302
C  C315  1  0.76970000  0.78700000  0.61090000  1.0 -0.0431212302
C  C316  1  0.01730000  0.73030000  0.34120000  1.0 -0.0500428651
C  C317  1  0.82390000  0.71300000  0.48270000  1.0 -0.0500428651
C  C318  1  0.78700000  0.67610000  0.01730000  1.0 -0.0500428651
C  C319  1  0.73030000  0.88910000  0.71300000  1.0 -0.0500428651
C  C320  1  0.71300000  0.73030000  0.88910000  1.0 -0.0431212302
C  C321  1  0.67610000  0.15880000  0.88910000  1.0 -0.0431212302
C  C322  1  0.88910000  0.67610000  0.15880000  1.0 -0.0500428651
C  C323  1  0.15880000  0.76970000  0.48270000  1.0 -0.0500428651
C  C324  1  0.67610000  0.01730000  0.78700000  1.0 -0.0500428651
C  C325  1  0.48270000  0.82390000  0.71300000  1.0 -0.0500428651
C  C326  1  0.76970000  0.48270000  0.15880000  1.0 -0.0500428651
C  C327  1  0.61090000  0.76970000  0.78700000  1.0 -0.0431212302
C  C328  1  0.82390000  0.61090000  0.34120000  1.0 -0.0431212302
C  C329  1  0.34120000  0.01730000  0.73030000  1.0 -0.0431212302
C  C330  1  0.01730000  0.78700000  0.67610000  1.0 -0.0431212302
C  C331  1  0.88910000  0.71300000  0.73030000  1.0 -0.0431212302
C  C332  1  0.15880000  0.88910000  0.67610000  1.0 -0.0431212302
C  C333  1  0.48270000  0.15880000  0.76970000  1.0 -0.0431212302
C  C334  1  0.71300000  0.48270000  0.82390000  1.0 -0.0431212302
C  C335  1  0.78700000  0.61090000  0.76970000  1.0 -0.0431212302
C  C336  1  0.61090000  0.34120000  0.82390000  1.0 -0.0431212302
C  C337  1  0.76460000  0.32650000  0.05870000  1.0 -0.0608938535
C  C338  1  0.32650000  0.76780000  0.56190000  1.0 -0.0608938535
C  C339  1  0.73540000  0.79410000  0.56190000  1.0 -0.0608938535
C  C340  1  0.05870000  0.76460000  0.32650000  1.0 -0.0608938535
C  C341  1  0.76780000  0.70590000  0.44130000  1.0 -0.0608938535
C  C342  1  0.79410000  0.73220000  0.05870000  1.0 -0.0608938535
C  C343  1  0.76460000  0.93810000  0.70590000  1.0 -0.0608938535
C  C344  1  0.70590000  0.76460000  0.93810000  1.0 -0.0608938535
C  C345  1  0.73220000  0.17350000  0.93810000  1.0 -0.0608938535
C  C346  1  0.93810000  0.73220000  0.17350000  1.0 -0.0608938535
C  C347  1  0.17350000  0.73540000  0.44130000  1.0 -0.0608938535
C  C348  1  0.73220000  0.05870000  0.79410000  1.0 -0.0608938535
C  C349  1  0.44130000  0.76780000  0.70590000  1.0 -0.0608938535
C  C350  1  0.73540000  0.44130000  0.17350000  1.0 -0.0608938535
C  C351  1  0.56190000  0.73540000  0.79410000  1.0 -0.0608938535
C  C352  1  0.76780000  0.56190000  0.32650000  1.0 -0.0608938535
C  C353  1  0.32650000  0.05870000  0.76460000  1.0 -0.0608938535
C  C354  1  0.05870000  0.79410000  0.73220000  1.0 -0.0608938535
C  C355  1  0.93810000  0.70590000  0.76460000  1.0 -0.0608938535
C  C356  1  0.17350000  0.93810000  0.73220000  1.0 -0.0608938535
C  C357  1  0.44130000  0.17350000  0.73540000  1.0 -0.0608938535
C  C358  1  0.70590000  0.44130000  0.76780000  1.0 -0.0608938535
C  C359  1  0.79410000  0.56190000  0.73540000  1.0 -0.0608938535
C  C360  1  0.56190000  0.32650000  0.76780000  1.0 -0.0608938535
C  C361  1  0.72850000  0.28850000  0.07480000  1.0 -0.0608938535
C  C362  1  0.28850000  0.71370000  0.56000000  1.0 -0.0608938535
C  C363  1  0.77150000  0.84630000  0.56000000  1.0 -0.0608938535
C  C364  1  0.07480000  0.72850000  0.28850000  1.0 -0.0608938535
C  C365  1  0.71370000  0.65370000  0.42520000  1.0 -0.0608938535
C  C366  1  0.84630000  0.78630000  0.07480000  1.0 -0.0608938535
C  C367  1  0.72850000  0.94000000  0.65370000  1.0 -0.0608938535
C  C368  1  0.65370000  0.72850000  0.94000000  1.0 -0.0608938535
C  C369  1  0.78630000  0.21150000  0.94000000  1.0 -0.0608938535
C  C370  1  0.94000000  0.78630000  0.21150000  1.0 -0.0608938535
C  C371  1  0.21150000  0.77150000  0.42520000  1.0 -0.0608938535
C  C372  1  0.78630000  0.07480000  0.84630000  1.0 -0.0608938535
C  C373  1  0.42520000  0.71370000  0.65370000  1.0 -0.0608938535
C  C374  1  0.77150000  0.42520000  0.21150000  1.0 -0.0608938535
C  C375  1  0.56000000  0.77150000  0.84630000  1.0 -0.0608938535
C  C376  1  0.71370000  0.56000000  0.28850000  1.0 -0.0608938535
C  C377  1  0.28850000  0.07480000  0.72850000  1.0 -0.0608938535
C  C378  1  0.07480000  0.84630000  0.78630000  1.0 -0.0608938535
C  C379  1  0.94000000  0.65370000  0.72850000  1.0 -0.0608938535
C  C380  1  0.21150000  0.94000000  0.78630000  1.0 -0.0608938535
C  C381  1  0.42520000  0.21150000  0.77150000  1.0 -0.0608938535
C  C382  1  0.65370000  0.42520000  0.71370000  1.0 -0.0608938535
C  C383  1  0.84630000  0.56000000  0.77150000  1.0 -0.0608938535
C  C384  1  0.56000000  0.28850000  0.71370000  1.0 -0.0608938535
C  C385  1  0.66390000  0.26670000  0.05060000  1.0 0.0104888248
C  C386  1  0.26670000  0.71610000  0.60280000  1.0 0.0104888248
C  C387  1  0.83610000  0.88670000  0.60280000  1.0 0.0104888248
C  C388  1  0.05060000  0.66390000  0.26670000  1.0 0.0104888248
C  C389  1  0.71610000  0.61330000  0.44940000  1.0 0.0104888248
C  C390  1  0.88670000  0.78390000  0.05060000  1.0 0.0104888248
C  C391  1  0.66390000  0.89720000  0.61330000  1.0 0.0104888248
C  C392  1  0.61330000  0.66390000  0.89720000  1.0 0.0104888248
C  C393  1  0.78390000  0.23330000  0.89720000  1.0 0.0104888248
C  C394  1  0.89720000  0.78390000  0.23330000  1.0 0.0104888248
C  C395  1  0.23330000  0.83610000  0.44940000  1.0 0.0104888248
C  C396  1  0.78390000  0.05060000  0.88670000  1.0 0.0104888248
C  C397  1  0.44940000  0.71610000  0.61330000  1.0 0.0104888248
C  C398  1  0.83610000  0.44940000  0.23330000  1.0 0.0104888248
C  C399  1  0.60280000  0.83610000  0.88670000  1.0 0.0104888248
C  C400  1  0.71610000  0.60280000  0.26670000  1.0 0.0104888248
C  C401  1  0.26670000  0.05060000  0.66390000  1.0 0.0104888248
C  C402  1  0.05060000  0.88670000  0.78390000  1.0 0.0104888248
C  C403  1  0.89720000  0.61330000  0.66390000  1.0 0.0104888248
C  C404  1  0.23330000  0.89720000  0.78390000  1.0 0.0104888248
C  C405  1  0.44940000  0.23330000  0.83610000  1.0 0.0104888248
C  C406  1  0.61330000  0.44940000  0.71610000  1.0 0.0104888248
C  C407  1  0.88670000  0.60280000  0.83610000  1.0 0.0104888248
C  C408  1  0.60280000  0.26670000  0.71610000  1.0 0.0104888248
N  N1  1  0.62390000  0.29030000  0.00260000  1.0 -0.0904972603
N  N2  1  0.29030000  0.78770000  0.66640000  1.0 -0.0904972603
N  N3  1  0.87610000  0.87870000  0.66640000  1.0 -0.0904972603
N  N4  1  0.00260000  0.62390000  0.29030000  1.0 -0.0904972603
N  N5  1  0.78770000  0.62130000  0.49740000  1.0 -0.0904972603
N  N6  1  0.87870000  0.71230000  0.00260000  1.0 -0.0904972603
N  N7  1  0.62390000  0.83360000  0.62130000  1.0 -0.0904972603
N  N8  1  0.62130000  0.62390000  0.83360000  1.0 -0.0904972603
N  N9  1  0.71230000  0.20970000  0.83360000  1.0 -0.0904972603
N  N10  1  0.83360000  0.71230000  0.20970000  1.0 -0.0904972603
N  N11  1  0.20970000  0.87610000  0.49740000  1.0 -0.0904972603
N  N12  1  0.71230000  0.00260000  0.87870000  1.0 -0.0904972603
N  N13  1  0.49740000  0.78770000  0.62130000  1.0 -0.0904972603
N  N14  1  0.87610000  0.49740000  0.20970000  1.0 -0.0904972603
N  N15  1  0.66640000  0.87610000  0.87870000  1.0 -0.0904972603
N  N16  1  0.78770000  0.66640000  0.29030000  1.0 -0.0904972603
N  N17  1  0.29030000  0.00260000  0.62390000  1.0 -0.0904972603
N  N18  1  0.00260000  0.87870000  0.71230000  1.0 -0.0904972603
N  N19  1  0.83360000  0.62130000  0.62390000  1.0 -0.0904972603
N  N20  1  0.20970000  0.83360000  0.71230000  1.0 -0.0904972603
N  N21  1  0.49740000  0.20970000  0.87610000  1.0 -0.0904972603
N  N22  1  0.62130000  0.49740000  0.78770000  1.0 -0.0904972603
N  N23  1  0.87870000  0.66640000  0.87610000  1.0 -0.0904972603
N  N24  1  0.66640000  0.29030000  0.78770000  1.0 -0.0904972603
N  N25  1  0.63010000  0.28160000  0.01030000  1.0 -0.0904972603
N  N26  1  0.28160000  0.77130000  0.65150000  1.0 -0.0904972603
N  N27  1  0.86990000  0.88020000  0.65150000  1.0 -0.0904972603
N  N28  1  0.01030000  0.63010000  0.28160000  1.0 -0.0904972603
N  N29  1  0.77130000  0.61980000  0.48970000  1.0 -0.0904972603
N  N30  1  0.88020000  0.72870000  0.01030000  1.0 -0.0904972603
N  N31  1  0.63010000  0.84850000  0.61980000  1.0 -0.0904972603
N  N32  1  0.61980000  0.63010000  0.84850000  1.0 -0.0904972603
N  N33  1  0.72870000  0.21840000  0.84850000  1.0 -0.0904972603
N  N34  1  0.84850000  0.72870000  0.21840000  1.0 -0.0904972603
N  N35  1  0.21840000  0.86990000  0.48970000  1.0 -0.0904972603
N  N36  1  0.72870000  0.01030000  0.88020000  1.0 -0.0904972603
N  N37  1  0.48970000  0.77130000  0.61980000  1.0 -0.0904972603
N  N38  1  0.86990000  0.48970000  0.21840000  1.0 -0.0904972603
N  N39  1  0.65150000  0.86990000  0.88020000  1.0 -0.0904972603
N  N40  1  0.77130000  0.65150000  0.28160000  1.0 -0.0904972603
N  N41  1  0.28160000  0.01030000  0.63010000  1.0 -0.0904972603
N  N42  1  0.01030000  0.88020000  0.72870000  1.0 -0.0904972603
N  N43  1  0.84850000  0.61980000  0.63010000  1.0 -0.0904972603
N  N44  1  0.21840000  0.84850000  0.72870000  1.0 -0.0904972603
N  N45  1  0.48970000  0.21840000  0.86990000  1.0 -0.0904972603
N  N46  1  0.61980000  0.48970000  0.77130000  1.0 -0.0904972603
N  N47  1  0.88020000  0.65150000  0.86990000  1.0 -0.0904972603
N  N48  1  0.65150000  0.28160000  0.77130000  1.0 -0.0904972603
O  O1  1  0.52420000  0.33430000  0.97890000  1.0 -0.0500428651
O  O2  1  0.33430000  0.85540000  0.81010000  1.0 -0.0500428651
O  O3  1  0.97580000  0.95470000  0.81010000  1.0 -0.0500428651
O  O4  1  0.97890000  0.52420000  0.33430000  1.0 -0.0500428651
O  O5  1  0.85540000  0.54530000  0.52110000  1.0 -0.0500428651
O  O6  1  0.95470000  0.64460000  0.97890000  1.0 -0.0500428651
O  O7  1  0.52420000  0.68990000  0.54530000  1.0 -0.0500428651
O  O8  1  0.54530000  0.52420000  0.68990000  1.0 -0.0500428651
O  O9  1  0.64460000  0.16570000  0.68990000  1.0 -0.0500428651
O  O10  1  0.68990000  0.64460000  0.16570000  1.0 -0.0500428651
O  O11  1  0.16570000  0.97580000  0.52110000  1.0 -0.0500428651
O  O12  1  0.64460000  0.97890000  0.95470000  1.0 -0.0500428651
O  O13  1  0.52110000  0.85540000  0.54530000  1.0 -0.0500428651
O  O14  1  0.97580000  0.52110000  0.16570000  1.0 -0.0500428651
O  O15  1  0.81010000  0.97580000  0.95470000  1.0 -0.0500428651
O  O16  1  0.85540000  0.81010000  0.33430000  1.0 -0.0500428651
O  O17  1  0.33430000  0.97890000  0.52420000  1.0 -0.0500428651
O  O18  1  0.97890000  0.95470000  0.64460000  1.0 -0.0500428651
O  O19  1  0.68990000  0.54530000  0.52420000  1.0 -0.0500428651
O  O20  1  0.16570000  0.68990000  0.64460000  1.0 -0.0500428651
O  O21  1  0.52110000  0.16570000  0.97580000  1.0 -0.0500428651
O  O22  1  0.54530000  0.52110000  0.85540000  1.0 -0.0500428651
O  O23  1  0.95470000  0.81010000  0.97580000  1.0 -0.0500428651
O  O24  1  0.81010000  0.33430000  0.85540000  1.0 -0.0500428651
O  O25  1  0.58370000  0.40670000  0.08540000  1.0 -0.120807795
O  O26  1  0.40670000  0.82130000  0.82300000  1.0 -0.120807795
O  O27  1  0.91630000  0.00170000  0.82300000  1.0 -0.120807795
O  O28  1  0.08540000  0.58370000  0.40670000  1.0 -0.120807795
O  O29  1  0.82130000  0.49830000  0.41460000  1.0 -0.120807795
O  O30  1  0.00170000  0.67870000  0.08540000  1.0 -0.1276557647
O  O31  1  0.58370000  0.67700000  0.49830000  1.0 -0.120807795
O  O32  1  0.49830000  0.58370000  0.67700000  1.0 -0.120807795
O  O33  1  0.67870000  0.09330000  0.67700000  1.0 -0.120807795
O  O34  1  0.67700000  0.67870000  0.09330000  1.0 -0.120807795
O  O35  1  0.09330000  0.91630000  0.41460000  1.0 -0.120807795
O  O36  1  0.67870000  0.08540000  0.00170000  1.0 -0.120807795
O  O37  1  0.41460000  0.82130000  0.49830000  1.0 -0.120807795
O  O38  1  0.91630000  0.41460000  0.09330000  1.0 -0.120807795
O  O39  1  0.82300000  0.91630000  0.00170000  1.0 -0.120807795
O  O40  1  0.82130000  0.82300000  0.40670000  1.0 -0.120807795
O  O41  1  0.40670000  0.08540000  0.58370000  1.0 -0.120807795
O  O42  1  0.08540000  0.00170000  0.67870000  1.0 -0.120807795
O  O43  1  0.67700000  0.49830000  0.58370000  1.0 -0.120807795
O  O44  1  0.09330000  0.67700000  0.67870000  1.0 -0.120807795
O  O45  1  0.41460000  0.09330000  0.91630000  1.0 -0.120807795
O  O46  1  0.49830000  0.41460000  0.82130000  1.0 -0.120807795
O  O47  1  0.00170000  0.82300000  0.91630000  1.0 -0.1276557647
O  O48  1  0.82300000  0.40670000  0.82130000  1.0 -0.120807795
O  O49  1  0.42060000  0.20900000  0.94720000  1.0 -0.002800735
O  O50  1  0.20900000  0.76180000  0.78840000  1.0 -0.002800735
O  O51  1  0.07940000  0.02660000  0.78840000  1.0 -0.0057951566
O  O52  1  0.94720000  0.42060000  0.20900000  1.0 -0.002800735
O  O53  1  0.76180000  0.47340000  0.55280000  1.0 -0.002800735
O  O54  1  0.02660000  0.73820000  0.94720000  1.0 -0.0057951566
O  O55  1  0.42060000  0.71160000  0.47340000  1.0 -0.002800735
O  O56  1  0.47340000  0.42060000  0.71160000  1.0 -0.002800735
O  O57  1  0.73820000  0.29100000  0.71160000  1.0 -0.002800735
O  O58  1  0.71160000  0.73820000  0.29100000  1.0 -0.002800735
O  O59  1  0.29100000  0.07940000  0.55280000  1.0 -0.002800735
O  O60  1  0.73820000  0.94720000  0.02660000  1.0 -0.002800735
O  O61  1  0.55280000  0.76180000  0.47340000  1.0 -0.002800735
O  O62  1  0.07940000  0.55280000  0.29100000  1.0 -0.0057951566
O  O63  1  0.78840000  0.07940000  0.02660000  1.0 -0.002800735
O  O64  1  0.76180000  0.78840000  0.20900000  1.0 -0.002800735
O  O65  1  0.20900000  0.94720000  0.42060000  1.0 -0.002800735
O  O66  1  0.94720000  0.02660000  0.73820000  1.0 -0.002800735
O  O67  1  0.71160000  0.47340000  0.42060000  1.0 -0.002800735
O  O68  1  0.29100000  0.71160000  0.73820000  1.0 -0.002800735
O  O69  1  0.55280000  0.29100000  0.07940000  1.0 -0.002800735
O  O70  1  0.47340000  0.55280000  0.76180000  1.0 -0.002800735
O  O71  1  0.02660000  0.78840000  0.07940000  1.0 -0.0057951566
O  O72  1  0.78840000  0.20900000  0.76180000  1.0 -0.002800735
O  O73  1  0.54530000  0.34170000  0.98100000  1.0 -0.0764480057
O  O74  1  0.34170000  0.86070000  0.79640000  1.0 -0.0764480057
O  O75  1  0.95470000  0.93570000  0.79640000  1.0 -0.0764480057
O  O76  1  0.98100000  0.54530000  0.34170000  1.0 -0.0764480057
O  O77  1  0.86070000  0.56430000  0.51900000  1.0 -0.0764480057
O  O78  1  0.93570000  0.63930000  0.98100000  1.0 -0.0764480057
O  O79  1  0.54530000  0.70360000  0.56430000  1.0 -0.0764480057
O  O80  1  0.56430000  0.54530000  0.70360000  1.0 -0.0764480057
O  O81  1  0.63930000  0.15830000  0.70360000  1.0 -0.0764480057
O  O82  1  0.70360000  0.63930000  0.15830000  1.0 -0.0764480057
O  O83  1  0.15830000  0.95470000  0.51900000  1.0 -0.0764480057
O  O84  1  0.63930000  0.98100000  0.93570000  1.0 -0.0764480057
O  O85  1  0.51900000  0.86070000  0.56430000  1.0 -0.0764480057
O  O86  1  0.95470000  0.51900000  0.15830000  1.0 -0.0764480057
O  O87  1  0.79640000  0.95470000  0.93570000  1.0 -0.0764480057
O  O88  1  0.86070000  0.79640000  0.34170000  1.0 -0.0764480057
O  O89  1  0.34170000  0.98100000  0.54530000  1.0 -0.0764480057
O  O90  1  0.98100000  0.93570000  0.63930000  1.0 -0.0764480057
O  O91  1  0.70360000  0.56430000  0.54530000  1.0 -0.0764480057
O  O92  1  0.15830000  0.70360000  0.63930000  1.0 -0.0764480057
O  O93  1  0.51900000  0.15830000  0.95470000  1.0 -0.0764480057
O  O94  1  0.56430000  0.51900000  0.86070000  1.0 -0.0764480057
O  O95  1  0.93570000  0.79640000  0.95470000  1.0 -0.0764480057
O  O96  1  0.79640000  0.34170000  0.86070000  1.0 -0.0764480057
O  O97  1  0.56790000  0.40070000  0.08660000  1.0 -0.0212885035
O  O98  1  0.40070000  0.81410000  0.83280000  1.0 -0.0212885035
O  O99  1  0.93210000  0.01870000  0.83280000  1.0 -0.0212885035
O  O100  1  0.08660000  0.56790000  0.40070000  1.0 -0.0212885035
O  O101  1  0.81410000  0.48130000  0.41340000  1.0 -0.0212885035
O  O102  1  0.01870000  0.68590000  0.08660000  1.0 -0.0212885035
O  O103  1  0.56790000  0.66720000  0.48130000  1.0 -0.0212885035
O  O104  1  0.48130000  0.56790000  0.66720000  1.0 -0.0212885035
O  O105  1  0.68590000  0.09930000  0.66720000  1.0 -0.0212885035
O  O106  1  0.66720000  0.68590000  0.09930000  1.0 -0.0212885035
O  O107  1  0.09930000  0.93210000  0.41340000  1.0 -0.0212885035
O  O108  1  0.68590000  0.08660000  0.01870000  1.0 -0.0212885035
O  O109  1  0.41340000  0.81410000  0.48130000  1.0 -0.0212885035
O  O110  1  0.93210000  0.41340000  0.09930000  1.0 -0.0212885035
O  O111  1  0.83280000  0.93210000  0.01870000  1.0 -0.0212885035
O  O112  1  0.81410000  0.83280000  0.40070000  1.0 -0.0212885035
O  O113  1  0.40070000  0.08660000  0.56790000  1.0 -0.0212885035
O  O114  1  0.08660000  0.01870000  0.68590000  1.0 -0.0212885035
O  O115  1  0.66720000  0.48130000  0.56790000  1.0 -0.0212885035
O  O116  1  0.09930000  0.66720000  0.68590000  1.0 -0.0212885035
O  O117  1  0.41340000  0.09930000  0.93210000  1.0 -0.0212885035
O  O118  1  0.48130000  0.41340000  0.81410000  1.0 -0.0212885035
O  O119  1  0.01870000  0.83280000  0.93210000  1.0 -0.0212885035
O  O120  1  0.83280000  0.40070000  0.81410000  1.0 -0.0212885035
O  O121  1  0.53480000  0.28320000  0.06820000  1.0 -0.0904972603
O  O122  1  0.28320000  0.71500000  0.74840000  1.0 -0.0904972603
O  O123  1  0.96520000  0.03340000  0.74840000  1.0 -0.0904972603
O  O124  1  0.06820000  0.53480000  0.28320000  1.0 -0.0904972603
O  O125  1  0.71500000  0.46660000  0.43180000  1.0 -0.0904972603
O  O126  1  0.03340000  0.78500000  0.06820000  1.0 -0.0904972603
O  O127  1  0.53480000  0.75160000  0.46660000  1.0 -0.0904972603
O  O128  1  0.46660000  0.53480000  0.75160000  1.0 -0.0904972603
O  O129  1  0.78500000  0.21680000  0.75160000  1.0 -0.0904972603
O  O130  1  0.75160000  0.78500000  0.21680000  1.0 -0.0904972603
O  O131  1  0.21680000  0.96520000  0.43180000  1.0 -0.0904972603
O  O132  1  0.78500000  0.06820000  0.03340000  1.0 -0.0904972603
O  O133  1  0.43180000  0.71500000  0.46660000  1.0 -0.0904972603
O  O134  1  0.96520000  0.43180000  0.21680000  1.0 -0.0904972603
O  O135  1  0.74840000  0.96520000  0.03340000  1.0 -0.0904972603
O  O136  1  0.71500000  0.74840000  0.28320000  1.0 -0.0904972603
O  O137  1  0.28320000  0.06820000  0.53480000  1.0 -0.0904972603
O  O138  1  0.06820000  0.03340000  0.78500000  1.0 -0.0904972603
O  O139  1  0.75160000  0.46660000  0.53480000  1.0 -0.0904972603
O  O140  1  0.21680000  0.75160000  0.78500000  1.0 -0.0904972603
O  O141  1  0.43180000  0.21680000  0.96520000  1.0 -0.0904972603
O  O142  1  0.46660000  0.43180000  0.71500000  1.0 -0.0904972603
O  O143  1  0.03340000  0.74840000  0.96520000  1.0 -0.0904972603
O  O144  1  0.74840000  0.28320000  0.71500000  1.0 -0.0904972603
