# DDEC6 charges by PACMAN v1.1 (https://github.com/mtap-research/PACMAN-charge/)
data_QITHAC_FSR_pacman
_symmetry_space_group_name_H-M   'P 1'
_cell_length_a   24.65660000
_cell_length_b   24.65660000
_cell_length_c   24.65660000
_cell_angle_alpha   109.47100000
_cell_angle_beta   109.47100000
_cell_angle_gamma   109.47100000
_symmetry_Int_Tables_number   1
_chemical_formula_structural   NiH23C17(NO2)2
_chemical_formula_sum   'Ni24 H552 C408 N48 O96'
_cell_volume   11539.34680952
_cell_formula_units_Z   24
loop_
 _symmetry_equiv_pos_site_id
 _symmetry_equiv_pos_as_xyz
  1  'x, y, z'
loop_
 _atom_site_type_symbol
 _atom_site_label
 _atom_site_symmetry_multiplicity
 _atom_site_fract_x
 _atom_site_fract_y
 _atom_site_fract_z
 _atom_site_occupancy
 _atom_site_charge
Ni  Ni1  1  0.51790000  0.24630000  0.96620000  1.0 0.3087494837
Ni  Ni2  1  0.24630000  0.78010000  0.72840000  1.0 0.3087494837
Ni  Ni3  1  0.98210000  0.94830000  0.72840000  1.0 0.3087494837
Ni  Ni4  1  0.96620000  0.51790000  0.24630000  1.0 0.3087494837
Ni  Ni5  1  0.78010000  0.55170000  0.53380000  1.0 0.3087494837
Ni  Ni6  1  0.94830000  0.71990000  0.96620000  1.0 0.3087494837
Ni  Ni7  1  0.51790000  0.77160000  0.55170000  1.0 0.3087494837
Ni  Ni8  1  0.55170000  0.51790000  0.77160000  1.0 0.3087494837
Ni  Ni9  1  0.71990000  0.25370000  0.77160000  1.0 0.3087494837
Ni  Ni10  1  0.77160000  0.71990000  0.25370000  1.0 0.3087494837
Ni  Ni11  1  0.25370000  0.98210000  0.53380000  1.0 0.3158063633
Ni  Ni12  1  0.71990000  0.96620000  0.94830000  1.0 0.3087494837
Ni  Ni13  1  0.53380000  0.78010000  0.55170000  1.0 0.3087494837
Ni  Ni14  1  0.98210000  0.53380000  0.25370000  1.0 0.3158063633
Ni  Ni15  1  0.72840000  0.98210000  0.94830000  1.0 0.3087494837
Ni  Ni16  1  0.78010000  0.72840000  0.24630000  1.0 0.3087494837
Ni  Ni17  1  0.24630000  0.96620000  0.51790000  1.0 0.3087494837
Ni  Ni18  1  0.96620000  0.94830000  0.71990000  1.0 0.3087494837
Ni  Ni19  1  0.77160000  0.55170000  0.51790000  1.0 0.3087494837
Ni  Ni20  1  0.25370000  0.77160000  0.71990000  1.0 0.3087494837
Ni  Ni21  1  0.53380000  0.25370000  0.98210000  1.0 0.3087494837
Ni  Ni22  1  0.55170000  0.53380000  0.78010000  1.0 0.3087494837
Ni  Ni23  1  0.94830000  0.72840000  0.98210000  1.0 0.3087494837
Ni  Ni24  1  0.72840000  0.24630000  0.78010000  1.0 0.3087494837
H  H1  1  0.63000000  0.51800000  0.10800000  1.0 0.1150037539
H  H2  1  0.51800000  0.91000000  0.88800000  1.0 0.1150037539
H  H3  1  0.87000000  0.97800000  0.88800000  1.0 0.1150037539
H  H4  1  0.10800000  0.63000000  0.51800000  1.0 0.1150037539
H  H5  1  0.91000000  0.52200000  0.39200000  1.0 0.1150037539
H  H6  1  0.97800000  0.59000000  0.10800000  1.0 0.1148183835
H  H7  1  0.63000000  0.61200000  0.52200000  1.0 0.1150037539
H  H8  1  0.52200000  0.63000000  0.61200000  1.0 0.1150037539
H  H9  1  0.59000000  0.98200000  0.61200000  1.0 0.1150037539
H  H10  1  0.61200000  0.59000000  0.98200000  1.0 0.1150037539
H  H11  1  0.98200000  0.87000000  0.39200000  1.0 0.1150037539
H  H12  1  0.59000000  0.10800000  0.97800000  1.0 0.1150037539
H  H13  1  0.39200000  0.91000000  0.52200000  1.0 0.1150037539
H  H14  1  0.87000000  0.39200000  0.98200000  1.0 0.1150037539
H  H15  1  0.88800000  0.87000000  0.97800000  1.0 0.1150037539
H  H16  1  0.91000000  0.88800000  0.51800000  1.0 0.1148183835
H  H17  1  0.51800000  0.10800000  0.63000000  1.0 0.1150037539
H  H18  1  0.10800000  0.97800000  0.59000000  1.0 0.1150037539
H  H19  1  0.61200000  0.52200000  0.63000000  1.0 0.1150037539
H  H20  1  0.98200000  0.61200000  0.59000000  1.0 0.1148183835
H  H21  1  0.39200000  0.98200000  0.87000000  1.0 0.1150037539
H  H22  1  0.52200000  0.39200000  0.91000000  1.0 0.1150037539
H  H23  1  0.97800000  0.88800000  0.87000000  1.0 0.1150037539
H  H24  1  0.88800000  0.51800000  0.91000000  1.0 0.1150037539
H  H25  1  0.42100000  0.27900000  0.00400000  1.0 0.0604509685
H  H26  1  0.27900000  0.77500000  0.85800000  1.0 0.0604509685
H  H27  1  0.07900000  0.08300000  0.85800000  1.0 0.0604509685
H  H28  1  0.00400000  0.42100000  0.27900000  1.0 0.0604509685
H  H29  1  0.77500000  0.41700000  0.49600000  1.0 0.0604509685
H  H30  1  0.08300000  0.72500000  0.00400000  1.0 0.0604509685
H  H31  1  0.42100000  0.64200000  0.41700000  1.0 0.0604509685
H  H32  1  0.41700000  0.42100000  0.64200000  1.0 0.0604509685
H  H33  1  0.72500000  0.22100000  0.64200000  1.0 0.0604509685
H  H34  1  0.64200000  0.72500000  0.22100000  1.0 0.0604509685
H  H35  1  0.22100000  0.07900000  0.49600000  1.0 0.0604509685
H  H36  1  0.72500000  0.00400000  0.08300000  1.0 0.0604509685
H  H37  1  0.49600000  0.77500000  0.41700000  1.0 0.0604509685
H  H38  1  0.07900000  0.49600000  0.22100000  1.0 0.0604509685
H  H39  1  0.85800000  0.07900000  0.08300000  1.0 0.0604509685
H  H40  1  0.77500000  0.85800000  0.27900000  1.0 0.0604509685
H  H41  1  0.27900000  0.00400000  0.42100000  1.0 0.0604509685
H  H42  1  0.00400000  0.08300000  0.72500000  1.0 0.0604509685
H  H43  1  0.64200000  0.41700000  0.42100000  1.0 0.0604509685
H  H44  1  0.22100000  0.64200000  0.72500000  1.0 0.0604509685
H  H45  1  0.49600000  0.22100000  0.07900000  1.0 0.0604509685
H  H46  1  0.41700000  0.49600000  0.77500000  1.0 0.0604509685
H  H47  1  0.08300000  0.85800000  0.07900000  1.0 0.0604509685
H  H48  1  0.85800000  0.27900000  0.77500000  1.0 0.0604509685
H  H49  1  0.39900000  0.21800000  0.02500000  1.0 0.0113449695
H  H50  1  0.21800000  0.69300000  0.81900000  1.0 0.0113449695
H  H51  1  0.10100000  0.12600000  0.81900000  1.0 0.0113449695
H  H52  1  0.02500000  0.39900000  0.21800000  1.0 0.0113449695
H  H53  1  0.69300000  0.37400000  0.47500000  1.0 0.0113449695
H  H54  1  0.12600000  0.80700000  0.02500000  1.0 0.0113449695
H  H55  1  0.39900000  0.68100000  0.37400000  1.0 0.0113449695
H  H56  1  0.37400000  0.39900000  0.68100000  1.0 0.0113449695
H  H57  1  0.80700000  0.28200000  0.68100000  1.0 0.0113449695
H  H58  1  0.68100000  0.80700000  0.28200000  1.0 0.0113449695
H  H59  1  0.28200000  0.10100000  0.47500000  1.0 0.0113449695
H  H60  1  0.80700000  0.02500000  0.12600000  1.0 0.0113449695
H  H61  1  0.47500000  0.69300000  0.37400000  1.0 0.0113449695
H  H62  1  0.10100000  0.47500000  0.28200000  1.0 0.0113449695
H  H63  1  0.81900000  0.10100000  0.12600000  1.0 0.0113449695
H  H64  1  0.69300000  0.81900000  0.21800000  1.0 0.0113449695
H  H65  1  0.21800000  0.02500000  0.39900000  1.0 0.0113449695
H  H66  1  0.02500000  0.12600000  0.80700000  1.0 0.0113449695
H  H67  1  0.68100000  0.37400000  0.39900000  1.0 0.0113449695
H  H68  1  0.28200000  0.68100000  0.80700000  1.0 0.0113449695
H  H69  1  0.47500000  0.28200000  0.10100000  1.0 0.0113449695
H  H70  1  0.37400000  0.47500000  0.69300000  1.0 0.0113449695
H  H71  1  0.12600000  0.81900000  0.10100000  1.0 0.0113449695
H  H72  1  0.81900000  0.21800000  0.69300000  1.0 0.0113449695
H  H73  1  0.43600000  0.28900000  0.03700000  1.0 0.0677611024
H  H74  1  0.28900000  0.75200000  0.85300000  1.0 0.0677611024
H  H75  1  0.06400000  0.10100000  0.85300000  1.0 0.0677611024
H  H76  1  0.03700000  0.43600000  0.28900000  1.0 0.0677611024
H  H77  1  0.75200000  0.39900000  0.46300000  1.0 0.0677611024
H  H78  1  0.10100000  0.74800000  0.03700000  1.0 0.0604509685
H  H79  1  0.43600000  0.64700000  0.39900000  1.0 0.0677611024
H  H80  1  0.39900000  0.43600000  0.64700000  1.0 0.0677611024
H  H81  1  0.74800000  0.21100000  0.64700000  1.0 0.0677611024
H  H82  1  0.64700000  0.74800000  0.21100000  1.0 0.0604509685
H  H83  1  0.21100000  0.06400000  0.46300000  1.0 0.0677611024
H  H84  1  0.74800000  0.03700000  0.10100000  1.0 0.0677611024
H  H85  1  0.46300000  0.75200000  0.39900000  1.0 0.0677611024
H  H86  1  0.06400000  0.46300000  0.21100000  1.0 0.0604509685
H  H87  1  0.85300000  0.06400000  0.10100000  1.0 0.0677611024
H  H88  1  0.75200000  0.85300000  0.28900000  1.0 0.0604509685
H  H89  1  0.28900000  0.03700000  0.43600000  1.0 0.0677611024
H  H90  1  0.03700000  0.10100000  0.74800000  1.0 0.0677611024
H  H91  1  0.64700000  0.39900000  0.43600000  1.0 0.0677611024
H  H92  1  0.21100000  0.64700000  0.74800000  1.0 0.0677611024
H  H93  1  0.46300000  0.21100000  0.06400000  1.0 0.0677611024
H  H94  1  0.39900000  0.46300000  0.75200000  1.0 0.0677611024
H  H95  1  0.10100000  0.85300000  0.06400000  1.0 0.0604509685
H  H96  1  0.85300000  0.28900000  0.75200000  1.0 0.0677611024
H  H97  1  0.31800000  0.19700000  0.94500000  1.0 0.1015021475
H  H98  1  0.19700000  0.75200000  0.87900000  1.0 0.1015021475
H  H99  1  0.18200000  0.12700000  0.87900000  1.0 0.1015021475
H  H100  1  0.94500000  0.31800000  0.19700000  1.0 0.1015021475
H  H101  1  0.75200000  0.37300000  0.55500000  1.0 0.1015021475
H  H102  1  0.12700000  0.74800000  0.94500000  1.0 0.1015021475
H  H103  1  0.31800000  0.62100000  0.37300000  1.0 0.1015021475
H  H104  1  0.37300000  0.31800000  0.62100000  1.0 0.1015021475
H  H105  1  0.74800000  0.30300000  0.62100000  1.0 0.1015021475
H  H106  1  0.62100000  0.74800000  0.30300000  1.0 0.1015021475
H  H107  1  0.30300000  0.18200000  0.55500000  1.0 0.1015021475
H  H108  1  0.74800000  0.94500000  0.12700000  1.0 0.1015021475
H  H109  1  0.55500000  0.75200000  0.37300000  1.0 0.1015021475
H  H110  1  0.18200000  0.55500000  0.30300000  1.0 0.1015021475
H  H111  1  0.87900000  0.18200000  0.12700000  1.0 0.1015021475
H  H112  1  0.75200000  0.87900000  0.19700000  1.0 0.1015021475
H  H113  1  0.19700000  0.94500000  0.31800000  1.0 0.1015021475
H  H114  1  0.94500000  0.12700000  0.74800000  1.0 0.1015021475
H  H115  1  0.62100000  0.37300000  0.31800000  1.0 0.1015021475
H  H116  1  0.30300000  0.62100000  0.74800000  1.0 0.1015021475
H  H117  1  0.55500000  0.30300000  0.18200000  1.0 0.1015021475
H  H118  1  0.37300000  0.55500000  0.75200000  1.0 0.1015021475
H  H119  1  0.12700000  0.87900000  0.18200000  1.0 0.1015021475
H  H120  1  0.87900000  0.19700000  0.75200000  1.0 0.1015021475
H  H121  1  0.34400000  0.23000000  0.02200000  1.0 0.0309411853
H  H122  1  0.23000000  0.70800000  0.88600000  1.0 0.0309411853
H  H123  1  0.15600000  0.17800000  0.88600000  1.0 0.0309411853
H  H124  1  0.02200000  0.34400000  0.23000000  1.0 0.0309411853
H  H125  1  0.70800000  0.32200000  0.47800000  1.0 0.0309411853
H  H126  1  0.17800000  0.79200000  0.02200000  1.0 0.0309411853
H  H127  1  0.34400000  0.61400000  0.32200000  1.0 0.0309411853
H  H128  1  0.32200000  0.34400000  0.61400000  1.0 0.0309411853
H  H129  1  0.79200000  0.27000000  0.61400000  1.0 0.0309411853
H  H130  1  0.61400000  0.79200000  0.27000000  1.0 0.0309411853
H  H131  1  0.27000000  0.15600000  0.47800000  1.0 0.0309411853
H  H132  1  0.79200000  0.02200000  0.17800000  1.0 0.0309411853
H  H133  1  0.47800000  0.70800000  0.32200000  1.0 0.0309411853
H  H134  1  0.15600000  0.47800000  0.27000000  1.0 0.0309411853
H  H135  1  0.88600000  0.15600000  0.17800000  1.0 0.0309411853
H  H136  1  0.70800000  0.88600000  0.23000000  1.0 0.0309411853
H  H137  1  0.23000000  0.02200000  0.34400000  1.0 0.0309411853
H  H138  1  0.02200000  0.17800000  0.79200000  1.0 0.0309411853
H  H139  1  0.61400000  0.32200000  0.34400000  1.0 0.0309411853
H  H140  1  0.27000000  0.61400000  0.79200000  1.0 0.0309411853
H  H141  1  0.47800000  0.27000000  0.15600000  1.0 0.0309411853
H  H142  1  0.32200000  0.47800000  0.70800000  1.0 0.0309411853
H  H143  1  0.17800000  0.88600000  0.15600000  1.0 0.0309411853
H  H144  1  0.88600000  0.23000000  0.70800000  1.0 0.0309411853
H  H145  1  0.33800000  0.16100000  0.98300000  1.0 0.0492914069
H  H146  1  0.16100000  0.67800000  0.82300000  1.0 0.0492914069
H  H147  1  0.16200000  0.14500000  0.82300000  1.0 0.0492914069
H  H148  1  0.98300000  0.33800000  0.16100000  1.0 0.0492914069
H  H149  1  0.67800000  0.35500000  0.51700000  1.0 0.0492914069
H  H150  1  0.14500000  0.82200000  0.98300000  1.0 0.0492914069
H  H151  1  0.33800000  0.67700000  0.35500000  1.0 0.0492914069
H  H152  1  0.35500000  0.33800000  0.67700000  1.0 0.0492914069
H  H153  1  0.82200000  0.33900000  0.67700000  1.0 0.0492914069
H  H154  1  0.67700000  0.82200000  0.33900000  1.0 0.0492914069
H  H155  1  0.33900000  0.16200000  0.51700000  1.0 0.0492914069
H  H156  1  0.82200000  0.98300000  0.14500000  1.0 0.0492914069
H  H157  1  0.51700000  0.67800000  0.35500000  1.0 0.0492914069
H  H158  1  0.16200000  0.51700000  0.33900000  1.0 0.0492914069
H  H159  1  0.82300000  0.16200000  0.14500000  1.0 0.0492914069
H  H160  1  0.67800000  0.82300000  0.16100000  1.0 0.0492914069
H  H161  1  0.16100000  0.98300000  0.33800000  1.0 0.0492914069
H  H162  1  0.98300000  0.14500000  0.82200000  1.0 0.0492914069
H  H163  1  0.67700000  0.35500000  0.33800000  1.0 0.0492914069
H  H164  1  0.33900000  0.67700000  0.82200000  1.0 0.0492914069
H  H165  1  0.51700000  0.33900000  0.16200000  1.0 0.0492914069
H  H166  1  0.35500000  0.51700000  0.67800000  1.0 0.0492914069
H  H167  1  0.14500000  0.82300000  0.16200000  1.0 0.0492914069
H  H168  1  0.82300000  0.16100000  0.67800000  1.0 0.0492914069
H  H169  1  0.62700000  0.34200000  0.95500000  1.0 0.0385444173
H  H170  1  0.34200000  0.88700000  0.71500000  1.0 0.0385444173
H  H171  1  0.87300000  0.82800000  0.71500000  1.0 0.0385444173
H  H172  1  0.95500000  0.62700000  0.34200000  1.0 0.0385444173
H  H173  1  0.88700000  0.67200000  0.54500000  1.0 0.0385444173
H  H174  1  0.82800000  0.61300000  0.95500000  1.0 0.0385444173
H  H175  1  0.62700000  0.78500000  0.67200000  1.0 0.0385444173
H  H176  1  0.67200000  0.62700000  0.78500000  1.0 0.0385444173
H  H177  1  0.61300000  0.15800000  0.78500000  1.0 0.0385444173
H  H178  1  0.78500000  0.61300000  0.15800000  1.0 0.0385444173
H  H179  1  0.15800000  0.87300000  0.54500000  1.0 0.0385444173
H  H180  1  0.61300000  0.95500000  0.82800000  1.0 0.0385444173
H  H181  1  0.54500000  0.88700000  0.67200000  1.0 0.0385444173
H  H182  1  0.87300000  0.54500000  0.15800000  1.0 0.0385444173
H  H183  1  0.71500000  0.87300000  0.82800000  1.0 0.0385444173
H  H184  1  0.88700000  0.71500000  0.34200000  1.0 0.0385444173
H  H185  1  0.34200000  0.95500000  0.62700000  1.0 0.0385444173
H  H186  1  0.95500000  0.82800000  0.61300000  1.0 0.0385444173
H  H187  1  0.78500000  0.67200000  0.62700000  1.0 0.0385444173
H  H188  1  0.15800000  0.78500000  0.61300000  1.0 0.0385444173
H  H189  1  0.54500000  0.15800000  0.87300000  1.0 0.0385444173
H  H190  1  0.67200000  0.54500000  0.88700000  1.0 0.0385444173
H  H191  1  0.82800000  0.71500000  0.87300000  1.0 0.0385444173
H  H192  1  0.71500000  0.34200000  0.88700000  1.0 0.0385444173
H  H193  1  0.74100000  0.38100000  0.99000000  1.0 0.0604509685
H  H194  1  0.38100000  0.89100000  0.64000000  1.0 0.0604509685
H  H195  1  0.75900000  0.74900000  0.64000000  1.0 0.0604509685
H  H196  1  0.99000000  0.74100000  0.38100000  1.0 0.0604509685
H  H197  1  0.89100000  0.75100000  0.51000000  1.0 0.0604509685
H  H198  1  0.74900000  0.60900000  0.99000000  1.0 0.0604509685
H  H199  1  0.74100000  0.86000000  0.75100000  1.0 0.0604509685
H  H200  1  0.75100000  0.74100000  0.86000000  1.0 0.0604509685
H  H201  1  0.60900000  0.11900000  0.86000000  1.0 0.0604509685
H  H202  1  0.86000000  0.60900000  0.11900000  1.0 0.0604509685
H  H203  1  0.11900000  0.75900000  0.51000000  1.0 0.0604509685
H  H204  1  0.60900000  0.99000000  0.74900000  1.0 0.0604509685
H  H205  1  0.51000000  0.89100000  0.75100000  1.0 0.0604509685
H  H206  1  0.75900000  0.51000000  0.11900000  1.0 0.0604509685
H  H207  1  0.64000000  0.75900000  0.74900000  1.0 0.0604509685
H  H208  1  0.89100000  0.64000000  0.38100000  1.0 0.0604509685
H  H209  1  0.38100000  0.99000000  0.74100000  1.0 0.0604509685
H  H210  1  0.99000000  0.74900000  0.60900000  1.0 0.0604509685
H  H211  1  0.86000000  0.75100000  0.74100000  1.0 0.0604509685
H  H212  1  0.11900000  0.86000000  0.60900000  1.0 0.0604509685
H  H213  1  0.51000000  0.11900000  0.75900000  1.0 0.0604509685
H  H214  1  0.75100000  0.51000000  0.89100000  1.0 0.0604509685
H  H215  1  0.74900000  0.64000000  0.75900000  1.0 0.0604509685
H  H216  1  0.64000000  0.38100000  0.89100000  1.0 0.0604509685
H  H217  1  0.80400000  0.35100000  0.05500000  1.0 0.0890902472
H  H218  1  0.35100000  0.79600000  0.54700000  1.0 0.0890902472
H  H219  1  0.69600000  0.75100000  0.54700000  1.0 0.0890902472
H  H220  1  0.05500000  0.80400000  0.35100000  1.0 0.0890902472
H  H221  1  0.79600000  0.74900000  0.44500000  1.0 0.0890902472
H  H222  1  0.75100000  0.70400000  0.05500000  1.0 0.0890902472
H  H223  1  0.80400000  0.95300000  0.74900000  1.0 0.0890902472
H  H224  1  0.74900000  0.80400000  0.95300000  1.0 0.0890902472
H  H225  1  0.70400000  0.14900000  0.95300000  1.0 0.0890902472
H  H226  1  0.95300000  0.70400000  0.14900000  1.0 0.0890902472
H  H227  1  0.14900000  0.69600000  0.44500000  1.0 0.0890902472
H  H228  1  0.70400000  0.05500000  0.75100000  1.0 0.0890902472
H  H229  1  0.44500000  0.79600000  0.74900000  1.0 0.0890902472
H  H230  1  0.69600000  0.44500000  0.14900000  1.0 0.0890902472
H  H231  1  0.54700000  0.69600000  0.75100000  1.0 0.0890902472
H  H232  1  0.79600000  0.54700000  0.35100000  1.0 0.0890902472
H  H233  1  0.35100000  0.05500000  0.80400000  1.0 0.0890902472
H  H234  1  0.05500000  0.75100000  0.70400000  1.0 0.0890902472
H  H235  1  0.95300000  0.74900000  0.80400000  1.0 0.0890902472
H  H236  1  0.14900000  0.95300000  0.70400000  1.0 0.0890902472
H  H237  1  0.44500000  0.14900000  0.69600000  1.0 0.0890902472
H  H238  1  0.74900000  0.44500000  0.79600000  1.0 0.0890902472
H  H239  1  0.75100000  0.54700000  0.69600000  1.0 0.0890902472
H  H240  1  0.54700000  0.35100000  0.79600000  1.0 0.0890902472
H  H241  1  0.75700000  0.28900000  0.08600000  1.0 0.0890902472
H  H242  1  0.28900000  0.70300000  0.53200000  1.0 0.0890902472
H  H243  1  0.74300000  0.82900000  0.53200000  1.0 0.0890902472
H  H244  1  0.08600000  0.75700000  0.28900000  1.0 0.0890902472
H  H245  1  0.70300000  0.67100000  0.41400000  1.0 0.0890902472
H  H246  1  0.82900000  0.79700000  0.08600000  1.0 0.0890902472
H  H247  1  0.75700000  0.96800000  0.67100000  1.0 0.0890902472
H  H248  1  0.67100000  0.75700000  0.96800000  1.0 0.0890902472
H  H249  1  0.79700000  0.21100000  0.96800000  1.0 0.0890902472
H  H250  1  0.96800000  0.79700000  0.21100000  1.0 0.0890902472
H  H251  1  0.21100000  0.74300000  0.41400000  1.0 0.0890902472
H  H252  1  0.79700000  0.08600000  0.82900000  1.0 0.0890902472
H  H253  1  0.41400000  0.70300000  0.67100000  1.0 0.0890902472
H  H254  1  0.74300000  0.41400000  0.21100000  1.0 0.0890902472
H  H255  1  0.53200000  0.74300000  0.82900000  1.0 0.0890902472
H  H256  1  0.70300000  0.53200000  0.28900000  1.0 0.0890902472
H  H257  1  0.28900000  0.08600000  0.75700000  1.0 0.0890902472
H  H258  1  0.08600000  0.82900000  0.79700000  1.0 0.0890902472
H  H259  1  0.96800000  0.67100000  0.75700000  1.0 0.0890902472
H  H260  1  0.21100000  0.96800000  0.79700000  1.0 0.0890902472
H  H261  1  0.41400000  0.21100000  0.74300000  1.0 0.0890902472
H  H262  1  0.67100000  0.41400000  0.70300000  1.0 0.0890902472
H  H263  1  0.82900000  0.53200000  0.74300000  1.0 0.0890902472
H  H264  1  0.53200000  0.28900000  0.70300000  1.0 0.0890902472
H  H265  1  0.65100000  0.24700000  0.06000000  1.0 0.1015021475
H  H266  1  0.24700000  0.68700000  0.59600000  1.0 0.1015021475
H  H267  1  0.84900000  0.90900000  0.59600000  1.0 0.1015021475
H  H268  1  0.06000000  0.65100000  0.24700000  1.0 0.1015021475
H  H269  1  0.68700000  0.59100000  0.44000000  1.0 0.1015021475
H  H270  1  0.90900000  0.81300000  0.06000000  1.0 0.1015021475
H  H271  1  0.65100000  0.90400000  0.59100000  1.0 0.1015021475
H  H272  1  0.59100000  0.65100000  0.90400000  1.0 0.1015021475
H  H273  1  0.81300000  0.25300000  0.90400000  1.0 0.1015021475
H  H274  1  0.90400000  0.81300000  0.25300000  1.0 0.1015021475
H  H275  1  0.25300000  0.84900000  0.44000000  1.0 0.1015021475
H  H276  1  0.81300000  0.06000000  0.90900000  1.0 0.1015021475
H  H277  1  0.44000000  0.68700000  0.59100000  1.0 0.1015021475
H  H278  1  0.84900000  0.44000000  0.25300000  1.0 0.1015021475
H  H279  1  0.59600000  0.84900000  0.90900000  1.0 0.1015021475
H  H280  1  0.68700000  0.59600000  0.24700000  1.0 0.1015021475
H  H281  1  0.24700000  0.06000000  0.65100000  1.0 0.1015021475
H  H282  1  0.06000000  0.90900000  0.81300000  1.0 0.1015021475
H  H283  1  0.90400000  0.59100000  0.65100000  1.0 0.1015021475
H  H284  1  0.25300000  0.90400000  0.81300000  1.0 0.1015021475
H  H285  1  0.44000000  0.25300000  0.84900000  1.0 0.1015021475
H  H286  1  0.59100000  0.44000000  0.68700000  1.0 0.1015021475
H  H287  1  0.90900000  0.59600000  0.84900000  1.0 0.1015021475
H  H288  1  0.59600000  0.24700000  0.68700000  1.0 0.1015021475
H  H289  1  0.46400000  0.20800000  0.05800000  1.0 0.0604509685
H  H290  1  0.20800000  0.65000000  0.74400000  1.0 0.0604509685
H  H291  1  0.03600000  0.09400000  0.74400000  1.0 0.0604509685
H  H292  1  0.05800000  0.46400000  0.20800000  1.0 0.0604509685
H  H293  1  0.65000000  0.40600000  0.44200000  1.0 0.0604509685
H  H294  1  0.09400000  0.85000000  0.05800000  1.0 0.0604509685
H  H295  1  0.46400000  0.75600000  0.40600000  1.0 0.0604509685
H  H296  1  0.40600000  0.46400000  0.75600000  1.0 0.0604509685
H  H297  1  0.85000000  0.29200000  0.75600000  1.0 0.0604509685
H  H298  1  0.75600000  0.85000000  0.29200000  1.0 0.0604509685
H  H299  1  0.29200000  0.03600000  0.44200000  1.0 0.0604509685
H  H300  1  0.85000000  0.05800000  0.09400000  1.0 0.0604509685
H  H301  1  0.44200000  0.65000000  0.40600000  1.0 0.0604509685
H  H302  1  0.03600000  0.44200000  0.29200000  1.0 0.0604509685
H  H303  1  0.74400000  0.03600000  0.09400000  1.0 0.0604509685
H  H304  1  0.65000000  0.74400000  0.20800000  1.0 0.0604509685
H  H305  1  0.20800000  0.05800000  0.46400000  1.0 0.0604509685
H  H306  1  0.05800000  0.09400000  0.85000000  1.0 0.0604509685
H  H307  1  0.75600000  0.40600000  0.46400000  1.0 0.0604509685
H  H308  1  0.29200000  0.75600000  0.85000000  1.0 0.0604509685
H  H309  1  0.44200000  0.29200000  0.03600000  1.0 0.0604509685
H  H310  1  0.40600000  0.44200000  0.65000000  1.0 0.0604509685
H  H311  1  0.09400000  0.74400000  0.03600000  1.0 0.0604509685
H  H312  1  0.74400000  0.20800000  0.65000000  1.0 0.0604509685
H  H313  1  0.37200000  0.20600000  0.99200000  1.0 0.0309411853
H  H314  1  0.20600000  0.71400000  0.83400000  1.0 0.0385444173
H  H315  1  0.12800000  0.12000000  0.83400000  1.0 0.0309411853
H  H316  1  0.99200000  0.37200000  0.20600000  1.0 0.0309411853
H  H317  1  0.71400000  0.38000000  0.50800000  1.0 0.0309411853
H  H318  1  0.12000000  0.78600000  0.99200000  1.0 0.0385444173
H  H319  1  0.37200000  0.66600000  0.38000000  1.0 0.0385444173
H  H320  1  0.38000000  0.37200000  0.66600000  1.0 0.0385444173
H  H321  1  0.78600000  0.29400000  0.66600000  1.0 0.0309411853
H  H322  1  0.66600000  0.78600000  0.29400000  1.0 0.0309411853
H  H323  1  0.29400000  0.12800000  0.50800000  1.0 0.0309411853
H  H324  1  0.78600000  0.99200000  0.12000000  1.0 0.0309411853
H  H325  1  0.50800000  0.71400000  0.38000000  1.0 0.0309411853
H  H326  1  0.12800000  0.50800000  0.29400000  1.0 0.0385444173
H  H327  1  0.83400000  0.12800000  0.12000000  1.0 0.0309411853
H  H328  1  0.71400000  0.83400000  0.20600000  1.0 0.0309411853
H  H329  1  0.20600000  0.99200000  0.37200000  1.0 0.0385444173
H  H330  1  0.99200000  0.12000000  0.78600000  1.0 0.0309411853
H  H331  1  0.66600000  0.38000000  0.37200000  1.0 0.0309411853
H  H332  1  0.29400000  0.66600000  0.78600000  1.0 0.0385444173
H  H333  1  0.50800000  0.29400000  0.12800000  1.0 0.0309411853
H  H334  1  0.38000000  0.50800000  0.71400000  1.0 0.0385444173
H  H335  1  0.12000000  0.83400000  0.12800000  1.0 0.0385444173
H  H336  1  0.83400000  0.20600000  0.71400000  1.0 0.0309411853
H  H337  1  0.41300000  0.27600000  0.00300000  1.0 0.0604509685
H  H338  1  0.27600000  0.77300000  0.86300000  1.0 0.0604509685
H  H339  1  0.08700000  0.09000000  0.86300000  1.0 0.0604509685
H  H340  1  0.00300000  0.41300000  0.27600000  1.0 0.0604509685
H  H341  1  0.77300000  0.41000000  0.49700000  1.0 0.0604509685
H  H342  1  0.09000000  0.72700000  0.00300000  1.0 0.0604509685
H  H343  1  0.41300000  0.63700000  0.41000000  1.0 0.0604509685
H  H344  1  0.41000000  0.41300000  0.63700000  1.0 0.0604509685
H  H345  1  0.72700000  0.22400000  0.63700000  1.0 0.0604509685
H  H346  1  0.63700000  0.72700000  0.22400000  1.0 0.0604509685
H  H347  1  0.22400000  0.08700000  0.49700000  1.0 0.0604509685
H  H348  1  0.72700000  0.00300000  0.09000000  1.0 0.0604509685
H  H349  1  0.49700000  0.77300000  0.41000000  1.0 0.0604509685
H  H350  1  0.08700000  0.49700000  0.22400000  1.0 0.0604509685
H  H351  1  0.86300000  0.08700000  0.09000000  1.0 0.0604509685
H  H352  1  0.77300000  0.86300000  0.27600000  1.0 0.0604509685
H  H353  1  0.27600000  0.00300000  0.41300000  1.0 0.0604509685
H  H354  1  0.00300000  0.09000000  0.72700000  1.0 0.0604509685
H  H355  1  0.63700000  0.41000000  0.41300000  1.0 0.0604509685
H  H356  1  0.22400000  0.63700000  0.72700000  1.0 0.0604509685
H  H357  1  0.49700000  0.22400000  0.08700000  1.0 0.0604509685
H  H358  1  0.41000000  0.49700000  0.77300000  1.0 0.0604509685
H  H359  1  0.09000000  0.86300000  0.08700000  1.0 0.0604509685
H  H360  1  0.86300000  0.27600000  0.77300000  1.0 0.0604509685
H  H361  1  0.51700000  0.29400000  0.15900000  1.0 -0.010218192
H  H362  1  0.29400000  0.63500000  0.77700000  1.0 -0.010218192
H  H363  1  0.98300000  0.14200000  0.77700000  1.0 -0.010218192
H  H364  1  0.15900000  0.51700000  0.29400000  1.0 -0.010218192
H  H365  1  0.63500000  0.35800000  0.34100000  1.0 -0.010218192
H  H366  1  0.14200000  0.86500000  0.15900000  1.0 -0.010218192
H  H367  1  0.51700000  0.72300000  0.35800000  1.0 -0.010218192
H  H368  1  0.35800000  0.51700000  0.72300000  1.0 -0.010218192
H  H369  1  0.86500000  0.20600000  0.72300000  1.0 -0.010218192
H  H370  1  0.72300000  0.86500000  0.20600000  1.0 -0.010218192
H  H371  1  0.20600000  0.98300000  0.34100000  1.0 -0.010218192
H  H372  1  0.86500000  0.15900000  0.14200000  1.0 -0.010218192
H  H373  1  0.34100000  0.63500000  0.35800000  1.0 -0.010218192
H  H374  1  0.98300000  0.34100000  0.20600000  1.0 -0.010218192
H  H375  1  0.77700000  0.98300000  0.14200000  1.0 -0.023257856
H  H376  1  0.63500000  0.77700000  0.29400000  1.0 -0.010218192
H  H377  1  0.29400000  0.15900000  0.51700000  1.0 -0.010218192
H  H378  1  0.15900000  0.14200000  0.86500000  1.0 -0.010218192
H  H379  1  0.72300000  0.35800000  0.51700000  1.0 -0.010218192
H  H380  1  0.20600000  0.72300000  0.86500000  1.0 -0.010218192
H  H381  1  0.34100000  0.20600000  0.98300000  1.0 -0.010218192
H  H382  1  0.35800000  0.34100000  0.63500000  1.0 -0.010218192
H  H383  1  0.14200000  0.77700000  0.98300000  1.0 -0.010218192
H  H384  1  0.77700000  0.29400000  0.63500000  1.0 -0.010218192
H  H385  1  0.44000000  0.26500000  0.12500000  1.0 0.0793904849
H  H386  1  0.26500000  0.64000000  0.82500000  1.0 0.0793904849
H  H387  1  0.06000000  0.18500000  0.82500000  1.0 0.0793904849
H  H388  1  0.12500000  0.44000000  0.26500000  1.0 0.0793904849
H  H389  1  0.64000000  0.31500000  0.37500000  1.0 0.0793904849
H  H390  1  0.18500000  0.86000000  0.12500000  1.0 0.0793904849
H  H391  1  0.44000000  0.67500000  0.31500000  1.0 0.0793904849
H  H392  1  0.31500000  0.44000000  0.67500000  1.0 0.0793904849
H  H393  1  0.86000000  0.23500000  0.67500000  1.0 0.0793904849
H  H394  1  0.67500000  0.86000000  0.23500000  1.0 0.0793904849
H  H395  1  0.23500000  0.06000000  0.37500000  1.0 0.0793904849
H  H396  1  0.86000000  0.12500000  0.18500000  1.0 0.0793904849
H  H397  1  0.37500000  0.64000000  0.31500000  1.0 0.0793904849
H  H398  1  0.06000000  0.37500000  0.23500000  1.0 0.0793904849
H  H399  1  0.82500000  0.06000000  0.18500000  1.0 0.0793904849
H  H400  1  0.64000000  0.82500000  0.26500000  1.0 0.0793904849
H  H401  1  0.26500000  0.12500000  0.44000000  1.0 0.0793904849
H  H402  1  0.12500000  0.18500000  0.86000000  1.0 0.0793904849
H  H403  1  0.67500000  0.31500000  0.44000000  1.0 0.0793904849
H  H404  1  0.23500000  0.67500000  0.86000000  1.0 0.0793904849
H  H405  1  0.37500000  0.23500000  0.06000000  1.0 0.0793904849
H  H406  1  0.31500000  0.37500000  0.64000000  1.0 0.0793904849
H  H407  1  0.18500000  0.82500000  0.06000000  1.0 0.0793904849
H  H408  1  0.82500000  0.26500000  0.64000000  1.0 0.0793904849
H  H409  1  0.48600000  0.33100000  0.13100000  1.0 0.0677611024
H  H410  1  0.33100000  0.70000000  0.84500000  1.0 0.0677611024
H  H411  1  0.01400000  0.14500000  0.84500000  1.0 0.0677611024
H  H412  1  0.13100000  0.48600000  0.33100000  1.0 0.0677611024
H  H413  1  0.70000000  0.35500000  0.36900000  1.0 0.0677611024
H  H414  1  0.14500000  0.80000000  0.13100000  1.0 0.0677611024
H  H415  1  0.48600000  0.65500000  0.35500000  1.0 0.0677611024
H  H416  1  0.35500000  0.48600000  0.65500000  1.0 0.0677611024
H  H417  1  0.80000000  0.16900000  0.65500000  1.0 0.0677611024
H  H418  1  0.65500000  0.80000000  0.16900000  1.0 0.0677611024
H  H419  1  0.16900000  0.01400000  0.36900000  1.0 0.0677611024
H  H420  1  0.80000000  0.13100000  0.14500000  1.0 0.0677611024
H  H421  1  0.36900000  0.70000000  0.35500000  1.0 0.0677611024
H  H422  1  0.01400000  0.36900000  0.16900000  1.0 0.0677611024
H  H423  1  0.84500000  0.01400000  0.14500000  1.0 0.0677611024
H  H424  1  0.70000000  0.84500000  0.33100000  1.0 0.0677611024
H  H425  1  0.33100000  0.13100000  0.48600000  1.0 0.0677611024
H  H426  1  0.13100000  0.14500000  0.80000000  1.0 0.0677611024
H  H427  1  0.65500000  0.35500000  0.48600000  1.0 0.0677611024
H  H428  1  0.16900000  0.65500000  0.80000000  1.0 0.0677611024
H  H429  1  0.36900000  0.16900000  0.01400000  1.0 0.0677611024
H  H430  1  0.35500000  0.36900000  0.70000000  1.0 0.0677611024
H  H431  1  0.14500000  0.84500000  0.01400000  1.0 0.0677611024
H  H432  1  0.84500000  0.33100000  0.70000000  1.0 0.0677611024
H  H433  1  0.64300000  0.33100000  0.96200000  1.0 0.0890902472
H  H434  1  0.33100000  0.86900000  0.68800000  1.0 0.0890902472
H  H435  1  0.85700000  0.81900000  0.68800000  1.0 0.0890902472
H  H436  1  0.96200000  0.64300000  0.33100000  1.0 0.0890902472
H  H437  1  0.86900000  0.68100000  0.53800000  1.0 0.0890902472
H  H438  1  0.81900000  0.63100000  0.96200000  1.0 0.0890902472
H  H439  1  0.64300000  0.81200000  0.68100000  1.0 0.0890902472
H  H440  1  0.68100000  0.64300000  0.81200000  1.0 0.0890902472
H  H441  1  0.63100000  0.16900000  0.81200000  1.0 0.0890902472
H  H442  1  0.81200000  0.63100000  0.16900000  1.0 0.0890902472
H  H443  1  0.16900000  0.85700000  0.53800000  1.0 0.0890902472
H  H444  1  0.63100000  0.96200000  0.81900000  1.0 0.0890902472
H  H445  1  0.53800000  0.86900000  0.68100000  1.0 0.0890902472
H  H446  1  0.85700000  0.53800000  0.16900000  1.0 0.0890902472
H  H447  1  0.68800000  0.85700000  0.81900000  1.0 0.0890902472
H  H448  1  0.86900000  0.68800000  0.33100000  1.0 0.0890902472
H  H449  1  0.33100000  0.96200000  0.64300000  1.0 0.0890902472
H  H450  1  0.96200000  0.81900000  0.63100000  1.0 0.0890902472
H  H451  1  0.81200000  0.68100000  0.64300000  1.0 0.0890902472
H  H452  1  0.16900000  0.81200000  0.63100000  1.0 0.0890902472
H  H453  1  0.53800000  0.16900000  0.85700000  1.0 0.0890902472
H  H454  1  0.68100000  0.53800000  0.86900000  1.0 0.0890902472
H  H455  1  0.81900000  0.68800000  0.85700000  1.0 0.0890902472
H  H456  1  0.68800000  0.33100000  0.86900000  1.0 0.0890902472
H  H457  1  0.76200000  0.37100000  0.00900000  1.0 0.0793904849
H  H458  1  0.37100000  0.86200000  0.60900000  1.0 0.0793904849
H  H459  1  0.73800000  0.74700000  0.60900000  1.0 0.0793904849
H  H460  1  0.00900000  0.76200000  0.37100000  1.0 0.0793904849
H  H461  1  0.86200000  0.75300000  0.49100000  1.0 0.0793904849
H  H462  1  0.74700000  0.63800000  0.00900000  1.0 0.0793904849
H  H463  1  0.76200000  0.89100000  0.75300000  1.0 0.0793904849
H  H464  1  0.75300000  0.76200000  0.89100000  1.0 0.0793904849
H  H465  1  0.63800000  0.12900000  0.89100000  1.0 0.0793904849
H  H466  1  0.89100000  0.63800000  0.12900000  1.0 0.0793904849
H  H467  1  0.12900000  0.73800000  0.49100000  1.0 0.0793904849
H  H468  1  0.63800000  0.00900000  0.74700000  1.0 0.0793904849
H  H469  1  0.49100000  0.86200000  0.75300000  1.0 0.0793904849
H  H470  1  0.73800000  0.49100000  0.12900000  1.0 0.0793904849
H  H471  1  0.60900000  0.73800000  0.74700000  1.0 0.0793904849
H  H472  1  0.86200000  0.60900000  0.37100000  1.0 0.0793904849
H  H473  1  0.37100000  0.00900000  0.76200000  1.0 0.0793904849
H  H474  1  0.00900000  0.74700000  0.63800000  1.0 0.0793904849
H  H475  1  0.89100000  0.75300000  0.76200000  1.0 0.0793904849
H  H476  1  0.12900000  0.89100000  0.63800000  1.0 0.0793904849
H  H477  1  0.49100000  0.12900000  0.73800000  1.0 0.0793904849
H  H478  1  0.75300000  0.49100000  0.86200000  1.0 0.0793904849
H  H479  1  0.74700000  0.60900000  0.73800000  1.0 0.0793904849
H  H480  1  0.60900000  0.37100000  0.86200000  1.0 0.0793904849
H  H481  1  0.81200000  0.33700000  0.07300000  1.0 0.0677611024
H  H482  1  0.33700000  0.76400000  0.52500000  1.0 0.0677611024
H  H483  1  0.68800000  0.76100000  0.52500000  1.0 0.0677611024
H  H484  1  0.07300000  0.81200000  0.33700000  1.0 0.0677611024
H  H485  1  0.76400000  0.73900000  0.42700000  1.0 0.0677611024
H  H486  1  0.76100000  0.73600000  0.07300000  1.0 0.0677611024
H  H487  1  0.81200000  0.97500000  0.73900000  1.0 0.0677611024
H  H488  1  0.73900000  0.81200000  0.97500000  1.0 0.0677611024
H  H489  1  0.73600000  0.16300000  0.97500000  1.0 0.0677611024
H  H490  1  0.97500000  0.73600000  0.16300000  1.0 0.0677611024
H  H491  1  0.16300000  0.68800000  0.42700000  1.0 0.0677611024
H  H492  1  0.73600000  0.07300000  0.76100000  1.0 0.0677611024
H  H493  1  0.42700000  0.76400000  0.73900000  1.0 0.0677611024
H  H494  1  0.68800000  0.42700000  0.16300000  1.0 0.0677611024
H  H495  1  0.52500000  0.68800000  0.76100000  1.0 0.0677611024
H  H496  1  0.76400000  0.52500000  0.33700000  1.0 0.0677611024
H  H497  1  0.33700000  0.07300000  0.81200000  1.0 0.0677611024
H  H498  1  0.07300000  0.76100000  0.73600000  1.0 0.0677611024
H  H499  1  0.97500000  0.73900000  0.81200000  1.0 0.0677611024
H  H500  1  0.16300000  0.97500000  0.73600000  1.0 0.0677611024
H  H501  1  0.42700000  0.16300000  0.68800000  1.0 0.0677611024
H  H502  1  0.73900000  0.42700000  0.76400000  1.0 0.0677611024
H  H503  1  0.76100000  0.52500000  0.68800000  1.0 0.0677611024
H  H504  1  0.52500000  0.33700000  0.76400000  1.0 0.0677611024
H  H505  1  0.74700000  0.27400000  0.10500000  1.0 0.0793904849
H  H506  1  0.27400000  0.66900000  0.52700000  1.0 0.0793904849
H  H507  1  0.75300000  0.85800000  0.52700000  1.0 0.0793904849
H  H508  1  0.10500000  0.74700000  0.27400000  1.0 0.0793904849
H  H509  1  0.66900000  0.64200000  0.39500000  1.0 0.0793904849
H  H510  1  0.85800000  0.83100000  0.10500000  1.0 0.0793904849
H  H511  1  0.74700000  0.97300000  0.64200000  1.0 0.0793904849
H  H512  1  0.64200000  0.74700000  0.97300000  1.0 0.0793904849
H  H513  1  0.83100000  0.22600000  0.97300000  1.0 0.0793904849
H  H514  1  0.97300000  0.83100000  0.22600000  1.0 0.0793904849
H  H515  1  0.22600000  0.75300000  0.39500000  1.0 0.0793904849
H  H516  1  0.83100000  0.10500000  0.85800000  1.0 0.0793904849
H  H517  1  0.39500000  0.66900000  0.64200000  1.0 0.0793904849
H  H518  1  0.75300000  0.39500000  0.22600000  1.0 0.0793904849
H  H519  1  0.52700000  0.75300000  0.85800000  1.0 0.0793904849
H  H520  1  0.66900000  0.52700000  0.27400000  1.0 0.0793904849
H  H521  1  0.27400000  0.10500000  0.74700000  1.0 0.0793904849
H  H522  1  0.10500000  0.85800000  0.83100000  1.0 0.0793904849
H  H523  1  0.97300000  0.64200000  0.74700000  1.0 0.0793904849
H  H524  1  0.22600000  0.97300000  0.83100000  1.0 0.0793904849
H  H525  1  0.39500000  0.22600000  0.75300000  1.0 0.0793904849
H  H526  1  0.64200000  0.39500000  0.66900000  1.0 0.0793904849
H  H527  1  0.85800000  0.52700000  0.75300000  1.0 0.0793904849
H  H528  1  0.52700000  0.27400000  0.66900000  1.0 0.0793904849
H  H529  1  0.62900000  0.23900000  0.06200000  1.0 0.0604509685
H  H530  1  0.23900000  0.67700000  0.61000000  1.0 0.0604509685
H  H531  1  0.87100000  0.93300000  0.61000000  1.0 0.0604509685
H  H532  1  0.06200000  0.62900000  0.23900000  1.0 0.0604509685
H  H533  1  0.67700000  0.56700000  0.43800000  1.0 0.0604509685
H  H534  1  0.93300000  0.82300000  0.06200000  1.0 0.0604509685
H  H535  1  0.62900000  0.89000000  0.56700000  1.0 0.0604509685
H  H536  1  0.56700000  0.62900000  0.89000000  1.0 0.0604509685
H  H537  1  0.82300000  0.26100000  0.89000000  1.0 0.0604509685
H  H538  1  0.89000000  0.82300000  0.26100000  1.0 0.0604509685
H  H539  1  0.26100000  0.87100000  0.43800000  1.0 0.0604509685
H  H540  1  0.82300000  0.06200000  0.93300000  1.0 0.0604509685
H  H541  1  0.43800000  0.67700000  0.56700000  1.0 0.0604509685
H  H542  1  0.87100000  0.43800000  0.26100000  1.0 0.0604509685
H  H543  1  0.61000000  0.87100000  0.93300000  1.0 0.0604509685
H  H544  1  0.67700000  0.61000000  0.23900000  1.0 0.0604509685
H  H545  1  0.23900000  0.06200000  0.62900000  1.0 0.0604509685
H  H546  1  0.06200000  0.93300000  0.82300000  1.0 0.0604509685
H  H547  1  0.89000000  0.56700000  0.62900000  1.0 0.0604509685
H  H548  1  0.26100000  0.89000000  0.82300000  1.0 0.0604509685
H  H549  1  0.43800000  0.26100000  0.87100000  1.0 0.0604509685
H  H550  1  0.56700000  0.43800000  0.67700000  1.0 0.0604509685
H  H551  1  0.93300000  0.61000000  0.87100000  1.0 0.0604509685
H  H552  1  0.61000000  0.23900000  0.67700000  1.0 0.0604509685
C  C1  1  0.56070000  0.39250000  0.02780000  1.0 0.3087494837
C  C2  1  0.39250000  0.86470000  0.83180000  1.0 0.3046734673
C  C3  1  0.93930000  0.96710000  0.83180000  1.0 0.3087494837
C  C4  1  0.02780000  0.56070000  0.39250000  1.0 0.3087494837
C  C5  1  0.86470000  0.53290000  0.47220000  1.0 0.3087494837
C  C6  1  0.96710000  0.63530000  0.02780000  1.0 0.3087494837
C  C7  1  0.56070000  0.66820000  0.53290000  1.0 0.3087494837
C  C8  1  0.53290000  0.56070000  0.66820000  1.0 0.3087494837
C  C9  1  0.63530000  0.10750000  0.66820000  1.0 0.3087494837
C  C10  1  0.66820000  0.63530000  0.10750000  1.0 0.3087494837
C  C11  1  0.10750000  0.93930000  0.47220000  1.0 0.3087494837
C  C12  1  0.63530000  0.02780000  0.96710000  1.0 0.3087494837
C  C13  1  0.47220000  0.86470000  0.53290000  1.0 0.3087494837
C  C14  1  0.93930000  0.47220000  0.10750000  1.0 0.3087494837
C  C15  1  0.83180000  0.93930000  0.96710000  1.0 0.3087494837
C  C16  1  0.86470000  0.83180000  0.39250000  1.0 0.3087494837
C  C17  1  0.39250000  0.02780000  0.56070000  1.0 0.3046734673
C  C18  1  0.02780000  0.96710000  0.63530000  1.0 0.3087494837
C  C19  1  0.66820000  0.53290000  0.56070000  1.0 0.3087494837
C  C20  1  0.10750000  0.66820000  0.63530000  1.0 0.3046734673
C  C21  1  0.47220000  0.10750000  0.93930000  1.0 0.3046734673
C  C22  1  0.53290000  0.47220000  0.86470000  1.0 0.3087494837
C  C23  1  0.96710000  0.83180000  0.93930000  1.0 0.3046734673
C  C24  1  0.83180000  0.39250000  0.86470000  1.0 0.3087494837
C  C25  1  0.57290000  0.44770000  0.01360000  1.0 -0.0297636595
C  C26  1  0.44770000  0.93410000  0.87480000  1.0 -0.0297636595
C  C27  1  0.92710000  0.94070000  0.87480000  1.0 -0.0297636595
C  C28  1  0.01360000  0.57290000  0.44770000  1.0 -0.0297636595
C  C29  1  0.93410000  0.55930000  0.48640000  1.0 -0.0297636595
C  C30  1  0.94070000  0.56590000  0.01360000  1.0 -0.0297636595
C  C31  1  0.57290000  0.62520000  0.55930000  1.0 -0.0297636595
C  C32  1  0.55930000  0.57290000  0.62520000  1.0 -0.023257856
C  C33  1  0.56590000  0.05230000  0.62520000  1.0 -0.023257856
C  C34  1  0.62520000  0.56590000  0.05230000  1.0 -0.0297636595
C  C35  1  0.05230000  0.92710000  0.48640000  1.0 -0.0297636595
C  C36  1  0.56590000  0.01360000  0.94070000  1.0 -0.0297636595
C  C37  1  0.48640000  0.93410000  0.55930000  1.0 -0.0297636595
C  C38  1  0.92710000  0.48640000  0.05230000  1.0 -0.023257856
C  C39  1  0.87480000  0.92710000  0.94070000  1.0 -0.0297636595
C  C40  1  0.93410000  0.87480000  0.44770000  1.0 -0.0297636595
C  C41  1  0.44770000  0.01360000  0.57290000  1.0 -0.0297636595
C  C42  1  0.01360000  0.94070000  0.56590000  1.0 -0.0297636595
C  C43  1  0.62520000  0.55930000  0.57290000  1.0 -0.0297636595
C  C44  1  0.05230000  0.62520000  0.56590000  1.0 -0.0297636595
C  C45  1  0.48640000  0.05230000  0.92710000  1.0 -0.0297636595
C  C46  1  0.55930000  0.48640000  0.93410000  1.0 -0.0297636595
C  C47  1  0.94070000  0.87480000  0.92710000  1.0 -0.0297636595
C  C48  1  0.87480000  0.44770000  0.93410000  1.0 -0.0297636595
C  C49  1  0.61170000  0.51380000  0.06530000  1.0 -0.1560983591
C  C50  1  0.51380000  0.94850000  0.90210000  1.0 -0.1560983591
C  C51  1  0.88830000  0.95360000  0.90210000  1.0 -0.1560983591
C  C52  1  0.06530000  0.61170000  0.51380000  1.0 -0.1560983591
C  C53  1  0.94850000  0.54640000  0.43470000  1.0 -0.1560983591
C  C54  1  0.95360000  0.55150000  0.06530000  1.0 -0.1560983591
C  C55  1  0.61170000  0.59790000  0.54640000  1.0 -0.1560983591
C  C56  1  0.54640000  0.61170000  0.59790000  1.0 -0.1560983591
C  C57  1  0.55150000  0.98620000  0.59790000  1.0 -0.1560983591
C  C58  1  0.59790000  0.55150000  0.98620000  1.0 -0.1560983591
C  C59  1  0.98620000  0.88830000  0.43470000  1.0 -0.1560983591
C  C60  1  0.55150000  0.06530000  0.95360000  1.0 -0.1560983591
C  C61  1  0.43470000  0.94850000  0.54640000  1.0 -0.1560983591
C  C62  1  0.88830000  0.43470000  0.98620000  1.0 -0.1560983591
C  C63  1  0.90210000  0.88830000  0.95360000  1.0 -0.1560983591
C  C64  1  0.94850000  0.90210000  0.51380000  1.0 -0.1560983591
C  C65  1  0.51380000  0.06530000  0.61170000  1.0 -0.1560983591
C  C66  1  0.06530000  0.95360000  0.55150000  1.0 -0.1560983591
C  C67  1  0.59790000  0.54640000  0.61170000  1.0 -0.1560983591
C  C68  1  0.98620000  0.59790000  0.55150000  1.0 -0.1560983591
C  C69  1  0.43470000  0.98620000  0.88830000  1.0 -0.1560983591
C  C70  1  0.54640000  0.43470000  0.94850000  1.0 -0.1560983591
C  C71  1  0.95360000  0.90210000  0.88830000  1.0 -0.1560983591
C  C72  1  0.90210000  0.51380000  0.94850000  1.0 -0.1560983591
C  C73  1  0.41350000  0.23580000  0.99810000  1.0 0.0385444173
C  C74  1  0.23580000  0.73770000  0.82230000  1.0 0.0385444173
C  C75  1  0.08650000  0.08460000  0.82230000  1.0 0.0385444173
C  C76  1  0.99810000  0.41350000  0.23580000  1.0 0.0385444173
C  C77  1  0.73770000  0.41540000  0.50190000  1.0 0.0385444173
C  C78  1  0.08460000  0.76230000  0.99810000  1.0 0.0385444173
C  C79  1  0.41350000  0.67770000  0.41540000  1.0 0.0385444173
C  C80  1  0.41540000  0.41350000  0.67770000  1.0 0.0385444173
C  C81  1  0.76230000  0.26420000  0.67770000  1.0 0.0385444173
C  C82  1  0.67770000  0.76230000  0.26420000  1.0 0.0385444173
C  C83  1  0.26420000  0.08650000  0.50190000  1.0 0.0385444173
C  C84  1  0.76230000  0.99810000  0.08460000  1.0 0.0385444173
C  C85  1  0.50190000  0.73770000  0.41540000  1.0 0.0385444173
C  C86  1  0.08650000  0.50190000  0.26420000  1.0 0.0385444173
C  C87  1  0.82230000  0.08650000  0.08460000  1.0 0.0385444173
C  C88  1  0.73770000  0.82230000  0.23580000  1.0 0.0385444173
C  C89  1  0.23580000  0.99810000  0.41350000  1.0 0.0385444173
C  C90  1  0.99810000  0.08460000  0.76230000  1.0 0.0385444173
C  C91  1  0.67770000  0.41540000  0.41350000  1.0 0.0385444173
C  C92  1  0.26420000  0.67770000  0.76230000  1.0 0.0385444173
C  C93  1  0.50190000  0.26420000  0.08650000  1.0 0.0385444173
C  C94  1  0.41540000  0.50190000  0.73770000  1.0 0.0385444173
C  C95  1  0.08460000  0.82230000  0.08650000  1.0 0.0385444173
C  C96  1  0.82230000  0.23580000  0.73770000  1.0 0.0385444173
C  C97  1  0.47200000  0.25090000  0.06230000  1.0 -0.03849188
C  C98  1  0.25090000  0.68860000  0.77890000  1.0 -0.03849188
C  C99  1  0.02800000  0.09030000  0.77890000  1.0 -0.03849188
C  C100  1  0.06230000  0.47200000  0.25090000  1.0 -0.03849188
C  C101  1  0.68860000  0.40970000  0.43770000  1.0 -0.03849188
C  C102  1  0.09030000  0.81140000  0.06230000  1.0 -0.03849188
C  C103  1  0.47200000  0.72110000  0.40970000  1.0 -0.03849188
C  C104  1  0.40970000  0.47200000  0.72110000  1.0 -0.03849188
C  C105  1  0.81140000  0.24910000  0.72110000  1.0 -0.0297636595
C  C106  1  0.72110000  0.81140000  0.24910000  1.0 -0.03849188
C  C107  1  0.24910000  0.02800000  0.43770000  1.0 -0.03849188
C  C108  1  0.81140000  0.06230000  0.09030000  1.0 -0.03849188
C  C109  1  0.43770000  0.68860000  0.40970000  1.0 -0.03849188
C  C110  1  0.02800000  0.43770000  0.24910000  1.0 -0.03849188
C  C111  1  0.77890000  0.02800000  0.09030000  1.0 -0.03849188
C  C112  1  0.68860000  0.77890000  0.25090000  1.0 -0.03849188
C  C113  1  0.25090000  0.06230000  0.47200000  1.0 -0.03849188
C  C114  1  0.06230000  0.09030000  0.81140000  1.0 -0.03849188
C  C115  1  0.72110000  0.40970000  0.47200000  1.0 -0.03849188
C  C116  1  0.24910000  0.72110000  0.81140000  1.0 -0.03849188
C  C117  1  0.43770000  0.24910000  0.02800000  1.0 -0.03849188
C  C118  1  0.40970000  0.43770000  0.68860000  1.0 -0.03849188
C  C119  1  0.09030000  0.77890000  0.02800000  1.0 -0.03849188
C  C120  1  0.77890000  0.25090000  0.68860000  1.0 -0.0297636595
C  C121  1  0.34790000  0.20340000  0.98590000  1.0 -0.1716771127
C  C122  1  0.20340000  0.71750000  0.85550000  1.0 -0.1716771127
C  C123  1  0.15210000  0.13800000  0.85550000  1.0 -0.1716771127
C  C124  1  0.98590000  0.34790000  0.20340000  1.0 -0.1716771127
C  C125  1  0.71750000  0.36200000  0.51410000  1.0 -0.1716771127
C  C126  1  0.13800000  0.78250000  0.98590000  1.0 -0.1716771127
C  C127  1  0.34790000  0.64450000  0.36200000  1.0 -0.1716771127
C  C128  1  0.36200000  0.34790000  0.64450000  1.0 -0.1716771127
C  C129  1  0.78250000  0.29660000  0.64450000  1.0 -0.1716771127
C  C130  1  0.64450000  0.78250000  0.29660000  1.0 -0.1716771127
C  C131  1  0.29660000  0.15210000  0.51410000  1.0 -0.1716771127
C  C132  1  0.78250000  0.98590000  0.13800000  1.0 -0.1716771127
C  C133  1  0.51410000  0.71750000  0.36200000  1.0 -0.1716771127
C  C134  1  0.15210000  0.51410000  0.29660000  1.0 -0.1716771127
C  C135  1  0.85550000  0.15210000  0.13800000  1.0 -0.1716771127
C  C136  1  0.71750000  0.85550000  0.20340000  1.0 -0.1716771127
C  C137  1  0.20340000  0.98590000  0.34790000  1.0 -0.1716771127
C  C138  1  0.98590000  0.13800000  0.78250000  1.0 -0.1716771127
C  C139  1  0.64450000  0.36200000  0.34790000  1.0 -0.1716771127
C  C140  1  0.29660000  0.64450000  0.78250000  1.0 -0.1716771127
C  C141  1  0.51410000  0.29660000  0.15210000  1.0 -0.1716771127
C  C142  1  0.36200000  0.51410000  0.71750000  1.0 -0.1716771127
C  C143  1  0.13800000  0.85550000  0.15210000  1.0 -0.1716771127
C  C144  1  0.85550000  0.20340000  0.71750000  1.0 -0.1716771127
C  C145  1  0.65010000  0.32790000  0.98140000  1.0 -0.0544848863
C  C146  1  0.32790000  0.84650000  0.67780000  1.0 -0.0558678957
C  C147  1  0.84990000  0.83130000  0.67780000  1.0 -0.0544848863
C  C148  1  0.98140000  0.65010000  0.32790000  1.0 -0.0544848863
C  C149  1  0.84650000  0.66870000  0.51860000  1.0 -0.0544848863
C  C150  1  0.83130000  0.65350000  0.98140000  1.0 -0.0544848863
C  C151  1  0.65010000  0.82220000  0.66870000  1.0 -0.0544848863
C  C152  1  0.66870000  0.65010000  0.82220000  1.0 -0.0544848863
C  C153  1  0.65350000  0.17210000  0.82220000  1.0 -0.0544848863
C  C154  1  0.82220000  0.65350000  0.17210000  1.0 -0.0544848863
C  C155  1  0.17210000  0.84990000  0.51860000  1.0 -0.0558678957
C  C156  1  0.65350000  0.98140000  0.83130000  1.0 -0.0544848863
C  C157  1  0.51860000  0.84650000  0.66870000  1.0 -0.0558678957
C  C158  1  0.84990000  0.51860000  0.17210000  1.0 -0.0544848863
C  C159  1  0.67780000  0.84990000  0.83130000  1.0 -0.0544848863
C  C160  1  0.84650000  0.67780000  0.32790000  1.0 -0.0544848863
C  C161  1  0.32790000  0.98140000  0.65010000  1.0 -0.0558678957
C  C162  1  0.98140000  0.83130000  0.65350000  1.0 -0.0544848863
C  C163  1  0.82220000  0.66870000  0.65010000  1.0 -0.0544848863
C  C164  1  0.17210000  0.82220000  0.65350000  1.0 -0.0558678957
C  C165  1  0.51860000  0.17210000  0.84990000  1.0 -0.0544848863
C  C166  1  0.66870000  0.51860000  0.84650000  1.0 -0.0544848863
C  C167  1  0.83130000  0.67780000  0.84990000  1.0 -0.0544848863
C  C168  1  0.67780000  0.32790000  0.84650000  1.0 -0.0544848863
C  C169  1  0.72000000  0.35200000  0.00340000  1.0 -0.1063034545
C  C170  1  0.35200000  0.84860000  0.63200000  1.0 -0.1063034545
C  C171  1  0.78000000  0.78340000  0.63200000  1.0 -0.1063034545
C  C172  1  0.00340000  0.72000000  0.35200000  1.0 -0.1063034545
C  C173  1  0.84860000  0.71660000  0.49660000  1.0 -0.1063034545
C  C174  1  0.78340000  0.65140000  0.00340000  1.0 -0.1063034545
C  C175  1  0.72000000  0.86800000  0.71660000  1.0 -0.1063034545
C  C176  1  0.71660000  0.72000000  0.86800000  1.0 -0.1063034545
C  C177  1  0.65140000  0.14800000  0.86800000  1.0 -0.1063034545
C  C178  1  0.86800000  0.65140000  0.14800000  1.0 -0.1063034545
C  C179  1  0.14800000  0.78000000  0.49660000  1.0 -0.1063034545
C  C180  1  0.65140000  0.00340000  0.78340000  1.0 -0.1063034545
C  C181  1  0.49660000  0.84860000  0.71660000  1.0 -0.1063034545
C  C182  1  0.78000000  0.49660000  0.14800000  1.0 -0.1063034545
C  C183  1  0.63200000  0.78000000  0.78340000  1.0 -0.1063034545
C  C184  1  0.84860000  0.63200000  0.35200000  1.0 -0.1063034545
C  C185  1  0.35200000  0.00340000  0.72000000  1.0 -0.1063034545
C  C186  1  0.00340000  0.78340000  0.65140000  1.0 -0.1063034545
C  C187  1  0.86800000  0.71660000  0.72000000  1.0 -0.1063034545
C  C188  1  0.14800000  0.86800000  0.65140000  1.0 -0.1063034545
C  C189  1  0.49660000  0.14800000  0.78000000  1.0 -0.1063034545
C  C190  1  0.71660000  0.49660000  0.84860000  1.0 -0.1063034545
C  C191  1  0.78340000  0.63200000  0.78000000  1.0 -0.1063034545
C  C192  1  0.63200000  0.35200000  0.84860000  1.0 -0.1063034545
C  C193  1  0.75770000  0.33560000  0.04190000  1.0 -0.03849188
C  C194  1  0.33560000  0.79370000  0.57790000  1.0 -0.03849188
C  C195  1  0.74230000  0.78420000  0.57790000  1.0 -0.03849188
C  C196  1  0.04190000  0.75770000  0.33560000  1.0 -0.03849188
C  C197  1  0.79370000  0.71580000  0.45810000  1.0 -0.03849188
C  C198  1  0.78420000  0.70630000  0.04190000  1.0 -0.03849188
C  C199  1  0.75770000  0.92210000  0.71580000  1.0 -0.03849188
C  C200  1  0.71580000  0.75770000  0.92210000  1.0 -0.03849188
C  C201  1  0.70630000  0.16440000  0.92210000  1.0 -0.03849188
C  C202  1  0.92210000  0.70630000  0.16440000  1.0 -0.03849188
C  C203  1  0.16440000  0.74230000  0.45810000  1.0 -0.03849188
C  C204  1  0.70630000  0.04190000  0.78420000  1.0 -0.03849188
C  C205  1  0.45810000  0.79370000  0.71580000  1.0 -0.03849188
C  C206  1  0.74230000  0.45810000  0.16440000  1.0 -0.03849188
C  C207  1  0.57790000  0.74230000  0.78420000  1.0 -0.03849188
C  C208  1  0.79370000  0.57790000  0.33560000  1.0 -0.03849188
C  C209  1  0.33560000  0.04190000  0.75770000  1.0 -0.03849188
C  C210  1  0.04190000  0.78420000  0.70630000  1.0 -0.03849188
C  C211  1  0.92210000  0.71580000  0.75770000  1.0 -0.03849188
C  C212  1  0.16440000  0.92210000  0.70630000  1.0 -0.03849188
C  C213  1  0.45810000  0.16440000  0.74230000  1.0 -0.03849188
C  C214  1  0.71580000  0.45810000  0.79370000  1.0 -0.03849188
C  C215  1  0.78420000  0.57790000  0.74230000  1.0 -0.03849188
C  C216  1  0.57790000  0.33560000  0.79370000  1.0 -0.03849188
C  C217  1  0.73010000  0.29990000  0.05860000  1.0 -0.0040549833
C  C218  1  0.29990000  0.74130000  0.56980000  1.0 -0.0040549833
C  C219  1  0.76990000  0.82850000  0.56980000  1.0 -0.0040549833
C  C220  1  0.05860000  0.73010000  0.29990000  1.0 -0.0040549833
C  C221  1  0.74130000  0.67150000  0.44140000  1.0 -0.0040549833
C  C222  1  0.82850000  0.75870000  0.05860000  1.0 -0.0040549833
C  C223  1  0.73010000  0.93020000  0.67150000  1.0 -0.0040549833
C  C224  1  0.67150000  0.73010000  0.93020000  1.0 -0.0040549833
C  C225  1  0.75870000  0.20010000  0.93020000  1.0 -0.0040549833
C  C226  1  0.93020000  0.75870000  0.20010000  1.0 -0.0040549833
C  C227  1  0.20010000  0.76990000  0.44140000  1.0 -0.0040549833
C  C228  1  0.75870000  0.05860000  0.82850000  1.0 -0.0040549833
C  C229  1  0.44140000  0.74130000  0.67150000  1.0 -0.0040549833
C  C230  1  0.76990000  0.44140000  0.20010000  1.0 -0.0040549833
C  C231  1  0.56980000  0.76990000  0.82850000  1.0 -0.0040549833
C  C232  1  0.74130000  0.56980000  0.29990000  1.0 -0.0040549833
C  C233  1  0.29990000  0.05860000  0.73010000  1.0 -0.0040549833
C  C234  1  0.05860000  0.82850000  0.75870000  1.0 -0.0040549833
C  C235  1  0.93020000  0.67150000  0.73010000  1.0 -0.0040549833
C  C236  1  0.20010000  0.93020000  0.75870000  1.0 -0.0040549833
C  C237  1  0.44140000  0.20010000  0.76990000  1.0 -0.0040549833
C  C238  1  0.67150000  0.44140000  0.74130000  1.0 -0.0040549833
C  C239  1  0.82850000  0.56980000  0.76990000  1.0 -0.0040549833
C  C240  1  0.56980000  0.29990000  0.74130000  1.0 -0.0040549833
C  C241  1  0.66700000  0.27410000  0.04310000  1.0 0.0113449695
C  C242  1  0.27410000  0.73100000  0.60710000  1.0 0.0113449695
C  C243  1  0.83300000  0.87610000  0.60710000  1.0 0.0113449695
C  C244  1  0.04310000  0.66700000  0.27410000  1.0 0.0113449695
C  C245  1  0.73100000  0.62390000  0.45690000  1.0 0.0113449695
C  C246  1  0.87610000  0.76900000  0.04310000  1.0 0.0113449695
C  C247  1  0.66700000  0.89290000  0.62390000  1.0 0.0113449695
C  C248  1  0.62390000  0.66700000  0.89290000  1.0 0.0113449695
C  C249  1  0.76900000  0.22590000  0.89290000  1.0 0.0113449695
C  C250  1  0.89290000  0.76900000  0.22590000  1.0 0.0113449695
C  C251  1  0.22590000  0.83300000  0.45690000  1.0 0.0113449695
C  C252  1  0.76900000  0.04310000  0.87610000  1.0 0.0113449695
C  C253  1  0.45690000  0.73100000  0.62390000  1.0 0.0113449695
C  C254  1  0.83300000  0.45690000  0.22590000  1.0 0.0113449695
C  C255  1  0.60710000  0.83300000  0.87610000  1.0 0.0113449695
C  C256  1  0.73100000  0.60710000  0.27410000  1.0 0.0113449695
C  C257  1  0.27410000  0.04310000  0.66700000  1.0 0.0113449695
C  C258  1  0.04310000  0.87610000  0.76900000  1.0 0.0113449695
C  C259  1  0.89290000  0.62390000  0.66700000  1.0 0.0113449695
C  C260  1  0.22590000  0.89290000  0.76900000  1.0 0.0113449695
C  C261  1  0.45690000  0.22590000  0.83300000  1.0 0.0113449695
C  C262  1  0.62390000  0.45690000  0.73100000  1.0 0.0113449695
C  C263  1  0.87610000  0.60710000  0.83300000  1.0 0.0113449695
C  C264  1  0.60710000  0.27410000  0.73100000  1.0 0.0113449695
C  C265  1  0.47890000  0.28810000  0.12440000  1.0 -0.1845971602
C  C266  1  0.28810000  0.66370000  0.80920000  1.0 -0.1845971602
C  C267  1  0.02110000  0.14550000  0.80920000  1.0 -0.1845971602
C  C268  1  0.12440000  0.47890000  0.28810000  1.0 -0.1845971602
C  C269  1  0.66370000  0.35450000  0.37560000  1.0 -0.1845971602
C  C270  1  0.14550000  0.83630000  0.12440000  1.0 -0.1845971602
C  C271  1  0.47890000  0.69080000  0.35450000  1.0 -0.1845971602
C  C272  1  0.35450000  0.47890000  0.69080000  1.0 -0.1845971602
C  C273  1  0.83630000  0.21190000  0.69080000  1.0 -0.1845971602
C  C274  1  0.69080000  0.83630000  0.21190000  1.0 -0.1853641379
C  C275  1  0.21190000  0.02110000  0.37560000  1.0 -0.1845971602
C  C276  1  0.83630000  0.12440000  0.14550000  1.0 -0.1845971602
C  C277  1  0.37560000  0.66370000  0.35450000  1.0 -0.1845971602
C  C278  1  0.02110000  0.37560000  0.21190000  1.0 -0.1845971602
C  C279  1  0.80920000  0.02110000  0.14550000  1.0 -0.1845971602
C  C280  1  0.66370000  0.80920000  0.28810000  1.0 -0.1853641379
C  C281  1  0.28810000  0.12440000  0.47890000  1.0 -0.1845971602
C  C282  1  0.12440000  0.14550000  0.83630000  1.0 -0.1845971602
C  C283  1  0.69080000  0.35450000  0.47890000  1.0 -0.1845971602
C  C284  1  0.21190000  0.69080000  0.83630000  1.0 -0.1845971602
C  C285  1  0.37560000  0.21190000  0.02110000  1.0 -0.1845971602
C  C286  1  0.35450000  0.37560000  0.66370000  1.0 -0.1845971602
C  C287  1  0.14550000  0.80920000  0.02110000  1.0 -0.1853641379
C  C288  1  0.80920000  0.28810000  0.66370000  1.0 -0.1845971602
C  C289  1  0.66580000  0.32050000  0.99310000  1.0 0.0385444173
C  C290  1  0.32050000  0.82740000  0.65470000  1.0 0.0385444173
C  C291  1  0.83420000  0.82730000  0.65470000  1.0 0.0385444173
C  C292  1  0.99310000  0.66580000  0.32050000  1.0 0.0385444173
C  C293  1  0.82740000  0.67270000  0.50690000  1.0 0.0385444173
C  C294  1  0.82730000  0.67260000  0.99310000  1.0 0.0385444173
C  C295  1  0.66580000  0.84530000  0.67270000  1.0 0.0385444173
C  C296  1  0.67270000  0.66580000  0.84530000  1.0 0.0385444173
C  C297  1  0.67260000  0.17950000  0.84530000  1.0 0.0385444173
C  C298  1  0.84530000  0.67260000  0.17950000  1.0 0.0385444173
C  C299  1  0.17950000  0.83420000  0.50690000  1.0 0.0385444173
C  C300  1  0.67260000  0.99310000  0.82730000  1.0 0.0385444173
C  C301  1  0.50690000  0.82740000  0.67270000  1.0 0.0385444173
C  C302  1  0.83420000  0.50690000  0.17950000  1.0 0.0385444173
C  C303  1  0.65470000  0.83420000  0.82730000  1.0 0.0385444173
C  C304  1  0.82740000  0.65470000  0.32050000  1.0 0.0385444173
C  C305  1  0.32050000  0.99310000  0.66580000  1.0 0.0385444173
C  C306  1  0.99310000  0.82730000  0.67260000  1.0 0.0385444173
C  C307  1  0.84530000  0.67270000  0.66580000  1.0 0.0385444173
C  C308  1  0.17950000  0.84530000  0.67260000  1.0 0.0385444173
C  C309  1  0.50690000  0.17950000  0.83420000  1.0 0.0385444173
C  C310  1  0.67270000  0.50690000  0.82740000  1.0 0.0385444173
C  C311  1  0.82730000  0.65470000  0.83420000  1.0 0.0385444173
C  C312  1  0.65470000  0.32050000  0.82740000  1.0 0.0385444173
C  C313  1  0.73670000  0.34240000  0.02030000  1.0 -0.0040549833
C  C314  1  0.34240000  0.82210000  0.60570000  1.0 -0.010218192
C  C315  1  0.76330000  0.78360000  0.60570000  1.0 -0.010218192
C  C316  1  0.02030000  0.73670000  0.34240000  1.0 -0.010218192
C  C317  1  0.82210000  0.71640000  0.47970000  1.0 -0.010218192
C  C318  1  0.78360000  0.67790000  0.02030000  1.0 -0.0040549833
C  C319  1  0.73670000  0.89430000  0.71640000  1.0 -0.010218192
C  C320  1  0.71640000  0.73670000  0.89430000  1.0 -0.010218192
C  C321  1  0.67790000  0.15760000  0.89430000  1.0 -0.0040549833
C  C322  1  0.89430000  0.67790000  0.15760000  1.0 -0.0040549833
C  C323  1  0.15760000  0.76330000  0.47970000  1.0 -0.010218192
C  C324  1  0.67790000  0.02030000  0.78360000  1.0 -0.0040549833
C  C325  1  0.47970000  0.82210000  0.71640000  1.0 -0.010218192
C  C326  1  0.76330000  0.47970000  0.15760000  1.0 -0.0040549833
C  C327  1  0.60570000  0.76330000  0.78360000  1.0 -0.010218192
C  C328  1  0.82210000  0.60570000  0.34240000  1.0 -0.010218192
C  C329  1  0.34240000  0.02030000  0.73670000  1.0 -0.0040549833
C  C330  1  0.02030000  0.78360000  0.67790000  1.0 -0.010218192
C  C331  1  0.89430000  0.71640000  0.73670000  1.0 -0.010218192
C  C332  1  0.15760000  0.89430000  0.67790000  1.0 -0.010218192
C  C333  1  0.47970000  0.15760000  0.76330000  1.0 -0.010218192
C  C334  1  0.71640000  0.47970000  0.82210000  1.0 -0.010218192
C  C335  1  0.78360000  0.60570000  0.76330000  1.0 -0.010218192
C  C336  1  0.60570000  0.34240000  0.82210000  1.0 -0.0040549833
C  C337  1  0.76660000  0.32530000  0.05770000  1.0 -0.0657375152
C  C338  1  0.32530000  0.76760000  0.55870000  1.0 -0.0657375152
C  C339  1  0.73340000  0.79110000  0.55870000  1.0 -0.0657375152
C  C340  1  0.05770000  0.76660000  0.32530000  1.0 -0.0657375152
C  C341  1  0.76760000  0.70890000  0.44230000  1.0 -0.0657375152
C  C342  1  0.79110000  0.73240000  0.05770000  1.0 -0.0657375152
C  C343  1  0.76660000  0.94130000  0.70890000  1.0 -0.0657375152
C  C344  1  0.70890000  0.76660000  0.94130000  1.0 -0.0657375152
C  C345  1  0.73240000  0.17470000  0.94130000  1.0 -0.0657375152
C  C346  1  0.94130000  0.73240000  0.17470000  1.0 -0.0657375152
C  C347  1  0.17470000  0.73340000  0.44230000  1.0 -0.0657375152
C  C348  1  0.73240000  0.05770000  0.79110000  1.0 -0.0657375152
C  C349  1  0.44230000  0.76760000  0.70890000  1.0 -0.0657375152
C  C350  1  0.73340000  0.44230000  0.17470000  1.0 -0.0657375152
C  C351  1  0.55870000  0.73340000  0.79110000  1.0 -0.0657375152
C  C352  1  0.76760000  0.55870000  0.32530000  1.0 -0.0657375152
C  C353  1  0.32530000  0.05770000  0.76660000  1.0 -0.0657375152
C  C354  1  0.05770000  0.79110000  0.73240000  1.0 -0.0657375152
C  C355  1  0.94130000  0.70890000  0.76660000  1.0 -0.0657375152
C  C356  1  0.17470000  0.94130000  0.73240000  1.0 -0.0657375152
C  C357  1  0.44230000  0.17470000  0.73340000  1.0 -0.0657375152
C  C358  1  0.70890000  0.44230000  0.76760000  1.0 -0.0657375152
C  C359  1  0.79110000  0.55870000  0.73340000  1.0 -0.0657375152
C  C360  1  0.55870000  0.32530000  0.76760000  1.0 -0.0657375152
C  C361  1  0.72650000  0.28670000  0.07520000  1.0 -0.0788096818
C  C362  1  0.28670000  0.71150000  0.56020000  1.0 -0.0788096818
C  C363  1  0.77350000  0.84870000  0.56020000  1.0 -0.0788096818
C  C364  1  0.07520000  0.72650000  0.28670000  1.0 -0.0788096818
C  C365  1  0.71150000  0.65130000  0.42480000  1.0 -0.0788096818
C  C366  1  0.84870000  0.78850000  0.07520000  1.0 -0.0788096818
C  C367  1  0.72650000  0.93980000  0.65130000  1.0 -0.0788096818
C  C368  1  0.65130000  0.72650000  0.93980000  1.0 -0.0788096818
C  C369  1  0.78850000  0.21330000  0.93980000  1.0 -0.0788096818
C  C370  1  0.93980000  0.78850000  0.21330000  1.0 -0.0788096818
C  C371  1  0.21330000  0.77350000  0.42480000  1.0 -0.0788096818
C  C372  1  0.78850000  0.07520000  0.84870000  1.0 -0.0788096818
C  C373  1  0.42480000  0.71150000  0.65130000  1.0 -0.0788096818
C  C374  1  0.77350000  0.42480000  0.21330000  1.0 -0.0788096818
C  C375  1  0.56020000  0.77350000  0.84870000  1.0 -0.0788096818
C  C376  1  0.71150000  0.56020000  0.28670000  1.0 -0.0788096818
C  C377  1  0.28670000  0.07520000  0.72650000  1.0 -0.0788096818
C  C378  1  0.07520000  0.84870000  0.78850000  1.0 -0.0788096818
C  C379  1  0.93980000  0.65130000  0.72650000  1.0 -0.0788096818
C  C380  1  0.21330000  0.93980000  0.78850000  1.0 -0.0788096818
C  C381  1  0.42480000  0.21330000  0.77350000  1.0 -0.0788096818
C  C382  1  0.65130000  0.42480000  0.71150000  1.0 -0.0788096818
C  C383  1  0.84870000  0.56020000  0.77350000  1.0 -0.0788096818
C  C384  1  0.56020000  0.28670000  0.71150000  1.0 -0.0788096818
C  C385  1  0.65550000  0.26530000  0.05000000  1.0 -0.0297636595
C  C386  1  0.26530000  0.71530000  0.60980000  1.0 -0.0297636595
C  C387  1  0.84450000  0.89450000  0.60980000  1.0 -0.0297636595
C  C388  1  0.05000000  0.65550000  0.26530000  1.0 -0.0297636595
C  C389  1  0.71530000  0.60550000  0.45000000  1.0 -0.0297636595
C  C390  1  0.89450000  0.78470000  0.05000000  1.0 -0.0297636595
C  C391  1  0.65550000  0.89020000  0.60550000  1.0 -0.0297636595
C  C392  1  0.60550000  0.65550000  0.89020000  1.0 -0.0297636595
C  C393  1  0.78470000  0.23470000  0.89020000  1.0 -0.0297636595
C  C394  1  0.89020000  0.78470000  0.23470000  1.0 -0.0297636595
C  C395  1  0.23470000  0.84450000  0.45000000  1.0 -0.0297636595
C  C396  1  0.78470000  0.05000000  0.89450000  1.0 -0.0297636595
C  C397  1  0.45000000  0.71530000  0.60550000  1.0 -0.0297636595
C  C398  1  0.84450000  0.45000000  0.23470000  1.0 -0.0297636595
C  C399  1  0.60980000  0.84450000  0.89450000  1.0 -0.0297636595
C  C400  1  0.71530000  0.60980000  0.26530000  1.0 -0.0297636595
C  C401  1  0.26530000  0.05000000  0.65550000  1.0 -0.0297636595
C  C402  1  0.05000000  0.89450000  0.78470000  1.0 -0.0297636595
C  C403  1  0.89020000  0.60550000  0.65550000  1.0 -0.0297636595
C  C404  1  0.23470000  0.89020000  0.78470000  1.0 -0.0297636595
C  C405  1  0.45000000  0.23470000  0.84450000  1.0 -0.0297636595
C  C406  1  0.60550000  0.45000000  0.71530000  1.0 -0.0297636595
C  C407  1  0.89450000  0.60980000  0.84450000  1.0 -0.0297636595
C  C408  1  0.60980000  0.26530000  0.71530000  1.0 -0.0297636595
N  N1  1  0.61960000  0.28750000  0.99830000  1.0 -0.0891824632
N  N2  1  0.28750000  0.78920000  0.66790000  1.0 -0.0891824632
N  N3  1  0.88040000  0.87870000  0.66790000  1.0 -0.0891824632
N  N4  1  0.99830000  0.61960000  0.28750000  1.0 -0.0891824632
N  N5  1  0.78920000  0.62130000  0.50170000  1.0 -0.0891824632
N  N6  1  0.87870000  0.71080000  0.99830000  1.0 -0.0891824632
N  N7  1  0.61960000  0.83210000  0.62130000  1.0 -0.0891824632
N  N8  1  0.62130000  0.61960000  0.83210000  1.0 -0.0891824632
N  N9  1  0.71080000  0.21250000  0.83210000  1.0 -0.0891824632
N  N10  1  0.83210000  0.71080000  0.21250000  1.0 -0.0891824632
N  N11  1  0.21250000  0.88040000  0.50170000  1.0 -0.0891824632
N  N12  1  0.71080000  0.99830000  0.87870000  1.0 -0.0891824632
N  N13  1  0.50170000  0.78920000  0.62130000  1.0 -0.0891824632
N  N14  1  0.88040000  0.50170000  0.21250000  1.0 -0.0891824632
N  N15  1  0.66790000  0.88040000  0.87870000  1.0 -0.0891824632
N  N16  1  0.78920000  0.66790000  0.28750000  1.0 -0.0891824632
N  N17  1  0.28750000  0.99830000  0.61960000  1.0 -0.0891824632
N  N18  1  0.99830000  0.87870000  0.71080000  1.0 -0.0891824632
N  N19  1  0.83210000  0.62130000  0.61960000  1.0 -0.0891824632
N  N20  1  0.21250000  0.83210000  0.71080000  1.0 -0.0891824632
N  N21  1  0.50170000  0.21250000  0.88040000  1.0 -0.0891824632
N  N22  1  0.62130000  0.50170000  0.78920000  1.0 -0.0891824632
N  N23  1  0.87870000  0.66790000  0.88040000  1.0 -0.0891824632
N  N24  1  0.66790000  0.28750000  0.78920000  1.0 -0.0891824632
N  N25  1  0.63500000  0.28380000  0.01480000  1.0 -0.023257856
N  N26  1  0.28380000  0.76900000  0.64880000  1.0 -0.023257856
N  N27  1  0.86500000  0.87980000  0.64880000  1.0 -0.023257856
N  N28  1  0.01480000  0.63500000  0.28380000  1.0 -0.023257856
N  N29  1  0.76900000  0.62020000  0.48520000  1.0 -0.023257856
N  N30  1  0.87980000  0.73100000  0.01480000  1.0 -0.023257856
N  N31  1  0.63500000  0.85120000  0.62020000  1.0 -0.023257856
N  N32  1  0.62020000  0.63500000  0.85120000  1.0 -0.023257856
N  N33  1  0.73100000  0.21620000  0.85120000  1.0 -0.023257856
N  N34  1  0.85120000  0.73100000  0.21620000  1.0 -0.023257856
N  N35  1  0.21620000  0.86500000  0.48520000  1.0 -0.023257856
N  N36  1  0.73100000  0.01480000  0.87980000  1.0 -0.023257856
N  N37  1  0.48520000  0.76900000  0.62020000  1.0 -0.023257856
N  N38  1  0.86500000  0.48520000  0.21620000  1.0 -0.023257856
N  N39  1  0.64880000  0.86500000  0.87980000  1.0 -0.023257856
N  N40  1  0.76900000  0.64880000  0.28380000  1.0 -0.023257856
N  N41  1  0.28380000  0.01480000  0.63500000  1.0 -0.023257856
N  N42  1  0.01480000  0.87980000  0.73100000  1.0 -0.023257856
N  N43  1  0.85120000  0.62020000  0.63500000  1.0 -0.023257856
N  N44  1  0.21620000  0.85120000  0.73100000  1.0 -0.023257856
N  N45  1  0.48520000  0.21620000  0.86500000  1.0 -0.023257856
N  N46  1  0.62020000  0.48520000  0.76900000  1.0 -0.023257856
N  N47  1  0.87980000  0.64880000  0.86500000  1.0 -0.023257856
N  N48  1  0.64880000  0.28380000  0.76900000  1.0 -0.023257856
O  O1  1  0.53370000  0.33600000  0.97910000  1.0 -0.4776585011
O  O2  1  0.33600000  0.85690000  0.80230000  1.0 -0.4776585011
O  O3  1  0.96630000  0.94540000  0.80230000  1.0 -0.4776585011
O  O4  1  0.97910000  0.53370000  0.33600000  1.0 -0.4776585011
O  O5  1  0.85690000  0.55460000  0.52090000  1.0 -0.4776585011
O  O6  1  0.94540000  0.64310000  0.97910000  1.0 -0.4776585011
O  O7  1  0.53370000  0.69770000  0.55460000  1.0 -0.4776585011
O  O8  1  0.55460000  0.53370000  0.69770000  1.0 -0.4776585011
O  O9  1  0.64310000  0.16400000  0.69770000  1.0 -0.4776585011
O  O10  1  0.69770000  0.64310000  0.16400000  1.0 -0.4776585011
O  O11  1  0.16400000  0.96630000  0.52090000  1.0 -0.4776585011
O  O12  1  0.64310000  0.97910000  0.94540000  1.0 -0.4776585011
O  O13  1  0.52090000  0.85690000  0.55460000  1.0 -0.4776585011
O  O14  1  0.96630000  0.52090000  0.16400000  1.0 -0.4776585011
O  O15  1  0.80230000  0.96630000  0.94540000  1.0 -0.4776585011
O  O16  1  0.85690000  0.80230000  0.33600000  1.0 -0.4776585011
O  O17  1  0.33600000  0.97910000  0.53370000  1.0 -0.4776585011
O  O18  1  0.97910000  0.94540000  0.64310000  1.0 -0.4776585011
O  O19  1  0.69770000  0.55460000  0.53370000  1.0 -0.4776585011
O  O20  1  0.16400000  0.69770000  0.64310000  1.0 -0.4776585011
O  O21  1  0.52090000  0.16400000  0.96630000  1.0 -0.4776585011
O  O22  1  0.55460000  0.52090000  0.85690000  1.0 -0.4776585011
O  O23  1  0.94540000  0.80230000  0.96630000  1.0 -0.4776585011
O  O24  1  0.80230000  0.33600000  0.85690000  1.0 -0.4776585011
O  O25  1  0.57690000  0.40430000  0.08660000  1.0 -0.4330507662
O  O26  1  0.40430000  0.81770000  0.82740000  1.0 -0.4330507662
O  O27  1  0.92310000  0.00970000  0.82740000  1.0 -0.4330507662
O  O28  1  0.08660000  0.57690000  0.40430000  1.0 -0.4330507662
O  O29  1  0.81770000  0.49030000  0.41340000  1.0 -0.4330507662
O  O30  1  0.00970000  0.68230000  0.08660000  1.0 -0.4330507662
O  O31  1  0.57690000  0.67260000  0.49030000  1.0 -0.4330507662
O  O32  1  0.49030000  0.57690000  0.67260000  1.0 -0.4330507662
O  O33  1  0.68230000  0.09570000  0.67260000  1.0 -0.4330507662
O  O34  1  0.67260000  0.68230000  0.09570000  1.0 -0.4330507662
O  O35  1  0.09570000  0.92310000  0.41340000  1.0 -0.4330507662
O  O36  1  0.68230000  0.08660000  0.00970000  1.0 -0.4330507662
O  O37  1  0.41340000  0.81770000  0.49030000  1.0 -0.4330507662
O  O38  1  0.92310000  0.41340000  0.09570000  1.0 -0.4330507662
O  O39  1  0.82740000  0.92310000  0.00970000  1.0 -0.4330507662
O  O40  1  0.81770000  0.82740000  0.40430000  1.0 -0.4330507662
O  O41  1  0.40430000  0.08660000  0.57690000  1.0 -0.4330507662
O  O42  1  0.08660000  0.00970000  0.68230000  1.0 -0.4330507662
O  O43  1  0.67260000  0.49030000  0.57690000  1.0 -0.4330507662
O  O44  1  0.09570000  0.67260000  0.68230000  1.0 -0.4330507662
O  O45  1  0.41340000  0.09570000  0.92310000  1.0 -0.4330507662
O  O46  1  0.49030000  0.41340000  0.81770000  1.0 -0.4330507662
O  O47  1  0.00970000  0.82740000  0.92310000  1.0 -0.4330507662
O  O48  1  0.82740000  0.40430000  0.81770000  1.0 -0.4330507662
O  O49  1  0.41910000  0.20660000  0.94210000  1.0 -0.1063034545
O  O50  1  0.20660000  0.76450000  0.78750000  1.0 -0.1063034545
O  O51  1  0.08090000  0.02300000  0.78750000  1.0 -0.1063034545
O  O52  1  0.94210000  0.41910000  0.20660000  1.0 -0.1063034545
O  O53  1  0.76450000  0.47700000  0.55790000  1.0 -0.1063034545
O  O54  1  0.02300000  0.73550000  0.94210000  1.0 -0.1063034545
O  O55  1  0.41910000  0.71250000  0.47700000  1.0 -0.1063034545
O  O56  1  0.47700000  0.41910000  0.71250000  1.0 -0.1063034545
O  O57  1  0.73550000  0.29340000  0.71250000  1.0 -0.1063034545
O  O58  1  0.71250000  0.73550000  0.29340000  1.0 -0.1063034545
O  O59  1  0.29340000  0.08090000  0.55790000  1.0 -0.1063034545
O  O60  1  0.73550000  0.94210000  0.02300000  1.0 -0.1063034545
O  O61  1  0.55790000  0.76450000  0.47700000  1.0 -0.1063034545
O  O62  1  0.08090000  0.55790000  0.29340000  1.0 -0.1063034545
O  O63  1  0.78750000  0.08090000  0.02300000  1.0 -0.1063034545
O  O64  1  0.76450000  0.78750000  0.20660000  1.0 -0.1063034545
O  O65  1  0.20660000  0.94210000  0.41910000  1.0 -0.1063034545
O  O66  1  0.94210000  0.02300000  0.73550000  1.0 -0.1063034545
O  O67  1  0.71250000  0.47700000  0.41910000  1.0 -0.1063034545
O  O68  1  0.29340000  0.71250000  0.73550000  1.0 -0.1063034545
O  O69  1  0.55790000  0.29340000  0.08090000  1.0 -0.1063034545
O  O70  1  0.47700000  0.55790000  0.76450000  1.0 -0.1063034545
O  O71  1  0.02300000  0.78750000  0.08090000  1.0 -0.1063034545
O  O72  1  0.78750000  0.20660000  0.76450000  1.0 -0.1063034545
O  O73  1  0.53260000  0.27780000  0.06240000  1.0 -0.0891824632
O  O74  1  0.27780000  0.71540000  0.74520000  1.0 -0.0891824632
O  O75  1  0.96740000  0.02980000  0.74520000  1.0 -0.0891824632
O  O76  1  0.06240000  0.53260000  0.27780000  1.0 -0.0954487878
O  O77  1  0.71540000  0.47020000  0.43760000  1.0 -0.0891824632
O  O78  1  0.02980000  0.78460000  0.06240000  1.0 -0.0954487878
O  O79  1  0.53260000  0.75480000  0.47020000  1.0 -0.0954487878
O  O80  1  0.47020000  0.53260000  0.75480000  1.0 -0.0891824632
O  O81  1  0.78460000  0.22220000  0.75480000  1.0 -0.0891824632
O  O82  1  0.75480000  0.78460000  0.22220000  1.0 -0.0954487878
O  O83  1  0.22220000  0.96740000  0.43760000  1.0 -0.0954487878
O  O84  1  0.78460000  0.06240000  0.02980000  1.0 -0.0891824632
O  O85  1  0.43760000  0.71540000  0.47020000  1.0 -0.0954487878
O  O86  1  0.96740000  0.43760000  0.22220000  1.0 -0.0891824632
O  O87  1  0.74520000  0.96740000  0.02980000  1.0 -0.0954487878
O  O88  1  0.71540000  0.74520000  0.27780000  1.0 -0.0954487878
O  O89  1  0.27780000  0.06240000  0.53260000  1.0 -0.0891824632
O  O90  1  0.06240000  0.02980000  0.78460000  1.0 -0.0891824632
O  O91  1  0.75480000  0.47020000  0.53260000  1.0 -0.0891824632
O  O92  1  0.22220000  0.75480000  0.78460000  1.0 -0.0891824632
O  O93  1  0.43760000  0.22220000  0.96740000  1.0 -0.0891824632
O  O94  1  0.47020000  0.43760000  0.71540000  1.0 -0.0891824632
O  O95  1  0.02980000  0.74520000  0.96740000  1.0 -0.0954487878
O  O96  1  0.74520000  0.27780000  0.71540000  1.0 -0.0891824632
