# DDEC6 charges by PACMAN v1.1 (https://github.com/mtap-research/PACMAN-charge/)
data_QIVMUG_FSR_pacman
_symmetry_space_group_name_H-M   'P 1'
_cell_length_a   12.27290000
_cell_length_b   17.63000000
_cell_length_c   19.62280000
_cell_angle_alpha   101.51400000
_cell_angle_beta   95.62600000
_cell_angle_gamma   102.11500000
_symmetry_Int_Tables_number   1
_chemical_formula_structural   Er2H30C54S8O15
_chemical_formula_sum   'Er4 H60 C108 S16 O30'
_cell_volume   4024.08880634
_cell_formula_units_Z   2
loop_
 _symmetry_equiv_pos_site_id
 _symmetry_equiv_pos_as_xyz
  1  'x, y, z'
loop_
 _atom_site_type_symbol
 _atom_site_label
 _atom_site_symmetry_multiplicity
 _atom_site_fract_x
 _atom_site_fract_y
 _atom_site_fract_z
 _atom_site_occupancy
 _atom_site_charge
Er  Er1  1  0.89485000  0.89199000  0.02816000  1.0 2.0221022593
Er  Er2  1  0.39460000  0.38951000  0.98786000  1.0 2.0985776412
Er  Er3  1  0.10515000  0.10801000  0.97184000  1.0 2.0221022593
Er  Er4  1  0.60540000  0.61049000  0.01214000  1.0 2.0985776412
H  H1  1  0.78623000  0.01135000  0.07692000  1.0 0.3746922838
H  H2  1  0.89662000  0.05184000  0.07301000  1.0 0.3868744227
H  H3  1  0.36162000  0.27676000  0.07234000  1.0 0.3990863638
H  H4  1  0.28565000  0.32745000  0.09090000  1.0 0.4065410423
H  H5  1  0.16607000  0.32153000  0.97396000  1.0 0.3868744227
H  H6  1  0.17268000  0.40102000  0.96923000  1.0 0.3630330044
H  H7  1  0.81321000  0.69491000  0.79451000  1.0 0.1294063087
H  H8  1  0.86521000  0.63033000  0.69376000  1.0 0.1212513315
H  H9  1  0.18577000  0.74852000  0.75930000  1.0 0.1212513315
H  H10  1  0.12906000  0.81251000  0.85928000  1.0 0.1294063087
H  H11  1  0.09421000  0.47560000  0.71366000  1.0 0.108997579
H  H12  1  0.18474000  0.44837000  0.81193000  1.0 0.1212513315
H  H13  1  0.41730000  0.64949000  0.83528000  1.0 0.1294063087
H  H14  1  0.33020000  0.67130000  0.73617000  1.0 0.1294063087
H  H15  1  0.05287000  0.61017000  0.20215000  1.0 0.108997579
H  H16  1  0.99732000  0.67432000  0.11859000  1.0 0.1212513315
H  H17  1  0.98662000  0.86168000  0.27149000  1.0 0.1294063087
H  H18  1  0.03928000  0.79407000  0.35582000  1.0 0.1212513315
H  H19  1  0.30462000  0.71649000  0.28712000  1.0 0.1212513315
H  H20  1  0.40516000  0.70105000  0.19381000  1.0 0.1212513315
H  H21  1  0.29250000  0.46594000  0.15649000  1.0 0.1294063087
H  H22  1  0.19442000  0.48190000  0.25190000  1.0 0.108997579
H  H23  1  0.37646000  0.05825000  0.87653000  1.0 0.1212513315
H  H24  1  0.44336000  0.00197000  0.77851000  1.0 0.108997579
H  H25  1  0.42971000  0.19300000  0.69766000  1.0 0.108997579
H  H26  1  0.35835000  0.24585000  0.79653000  1.0 0.1294063087
H  H27  1  0.72006000  0.12849000  0.76956000  1.0 0.108997579
H  H28  1  0.82269000  0.11345000  0.86905000  1.0 0.1212513315
H  H29  1  0.70227000  0.87466000  0.80302000  1.0 0.1212513315
H  H30  1  0.60861000  0.89750000  0.70492000  1.0 0.108997579
H  H31  1  0.21377000  0.98865000  0.92308000  1.0 0.3746922838
H  H32  1  0.10338000  0.94816000  0.92699000  1.0 0.3868744227
H  H33  1  0.63838000  0.72324000  0.92766000  1.0 0.3990863638
H  H34  1  0.71435000  0.67255000  0.90910000  1.0 0.4065410423
H  H35  1  0.83393000  0.67847000  0.02604000  1.0 0.3868744227
H  H36  1  0.82732000  0.59898000  0.03077000  1.0 0.3630330044
H  H37  1  0.18679000  0.30509000  0.20549000  1.0 0.1294063087
H  H38  1  0.13479000  0.36967000  0.30624000  1.0 0.1212513315
H  H39  1  0.81423000  0.25148000  0.24070000  1.0 0.1212513315
H  H40  1  0.87094000  0.18749000  0.14072000  1.0 0.1294063087
H  H41  1  0.90579000  0.52440000  0.28634000  1.0 0.108997579
H  H42  1  0.81526000  0.55163000  0.18807000  1.0 0.1212513315
H  H43  1  0.58270000  0.35051000  0.16472000  1.0 0.1294063087
H  H44  1  0.66980000  0.32870000  0.26383000  1.0 0.1294063087
H  H45  1  0.94713000  0.38983000  0.79785000  1.0 0.108997579
H  H46  1  0.00268000  0.32568000  0.88141000  1.0 0.1212513315
H  H47  1  0.01338000  0.13832000  0.72851000  1.0 0.1294063087
H  H48  1  0.96072000  0.20593000  0.64418000  1.0 0.1212513315
H  H49  1  0.69538000  0.28351000  0.71288000  1.0 0.1212513315
H  H50  1  0.59484000  0.29895000  0.80619000  1.0 0.1212513315
H  H51  1  0.70750000  0.53406000  0.84351000  1.0 0.1294063087
H  H52  1  0.80558000  0.51810000  0.74810000  1.0 0.108997579
H  H53  1  0.62354000  0.94175000  0.12347000  1.0 0.1212513315
H  H54  1  0.55664000  0.99803000  0.22149000  1.0 0.108997579
H  H55  1  0.57029000  0.80700000  0.30234000  1.0 0.108997579
H  H56  1  0.64165000  0.75415000  0.20347000  1.0 0.1294063087
H  H57  1  0.27994000  0.87151000  0.23044000  1.0 0.108997579
H  H58  1  0.17731000  0.88655000  0.13095000  1.0 0.1212513315
H  H59  1  0.29773000  0.12534000  0.19698000  1.0 0.1212513315
H  H60  1  0.39139000  0.10250000  0.29508000  1.0 0.108997579
C  C1  1  0.93630000  0.79760000  0.90370000  1.0 0.5837743508
C  C2  1  0.96580000  0.75620000  0.83760000  1.0 -0.0307560428
C  C3  1  0.88860000  0.70480000  0.78830000  1.0 -0.0879545344
C  C4  1  0.92040000  0.66600000  0.72780000  1.0 -0.1671330628
C  C5  1  0.03120000  0.67810000  0.71600000  1.0 0.108997579
C  C6  1  0.11080000  0.73590000  0.76610000  1.0 -0.1379353684
C  C7  1  0.07630000  0.77390000  0.82600000  1.0 -0.0879545344
C  C8  1  0.06870000  0.63560000  0.65230000  1.0 -0.0597656441
C  C9  1  0.14400000  0.59110000  0.65170000  1.0 -0.0524194753
C  C10  1  0.20600000  0.57780000  0.71600000  1.0 0.0808516445
C  C11  1  0.16050000  0.51040000  0.73820000  1.0 -0.1594999467
C  C12  1  0.21440000  0.49470000  0.79770000  1.0 -0.0879545344
C  C13  1  0.31160000  0.54680000  0.83620000  1.0 -0.0307560428
C  C14  1  0.35220000  0.61290000  0.81120000  1.0 -0.0879545344
C  C15  1  0.29920000  0.62620000  0.75190000  1.0 -0.1319238914
C  C16  1  0.36840000  0.53040000  0.90060000  1.0 0.6595671552
C  C17  1  0.09250000  0.59790000  0.52100000  1.0 -0.096240334
C  C18  1  0.09820000  0.60080000  0.45490000  1.0 -0.1064763775
C  C19  1  0.08880000  0.65310000  0.34000000  1.0 -0.0524194753
C  C20  1  0.16940000  0.60990000  0.33620000  1.0 -0.0524194753
C  C21  1  0.05380000  0.69580000  0.28860000  1.0 0.0894922207
C  C22  1  0.03940000  0.66050000  0.21630000  1.0 -0.1319238914
C  C23  1  0.00590000  0.69870000  0.16600000  1.0 -0.1064763775
C  C24  1  0.98490000  0.77360000  0.18650000  1.0 -0.0307560428
C  C25  1  0.99890000  0.81090000  0.25770000  1.0 -0.081206504
C  C26  1  0.03200000  0.77030000  0.30830000  1.0 -0.1594999467
C  C27  1  0.94850000  0.81520000  0.13310000  1.0 0.5565043914
C  C28  1  0.23950000  0.60010000  0.27850000  1.0 0.0988016802
C  C29  1  0.30200000  0.66580000  0.26100000  1.0 -0.1379353684
C  C30  1  0.36090000  0.65650000  0.20460000  1.0 -0.081206504
C  C31  1  0.35450000  0.58090000  0.16370000  1.0 -0.0307560428
C  C32  1  0.29480000  0.51680000  0.18210000  1.0 -0.081206504
C  C33  1  0.23620000  0.52650000  0.23990000  1.0 -0.1515256586
C  C34  1  0.41750000  0.57210000  0.10330000  1.0 0.6506843793
C  C35  1  0.31580000  0.19410000  0.91160000  1.0 0.6595671552
C  C36  1  0.35980000  0.15860000  0.84670000  1.0 -0.0094345249
C  C37  1  0.38660000  0.08520000  0.84060000  1.0 -0.096240334
C  C38  1  0.42790000  0.05200000  0.78230000  1.0 -0.1379353684
C  C39  1  0.44700000  0.09190000  0.72880000  1.0 0.0894922207
C  C40  1  0.41960000  0.16560000  0.73330000  1.0 -0.183079687
C  C41  1  0.37660000  0.19670000  0.79300000  1.0 -0.0725072098
C  C42  1  0.51000000  0.07300000  0.66700000  1.0 -0.0094345249
C  C43  1  0.60200000  0.04140000  0.66940000  1.0 -0.0027652975
C  C44  1  0.53700000  0.03290000  0.53750000  1.0 -0.0597656441
C  C45  1  0.65220000  0.01160000  0.72760000  1.0 0.0808516445
C  C46  1  0.71810000  0.07770000  0.77680000  1.0 -0.183079687
C  C47  1  0.78030000  0.06910000  0.83590000  1.0 -0.0879545344
C  C48  1  0.77810000  0.99030000  0.84520000  1.0 -0.0209165409
C  C49  1  0.70940000  0.92630000  0.79680000  1.0 -0.081206504
C  C50  1  0.65140000  0.94120000  0.73860000  1.0 -0.1671330628
C  C51  1  0.83980000  0.97880000  0.90960000  1.0 0.6244766938
C  C52  1  0.51700000  0.01310000  0.46730000  1.0 -0.0404554789
C  C53  1  0.47630000  0.04240000  0.66620000  1.0 0.0113163402
C  C54  1  0.56410000  0.00770000  0.66530000  1.0 0.001424228
C  C55  1  0.06370000  0.20240000  0.09630000  1.0 0.5837743508
C  C56  1  0.03420000  0.24380000  0.16240000  1.0 -0.0307560428
C  C57  1  0.11140000  0.29520000  0.21170000  1.0 -0.0879545344
C  C58  1  0.07960000  0.33400000  0.27220000  1.0 -0.1671330628
C  C59  1  0.96880000  0.32190000  0.28400000  1.0 0.108997579
C  C60  1  0.88920000  0.26410000  0.23390000  1.0 -0.1379353684
C  C61  1  0.92370000  0.22610000  0.17400000  1.0 -0.0879545344
C  C62  1  0.93130000  0.36440000  0.34770000  1.0 -0.0597656441
C  C63  1  0.85600000  0.40890000  0.34830000  1.0 -0.0524194753
C  C64  1  0.79400000  0.42220000  0.28400000  1.0 0.0808516445
C  C65  1  0.83950000  0.48960000  0.26180000  1.0 -0.1594999467
C  C66  1  0.78560000  0.50530000  0.20230000  1.0 -0.0879545344
C  C67  1  0.68840000  0.45320000  0.16380000  1.0 -0.0307560428
C  C68  1  0.64780000  0.38710000  0.18880000  1.0 -0.0879545344
C  C69  1  0.70080000  0.37380000  0.24810000  1.0 -0.1319238914
C  C70  1  0.63160000  0.46960000  0.09940000  1.0 0.6595671552
C  C71  1  0.90750000  0.40210000  0.47900000  1.0 -0.096240334
C  C72  1  0.90180000  0.39920000  0.54510000  1.0 -0.1064763775
C  C73  1  0.91120000  0.34690000  0.66000000  1.0 -0.0524194753
C  C74  1  0.83060000  0.39010000  0.66380000  1.0 -0.0524194753
C  C75  1  0.94620000  0.30420000  0.71140000  1.0 0.0894922207
C  C76  1  0.96060000  0.33950000  0.78370000  1.0 -0.1319238914
C  C77  1  0.99410000  0.30130000  0.83400000  1.0 -0.1064763775
C  C78  1  0.01510000  0.22640000  0.81350000  1.0 -0.0307560428
C  C79  1  0.00110000  0.18910000  0.74230000  1.0 -0.081206504
C  C80  1  0.96800000  0.22970000  0.69170000  1.0 -0.1594999467
C  C81  1  0.05150000  0.18480000  0.86690000  1.0 0.5565043914
C  C82  1  0.76050000  0.39990000  0.72150000  1.0 0.0988016802
C  C83  1  0.69800000  0.33420000  0.73900000  1.0 -0.1379353684
C  C84  1  0.63910000  0.34350000  0.79540000  1.0 -0.081206504
C  C85  1  0.64550000  0.41910000  0.83630000  1.0 -0.0307560428
C  C86  1  0.70520000  0.48320000  0.81790000  1.0 -0.081206504
C  C87  1  0.76380000  0.47350000  0.76010000  1.0 -0.1515256586
C  C88  1  0.58250000  0.42790000  0.89670000  1.0 0.6506843793
C  C89  1  0.68420000  0.80590000  0.08840000  1.0 0.6595671552
C  C90  1  0.64020000  0.84140000  0.15330000  1.0 -0.0094345249
C  C91  1  0.61340000  0.91480000  0.15940000  1.0 -0.096240334
C  C92  1  0.57210000  0.94800000  0.21770000  1.0 -0.1515256586
C  C93  1  0.55300000  0.90810000  0.27120000  1.0 0.0894922207
C  C94  1  0.58040000  0.83440000  0.26670000  1.0 -0.1852708084
C  C95  1  0.62340000  0.80330000  0.20700000  1.0 -0.0725072098
C  C96  1  0.49000000  0.92700000  0.33300000  1.0 -0.0094345249
C  C97  1  0.39800000  0.95860000  0.33060000  1.0 -0.0027652975
C  C98  1  0.46300000  0.96710000  0.46250000  1.0 -0.0597656441
C  C99  1  0.34780000  0.98840000  0.27240000  1.0 0.0808516445
C  C100  1  0.28190000  0.92230000  0.22320000  1.0 -0.183079687
C  C101  1  0.21970000  0.93090000  0.16410000  1.0 -0.0879545344
C  C102  1  0.22190000  0.00970000  0.15480000  1.0 -0.0209165409
C  C103  1  0.29060000  0.07370000  0.20320000  1.0 -0.081206504
C  C104  1  0.34860000  0.05880000  0.26140000  1.0 -0.1671330628
C  C105  1  0.16020000  0.02120000  0.09040000  1.0 0.6244766938
C  C106  1  0.48300000  0.98690000  0.53270000  1.0 -0.0307560428
C  C107  1  0.52370000  0.95760000  0.33380000  1.0 0.0113163402
C  C108  1  0.43590000  0.99230000  0.33470000  1.0 0.001424228
S  S1  1  0.18430000  0.55629000  0.40177000  1.0 0.0644489231
S  S2  1  0.01460000  0.65328000  0.41213000  1.0 0.0494902304
S  S3  1  0.17280000  0.54691000  0.56808000  1.0 0.0494902304
S  S4  1  0.99890000  0.64012000  0.57004000  1.0 0.0403131938
S  S5  1  0.64330000  0.00990000  0.58760000  1.0 -0.0094345249
S  S6  1  0.45070000  0.08560000  0.58760000  1.0 -0.0094345249
S  S7  1  0.59090000  0.95800000  0.58180000  1.0 -0.0027652975
S  S8  1  0.40090000  0.03710000  0.58290000  1.0 -0.0094345249
S  S9  1  0.81570000  0.44371000  0.59823000  1.0 0.0652116465
S  S10  1  0.98540000  0.34672000  0.58787000  1.0 0.0494902304
S  S11  1  0.82720000  0.45309000  0.43192000  1.0 0.0494902304
S  S12  1  0.00110000  0.35988000  0.42996000  1.0 0.0403131938
S  S13  1  0.35670000  0.99010000  0.41240000  1.0 -0.0094345249
S  S14  1  0.54930000  0.91440000  0.41240000  1.0 -0.0094345249
S  S15  1  0.40910000  0.04200000  0.41820000  1.0 -0.0027652975
S  S16  1  0.59910000  0.96290000  0.41710000  1.0 -0.0027652975
O  O1  1  0.00740000  0.86070000  0.94070000  1.0 -0.6443269027
O  O2  1  0.84770000  0.77310000  0.92640000  1.0 -0.588031627
O  O3  1  0.92280000  0.88040000  0.14980000  1.0 -0.5820649636
O  O4  1  0.94490000  0.78410000  0.06690000  1.0 -0.6709793977
O  O5  1  0.48210000  0.63200000  0.09250000  1.0 -0.627058841
O  O6  1  0.40000000  0.50360000  0.06310000  1.0 -0.7336055709
O  O7  1  0.43830000  0.58820000  0.94180000  1.0 -0.6770455611
O  O8  1  0.34450000  0.46100000  0.90960000  1.0 -0.6770455611
O  O9  1  0.80030000  0.92320000  0.93480000  1.0 -0.6089637053
O  O10  1  0.93170000  0.02630000  0.93590000  1.0 -0.6709793977
O  O11  1  0.28270000  0.15190000  0.95310000  1.0 -0.6709793977
O  O12  1  0.31780000  0.26900000  0.91990000  1.0 -0.7336055709
O  O13  1  0.85710000  0.01200000  0.08650000  1.0 -0.7594052327
O  O14  1  0.35610000  0.32790000  0.08170000  1.0 -0.7968815637
O  O15  1  0.20060000  0.37080000  0.99250000  1.0 -0.7733345402
O  O16  1  0.99260000  0.13930000  0.05930000  1.0 -0.6443269027
O  O17  1  0.15230000  0.22690000  0.07360000  1.0 -0.588031627
O  O18  1  0.07720000  0.11960000  0.85020000  1.0 -0.5820649636
O  O19  1  0.05510000  0.21590000  0.93310000  1.0 -0.6709793977
O  O20  1  0.51790000  0.36800000  0.90750000  1.0 -0.627058841
O  O21  1  0.60000000  0.49640000  0.93690000  1.0 -0.7336055709
O  O22  1  0.56170000  0.41180000  0.05820000  1.0 -0.6770455611
O  O23  1  0.65550000  0.53900000  0.09040000  1.0 -0.6770455611
O  O24  1  0.19970000  0.07680000  0.06520000  1.0 -0.6089637053
O  O25  1  0.06830000  0.97370000  0.06410000  1.0 -0.6709793977
O  O26  1  0.71730000  0.84810000  0.04690000  1.0 -0.6709793977
O  O27  1  0.68220000  0.73100000  0.08010000  1.0 -0.7336055709
O  O28  1  0.14290000  0.98800000  0.91350000  1.0 -0.7594052327
O  O29  1  0.64390000  0.67210000  0.91830000  1.0 -0.7968815637
O  O30  1  0.79940000  0.62920000  0.00750000  1.0 -0.7733345402
