# DDEC6 charges by PACMAN v1.1 (https://github.com/mtap-research/PACMAN-charge/)
data_QIVNIV_ion_pacman
_symmetry_space_group_name_H-M   'P 1'
_cell_length_a   11.74600000
_cell_length_b   17.40450000
_cell_length_c   18.94990000
_cell_angle_alpha   99.37000000
_cell_angle_beta   95.05900000
_cell_angle_gamma   101.18000000
_symmetry_Int_Tables_number   1
_chemical_formula_structural   Tb2H38C59S6(IO5)3
_chemical_formula_sum   'Tb4 H76 C118 S12 I6 O30'
_cell_volume   3720.95805273
_cell_formula_units_Z   2
loop_
 _symmetry_equiv_pos_site_id
 _symmetry_equiv_pos_as_xyz
  1  'x, y, z'
loop_
 _atom_site_type_symbol
 _atom_site_label
 _atom_site_symmetry_multiplicity
 _atom_site_fract_x
 _atom_site_fract_y
 _atom_site_fract_z
 _atom_site_occupancy
 _atom_site_charge
Tb  Tb1  1  0.89604000  0.89519000  0.03377000  1.0 1.9238204087
Tb  Tb2  1  0.41748000  0.38493000  0.99518000  1.0 1.9640491332
Tb  Tb3  1  0.10396000  0.10481000  0.96623000  1.0 1.9238204087
Tb  Tb4  1  0.58252000  0.61507000  0.00482000  1.0 1.9640491332
H  H1  1  0.77641000  0.00628000  0.09036000  1.0 0.3241864169
H  H2  1  0.87200000  0.04991000  0.06470000  1.0 0.3665575261
H  H3  1  0.41704000  0.27282000  0.08871000  1.0 0.4122183348
H  H4  1  0.39872000  0.34857000  0.13553000  1.0 0.4044469918
H  H5  1  0.16538000  0.34393000  0.95531000  1.0 0.3909384335
H  H6  1  0.18317000  0.31143000  0.01902000  1.0 0.3816624011
H  H7  1  0.70581000  0.87195000  0.80179000  1.0 0.1086030052
H  H8  1  0.62720000  0.89743000  0.69412000  1.0 0.1004671839
H  H9  1  0.92280000  0.65136000  0.87381000  1.0 0.1183856428
H  H10  1  0.98258000  0.58071000  0.77540000  1.0 0.1086030052
H  H11  1  0.07184000  0.78199000  0.70083000  1.0 0.1183856428
H  H12  1  0.01967000  0.85522000  0.80141000  1.0 0.1282710533
H  H13  1  0.27123000  0.67273000  0.77044000  1.0 0.1183856428
H  H14  1  0.37828000  0.63284000  0.86277000  1.0 0.1086030052
H  H15  1  0.19225000  0.41016000  0.79725000  1.0 0.1183856428
H  H16  1  0.11079000  0.44431000  0.69420000  1.0 0.1004671839
H  H17  1  0.04924000  0.60940000  0.21384000  1.0 0.1183856428
H  H18  1  0.00747000  0.68346000  0.12824000  1.0 0.1183856428
H  H19  1  0.98572000  0.86349000  0.28030000  1.0 0.1183856428
H  H20  1  0.06080000  0.80105000  0.36580000  1.0 0.1183856428
H  H21  1  0.19405000  0.47488000  0.28034000  1.0 0.1086030052
H  H22  1  0.28727000  0.45120000  0.18140000  1.0 0.1183856428
H  H23  1  0.38364000  0.67964000  0.18609000  1.0 0.1086030052
H  H24  1  0.29569000  0.70689000  0.28353000  1.0 0.1183856428
H  H25  1  0.38209000  0.06257000  0.87319000  1.0 0.1004671839
H  H26  1  0.44555000  0.00671000  0.77373000  1.0 0.0812201883
H  H27  1  0.49195000  0.19981000  0.70525000  1.0 0.1086030052
H  H28  1  0.40040000  0.25812000  0.79785000  1.0 0.1183856428
H  H29  1  0.71322000  0.12006000  0.76329000  1.0 0.1004671839
H  H30  1  0.81264000  0.10673000  0.86116000  1.0 0.1282710533
H  H31  1  0.23969000  0.06651000  0.82192000  1.0 0.1086030052
H  H32  1  0.29536000  0.01164000  0.71718000  1.0 0.1086030052
H  H33  1  0.60300000  0.16261000  0.76820000  1.0 0.0812201883
H  H34  1  0.51623000  0.24834000  0.84649000  1.0 0.1004671839
H  H35  1  0.79247000  0.05547000  0.70209000  1.0 0.1004671839
H  H36  1  0.90938000  0.04925000  0.79989000  1.0 0.1183856428
H  H37  1  0.62019000  0.95248000  0.87721000  1.0 0.1183856428
H  H38  1  0.52064000  0.97620000  0.78681000  1.0 0.0679077009
H  H39  1  0.22359000  0.99372000  0.90964000  1.0 0.3241864169
H  H40  1  0.12800000  0.95009000  0.93530000  1.0 0.3665575261
H  H41  1  0.58296000  0.72718000  0.91129000  1.0 0.4122183348
H  H42  1  0.60128000  0.65143000  0.86447000  1.0 0.4044469918
H  H43  1  0.83462000  0.65607000  0.04469000  1.0 0.3909384335
H  H44  1  0.81683000  0.68857000  0.98098000  1.0 0.3816624011
H  H45  1  0.29419000  0.12805000  0.19821000  1.0 0.1086030052
H  H46  1  0.37280000  0.10257000  0.30588000  1.0 0.1004671839
H  H47  1  0.07720000  0.34864000  0.12619000  1.0 0.1183856428
H  H48  1  0.01742000  0.41929000  0.22460000  1.0 0.1086030052
H  H49  1  0.92816000  0.21801000  0.29917000  1.0 0.1183856428
H  H50  1  0.98033000  0.14478000  0.19859000  1.0 0.1282710533
H  H51  1  0.72877000  0.32727000  0.22956000  1.0 0.1183856428
H  H52  1  0.62172000  0.36716000  0.13723000  1.0 0.1086030052
H  H53  1  0.80775000  0.58984000  0.20275000  1.0 0.1183856428
H  H54  1  0.88921000  0.55569000  0.30580000  1.0 0.1004671839
H  H55  1  0.95076000  0.39060000  0.78616000  1.0 0.1183856428
H  H56  1  0.99253000  0.31654000  0.87176000  1.0 0.1183856428
H  H57  1  0.01428000  0.13651000  0.71970000  1.0 0.1183856428
H  H58  1  0.93920000  0.19895000  0.63420000  1.0 0.1183856428
H  H59  1  0.80595000  0.52512000  0.71966000  1.0 0.1086030052
H  H60  1  0.71273000  0.54880000  0.81860000  1.0 0.1183856428
H  H61  1  0.61636000  0.32036000  0.81391000  1.0 0.1086030052
H  H62  1  0.70431000  0.29311000  0.71647000  1.0 0.1183856428
H  H63  1  0.61791000  0.93743000  0.12681000  1.0 0.1004671839
H  H64  1  0.55445000  0.99329000  0.22627000  1.0 0.0812201883
H  H65  1  0.50805000  0.80019000  0.29475000  1.0 0.1086030052
H  H66  1  0.59960000  0.74188000  0.20215000  1.0 0.1183856428
H  H67  1  0.28678000  0.87994000  0.23671000  1.0 0.1004671839
H  H68  1  0.18736000  0.89327000  0.13884000  1.0 0.1282710533
H  H69  1  0.76031000  0.93349000  0.17808000  1.0 0.1086030052
H  H70  1  0.70464000  0.98836000  0.28282000  1.0 0.1086030052
H  H71  1  0.39700000  0.83739000  0.23180000  1.0 0.0812201883
H  H72  1  0.48377000  0.75166000  0.15351000  1.0 0.1004671839
H  H73  1  0.20753000  0.94453000  0.29791000  1.0 0.1004671839
H  H74  1  0.09062000  0.95075000  0.20011000  1.0 0.1183856428
H  H75  1  0.37981000  0.04752000  0.12279000  1.0 0.1183856428
H  H76  1  0.47936000  0.02380000  0.21319000  1.0 0.0679077009
C  C1  1  0.94220000  0.80230000  0.91170000  1.0 0.5305417503
C  C2  1  0.96700000  0.75950000  0.84800000  1.0 -0.0702918064
C  C3  1  0.71100000  0.92370000  0.79360000  1.0 -0.0702918064
C  C4  1  0.65860000  0.93890000  0.73250000  1.0 -0.112409696
C  C5  1  0.95450000  0.67800000  0.83900000  1.0 -0.086486609
C  C6  1  0.98800000  0.63530000  0.77970000  1.0 -0.142978893
C  C7  1  0.02960000  0.67470000  0.72710000  1.0 0.0884492795
C  C8  1  0.04170000  0.75580000  0.73630000  1.0 -0.1562294078
C  C9  1  0.01100000  0.80030000  0.79620000  1.0 -0.0782265564
C  C10  1  0.06410000  0.63650000  0.66610000  1.0 -0.0782265564
C  C11  1  0.13620000  0.58400000  0.66270000  1.0 -0.0609192885
C  C12  1  0.19130000  0.56070000  0.72160000  1.0 0.0812201883
C  C13  1  0.26290000  0.61920000  0.77350000  1.0 -0.1298894921
C  C14  1  0.32210000  0.59590000  0.83020000  1.0 -0.112409696
C  C15  1  0.29620000  0.51660000  0.83760000  1.0 -0.0480680388
C  C16  1  0.21380000  0.46200000  0.78900000  1.0 -0.086486609
C  C17  1  0.16260000  0.48210000  0.72870000  1.0 -0.1492759784
C  C18  1  0.34690000  0.49190000  0.90040000  1.0 0.6090061391
C  C19  1  0.08630000  0.60100000  0.53560000  1.0 -0.1199033041
C  C20  1  0.09740000  0.60830000  0.46640000  1.0 -0.1298894921
C  C21  1  0.09360000  0.65760000  0.35290000  1.0 -0.0480680388
C  C22  1  0.16540000  0.60830000  0.34690000  1.0 -0.0480680388
C  C23  1  0.05710000  0.69850000  0.29880000  1.0 0.0812201883
C  C24  1  0.04070000  0.66160000  0.22730000  1.0 -0.142978893
C  C25  1  0.01130000  0.70540000  0.17670000  1.0 -0.1001663139
C  C26  1  0.98730000  0.77980000  0.19430000  1.0 -0.0702918064
C  C27  1  0.00280000  0.81360000  0.26640000  1.0 -0.1001663139
C  C28  1  0.04310000  0.77520000  0.31800000  1.0 -0.1562294078
C  C29  1  0.95110000  0.81930000  0.14060000  1.0 0.4883280272
C  C30  1  0.22900000  0.59290000  0.29030000  1.0 0.0812201883
C  C31  1  0.23090000  0.51720000  0.26060000  1.0 -0.1492759784
C  C32  1  0.28690000  0.50350000  0.20180000  1.0 -0.1001663139
C  C33  1  0.34200000  0.56300000  0.17200000  1.0 -0.0480680388
C  C34  1  0.34350000  0.63760000  0.20480000  1.0 -0.1001663139
C  C35  1  0.29100000  0.65420000  0.26210000  1.0 -0.1298894921
C  C36  1  0.39410000  0.54640000  0.10560000  1.0 0.6090061391
C  C37  1  0.33020000  0.19930000  0.90900000  1.0 0.4651107217
C  C38  1  0.37070000  0.16380000  0.84520000  1.0 -0.0480680388
C  C39  1  0.39310000  0.09150000  0.83620000  1.0 -0.0609192885
C  C40  1  0.43100000  0.05770000  0.77620000  1.0 -0.0427359783
C  C41  1  0.44680000  0.08980000  0.72640000  1.0 0.0009030771
C  C42  1  0.45500000  0.16970000  0.73630000  1.0 -0.0702918064
C  C43  1  0.40730000  0.20530000  0.79420000  1.0 -0.0702918064
C  C44  1  0.49910000  0.05890000  0.66530000  1.0 -0.112409696
C  C45  1  0.58390000  0.02040000  0.66470000  1.0 -0.1199033041
C  C46  1  0.50370000  0.00410000  0.53750000  1.0 -0.1199033041
C  C47  1  0.65180000  0.01330000  0.72740000  1.0 -0.0059669142
C  C48  1  0.71110000  0.06870000  0.77180000  1.0 -0.0702918064
C  C49  1  0.77160000  0.06080000  0.83010000  1.0 -0.0480680388
C  C50  1  0.77770000  0.99370000  0.84720000  1.0 -0.0323853794
C  C51  1  0.83820000  0.98140000  0.91220000  1.0 0.5195727969
C  C52  1  0.30740000  0.09150000  0.80600000  1.0 -0.0609192885
C  C53  1  0.34230000  0.05730000  0.74600000  1.0 -0.0782265564
C  C54  1  0.52350000  0.15170000  0.77240000  1.0 -0.0782265564
C  C55  1  0.47690000  0.19700000  0.82520000  1.0 -0.0059669142
C  C56  1  0.75700000  0.03400000  0.73830000  1.0 -0.0427359783
C  C57  1  0.82900000  0.02930000  0.79560000  1.0 -0.0702918064
C  C58  1  0.65800000  0.97410000  0.84150000  1.0 -0.1001663139
C  C59  1  0.60200000  0.98600000  0.78830000  1.0 -0.0782265564
C  C60  1  0.05780000  0.19770000  0.08830000  1.0 0.5305417503
C  C61  1  0.03300000  0.24050000  0.15200000  1.0 -0.0702918064
C  C62  1  0.28900000  0.07630000  0.20640000  1.0 -0.0702918064
C  C63  1  0.34140000  0.06110000  0.26750000  1.0 -0.112409696
C  C64  1  0.04550000  0.32200000  0.16100000  1.0 -0.086486609
C  C65  1  0.01200000  0.36470000  0.22030000  1.0 -0.142978893
C  C66  1  0.97040000  0.32530000  0.27290000  1.0 0.0884492795
C  C67  1  0.95830000  0.24420000  0.26370000  1.0 -0.1562294078
C  C68  1  0.98900000  0.19970000  0.20380000  1.0 -0.0782265564
C  C69  1  0.93590000  0.36350000  0.33390000  1.0 -0.0782265564
C  C70  1  0.86380000  0.41600000  0.33730000  1.0 -0.0609192885
C  C71  1  0.80870000  0.43930000  0.27840000  1.0 0.0812201883
C  C72  1  0.73710000  0.38080000  0.22650000  1.0 -0.1298894921
C  C73  1  0.67790000  0.40410000  0.16980000  1.0 -0.112409696
C  C74  1  0.70380000  0.48340000  0.16240000  1.0 -0.0480680388
C  C75  1  0.78620000  0.53800000  0.21100000  1.0 -0.086486609
C  C76  1  0.83740000  0.51790000  0.27130000  1.0 -0.1492759784
C  C77  1  0.65310000  0.50810000  0.09960000  1.0 0.6090061391
C  C78  1  0.91370000  0.39900000  0.46440000  1.0 -0.1199033041
C  C79  1  0.90260000  0.39170000  0.53360000  1.0 -0.1298894921
C  C80  1  0.90640000  0.34240000  0.64710000  1.0 -0.0480680388
C  C81  1  0.83460000  0.39170000  0.65310000  1.0 -0.0480680388
C  C82  1  0.94290000  0.30150000  0.70120000  1.0 0.0812201883
C  C83  1  0.95930000  0.33840000  0.77270000  1.0 -0.142978893
C  C84  1  0.98870000  0.29460000  0.82330000  1.0 -0.1001663139
C  C85  1  0.01270000  0.22020000  0.80570000  1.0 -0.0702918064
C  C86  1  0.99720000  0.18640000  0.73360000  1.0 -0.1001663139
C  C87  1  0.95690000  0.22480000  0.68200000  1.0 -0.1562294078
C  C88  1  0.04890000  0.18070000  0.85940000  1.0 0.4883280272
C  C89  1  0.77100000  0.40710000  0.70970000  1.0 0.0812201883
C  C90  1  0.76910000  0.48280000  0.73940000  1.0 -0.1492759784
C  C91  1  0.71310000  0.49650000  0.79820000  1.0 -0.1001663139
C  C92  1  0.65800000  0.43700000  0.82800000  1.0 -0.0480680388
C  C93  1  0.65650000  0.36240000  0.79520000  1.0 -0.1001663139
C  C94  1  0.70900000  0.34580000  0.73790000  1.0 -0.1298894921
C  C95  1  0.60590000  0.45360000  0.89440000  1.0 0.6090061391
C  C96  1  0.66980000  0.80070000  0.09100000  1.0 0.4643766607
C  C97  1  0.62930000  0.83620000  0.15480000  1.0 -0.0480680388
C  C98  1  0.60690000  0.90850000  0.16380000  1.0 -0.0609192885
C  C99  1  0.56900000  0.94230000  0.22380000  1.0 -0.0427359783
C  C100  1  0.55320000  0.91020000  0.27360000  1.0 0.0009030771
C  C101  1  0.54500000  0.83030000  0.26370000  1.0 -0.0702918064
C  C102  1  0.59270000  0.79470000  0.20580000  1.0 -0.0702918064
C  C103  1  0.50090000  0.94110000  0.33470000  1.0 -0.112409696
C  C104  1  0.41610000  0.97960000  0.33530000  1.0 -0.1298894921
C  C105  1  0.49630000  0.99590000  0.46250000  1.0 -0.1199033041
C  C106  1  0.34820000  0.98670000  0.27260000  1.0 -0.0059669142
C  C107  1  0.28890000  0.93130000  0.22820000  1.0 -0.0702918064
C  C108  1  0.22840000  0.93920000  0.16990000  1.0 -0.0480680388
C  C109  1  0.22230000  0.00630000  0.15280000  1.0 -0.0323853794
C  C110  1  0.16180000  0.01860000  0.08780000  1.0 0.5195727969
C  C111  1  0.69260000  0.90850000  0.19400000  1.0 -0.0609192885
C  C112  1  0.65770000  0.94270000  0.25400000  1.0 -0.0782265564
C  C113  1  0.47650000  0.84830000  0.22760000  1.0 -0.0782265564
C  C114  1  0.52310000  0.80300000  0.17480000  1.0 -0.0059669142
C  C115  1  0.24300000  0.96600000  0.26170000  1.0 -0.0427359783
C  C116  1  0.17100000  0.97070000  0.20440000  1.0 -0.0702918064
C  C117  1  0.34200000  0.02590000  0.15850000  1.0 -0.1001663139
C  C118  1  0.39800000  0.01400000  0.21170000  1.0 -0.0782265564
S  S1  1  0.18140000  0.56070000  0.41658000  1.0 0.1183856428
S  S2  1  0.02230000  0.66440000  0.42643000  1.0 0.1086030052
S  S3  1  0.16100000  0.54530000  0.57924000  1.0 0.1183856428
S  S4  1  0.00700000  0.65250000  0.58575000  1.0 0.1004671839
S  S5  1  0.61340000  0.98040000  0.58339000  1.0 0.1004671839
S  S6  1  0.42470000  0.05650000  0.58390000  1.0 0.1004671839
S  S7  1  0.81860000  0.43930000  0.58342000  1.0 0.1183856428
S  S8  1  0.97770000  0.33560000  0.57357000  1.0 0.1086030052
S  S9  1  0.83900000  0.45470000  0.42076000  1.0 0.1183856428
S  S10  1  0.99300000  0.34750000  0.41425000  1.0 0.1004671839
S  S11  1  0.38660000  0.01960000  0.41661000  1.0 0.0884492795
S  S12  1  0.57530000  0.94350000  0.41610000  1.0 0.1004671839
I  I1  1  0.74820000  0.71900000  0.36240000  1.0 -0.3584727024
I  I2  1  0.75700000  0.69530000  0.50370000  1.0 0.2315752755
I  I3  1  0.74540000  0.64410000  0.63370000  1.0 -0.3145898854
I  I4  1  0.25180000  0.28100000  0.63760000  1.0 -0.3584727024
I  I5  1  0.24300000  0.30470000  0.49630000  1.0 0.2315752755
I  I6  1  0.25460000  0.35590000  0.36630000  1.0 -0.3153339301
O  O1  1  0.85750000  0.77690000  0.93830000  1.0 -0.5198422943
O  O2  1  0.00650000  0.86760000  0.93890000  1.0 -0.5706575786
O  O3  1  0.92660000  0.88470000  0.15770000  1.0 -0.5706575786
O  O4  1  0.95560000  0.79000000  0.07730000  1.0 -0.6006165618
O  O5  1  0.45730000  0.60210000  0.08990000  1.0 -0.5899206375
O  O6  1  0.36920000  0.47970000  0.07450000  1.0 -0.6006165618
O  O7  1  0.41740000  0.54430000  0.93750000  1.0 -0.6568029796
O  O8  1  0.31320000  0.42410000  0.90690000  1.0 -0.5899206375
O  O9  1  0.79510000  0.92670000  0.93760000  1.0 -0.5297799235
O  O10  1  0.93020000  0.02680000  0.93620000  1.0 -0.6006165618
O  O11  1  0.28440000  0.15790000  0.94640000  1.0 -0.5297799235
O  O12  1  0.35450000  0.26740000  0.92220000  1.0 -0.5081793343
O  O13  1  0.85060000  0.01300000  0.08890000  1.0 -0.7939264451
O  O14  1  0.37760000  0.31720000  0.08650000  1.0 -0.8511533415
O  O15  1  0.20400000  0.35390000  0.99920000  1.0 -0.7595523869
O  O16  1  0.14250000  0.22310000  0.06170000  1.0 -0.5198422943
O  O17  1  0.99350000  0.13240000  0.06110000  1.0 -0.5706575786
O  O18  1  0.07340000  0.11530000  0.84230000  1.0 -0.5706575786
O  O19  1  0.04440000  0.21000000  0.92270000  1.0 -0.6006165618
O  O20  1  0.54270000  0.39790000  0.91010000  1.0 -0.5899206375
O  O21  1  0.63080000  0.52030000  0.92550000  1.0 -0.6006165618
O  O22  1  0.58260000  0.45570000  0.06250000  1.0 -0.6568029796
O  O23  1  0.68680000  0.57590000  0.09310000  1.0 -0.5899206375
O  O24  1  0.20490000  0.07330000  0.06240000  1.0 -0.5297799235
O  O25  1  0.06980000  0.97320000  0.06380000  1.0 -0.6006165618
O  O26  1  0.71560000  0.84210000  0.05360000  1.0 -0.5297799235
O  O27  1  0.64550000  0.73260000  0.07780000  1.0 -0.5081793343
O  O28  1  0.14940000  0.98700000  0.91110000  1.0 -0.7939264451
O  O29  1  0.62240000  0.68280000  0.91350000  1.0 -0.8511533415
O  O30  1  0.79600000  0.64610000  0.00080000  1.0 -0.7595523869
