# DDEC6 charges by PACMAN v1.1 (https://github.com/mtap-research/PACMAN-charge/)
data_QIYDEJ_ASR_pacman
_symmetry_space_group_name_H-M   'P 1'
_cell_length_a   29.64250000
_cell_length_b   29.64250000
_cell_length_c   29.64250000
_cell_angle_alpha   113.61200000
_cell_angle_beta   113.61200000
_cell_angle_gamma   101.47300000
_symmetry_Int_Tables_number   1
_chemical_formula_structural   Cu3H34C71NO12
_chemical_formula_sum   'Cu12 H136 C284 N4 O48'
_cell_volume   19763.35675973
_cell_formula_units_Z   4
loop_
 _symmetry_equiv_pos_site_id
 _symmetry_equiv_pos_as_xyz
  1  'x, y, z'
loop_
 _atom_site_type_symbol
 _atom_site_label
 _atom_site_symmetry_multiplicity
 _atom_site_fract_x
 _atom_site_fract_y
 _atom_site_fract_z
 _atom_site_occupancy
 _atom_site_charge
Cu  Cu1  1  0.25444000  0.53925000  0.79369000  1.0 0.8514022321
Cu  Cu2  1  0.74556000  0.46075000  0.20631000  1.0 0.8514022321
Cu  Cu3  1  0.53925000  0.74556000  0.28481000  1.0 0.8514022321
Cu  Cu4  1  0.46075000  0.25444000  0.71519000  1.0 0.8514022321
Cu  Cu5  1  0.17411000  0.52448000  0.69859000  1.0 0.7571712823
Cu  Cu6  1  0.82589000  0.47552000  0.30141000  1.0 0.7571712823
Cu  Cu7  1  0.52448000  0.82589000  0.35037000  1.0 0.7571712823
Cu  Cu8  1  0.47552000  0.17411000  0.64963000  1.0 0.7571712823
Cu  Cu9  1  0.78504000  0.28504000  0.50000000  1.0 0.8582379908
Cu  Cu10  1  0.28504000  0.78504000  0.50000000  1.0 0.8582379908
Cu  Cu11  1  0.21496000  0.71496000  0.50000000  1.0 0.8582379908
Cu  Cu12  1  0.71496000  0.21496000  0.50000000  1.0 0.8582379908
H  H1  1  0.22460000  0.69440000  0.75000000  1.0 0.1289088449
H  H2  1  0.94440000  0.47460000  0.25000000  1.0 0.1289088449
H  H3  1  0.69440000  0.94440000  0.46980000  1.0 0.1289088449
H  H4  1  0.47460000  0.22460000  0.53020000  1.0 0.1289088449
H  H5  1  0.77540000  0.30560000  0.25000000  1.0 0.1289088449
H  H6  1  0.05560000  0.52540000  0.75000000  1.0 0.1289088449
H  H7  1  0.30560000  0.05560000  0.53020000  1.0 0.1289088449
H  H8  1  0.52540000  0.77540000  0.46980000  1.0 0.1289088449
H  H9  1  0.26360000  0.78710000  0.79090000  1.0 0.1289088449
H  H10  1  0.99620000  0.47270000  0.20910000  1.0 0.1289088449
H  H11  1  0.78710000  0.99620000  0.52350000  1.0 0.1289088449
H  H12  1  0.47270000  0.26360000  0.47650000  1.0 0.1289088449
H  H13  1  0.73640000  0.21290000  0.20910000  1.0 0.1289088449
H  H14  1  0.00380000  0.52730000  0.79090000  1.0 0.1289088449
H  H15  1  0.21290000  0.00380000  0.47650000  1.0 0.1289088449
H  H16  1  0.52730000  0.73640000  0.52350000  1.0 0.1289088449
H  H17  1  0.38020000  0.80460000  0.93260000  1.0 0.1289088449
H  H18  1  0.87200000  0.44760000  0.06740000  1.0 0.1289088449
H  H19  1  0.80460000  0.87200000  0.42440000  1.0 0.1289088449
H  H20  1  0.44760000  0.38020000  0.57560000  1.0 0.1289088449
H  H21  1  0.61980000  0.19540000  0.06740000  1.0 0.1289088449
H  H22  1  0.12800000  0.55240000  0.93260000  1.0 0.1289088449
H  H23  1  0.19540000  0.12800000  0.57560000  1.0 0.1289088449
H  H24  1  0.55240000  0.61980000  0.42440000  1.0 0.1289088449
H  H25  1  0.33850000  0.71110000  0.89220000  1.0 0.1289088449
H  H26  1  0.81890000  0.44630000  0.10780000  1.0 0.1289088449
H  H27  1  0.71110000  0.81890000  0.37260000  1.0 0.1289088449
H  H28  1  0.44630000  0.33850000  0.62740000  1.0 0.1289088449
H  H29  1  0.66150000  0.28890000  0.10780000  1.0 0.1289088449
H  H30  1  0.18110000  0.55370000  0.89220000  1.0 0.1289088449
H  H31  1  0.28890000  0.18110000  0.62740000  1.0 0.1289088449
H  H32  1  0.55370000  0.66150000  0.37260000  1.0 0.1289088449
H  H33  1  0.43770000  0.98490000  0.02680000  1.0 0.1387009882
H  H34  1  0.95810000  0.41090000  0.97320000  1.0 0.1387009882
H  H35  1  0.98490000  0.95810000  0.54720000  1.0 0.1387009882
H  H36  1  0.41090000  0.43770000  0.45280000  1.0 0.1387009882
H  H37  1  0.56230000  0.01510000  0.97320000  1.0 0.1387009882
H  H38  1  0.04190000  0.58910000  0.02680000  1.0 0.1387009882
H  H39  1  0.01510000  0.04190000  0.45280000  1.0 0.1387009882
H  H40  1  0.58910000  0.56230000  0.54720000  1.0 0.1387009882
H  H41  1  0.50550000  0.11380000  0.02150000  1.0 0.1289088449
H  H42  1  0.09230000  0.48400000  0.97850000  1.0 0.1289088449
H  H43  1  0.11380000  0.09230000  0.60830000  1.0 0.1289088449
H  H44  1  0.48400000  0.50550000  0.39170000  1.0 0.1289088449
H  H45  1  0.49450000  0.88620000  0.97850000  1.0 0.1289088449
H  H46  1  0.90770000  0.51600000  0.02150000  1.0 0.1289088449
H  H47  1  0.88620000  0.90770000  0.39170000  1.0 0.1289088449
H  H48  1  0.51600000  0.49450000  0.60830000  1.0 0.1289088449
H  H49  1  0.39840000  0.96870000  0.87230000  1.0 0.1387009882
H  H50  1  0.09640000  0.52610000  0.12770000  1.0 0.1387009882
H  H51  1  0.96870000  0.09640000  0.57030000  1.0 0.1387009882
H  H52  1  0.52610000  0.39840000  0.42970000  1.0 0.1387009882
H  H53  1  0.60160000  0.03130000  0.12770000  1.0 0.1387009882
H  H54  1  0.90360000  0.47390000  0.87230000  1.0 0.1387009882
H  H55  1  0.03130000  0.90360000  0.42970000  1.0 0.1387009882
H  H56  1  0.47390000  0.60160000  0.57030000  1.0 0.1387009882
H  H57  1  0.53080000  0.07970000  0.21870000  1.0 0.1289088449
H  H58  1  0.86100000  0.31210000  0.78130000  1.0 0.1289088449
H  H59  1  0.07970000  0.86100000  0.54890000  1.0 0.1289088449
H  H60  1  0.31210000  0.53080000  0.45110000  1.0 0.1289088449
H  H61  1  0.46920000  0.92030000  0.78130000  1.0 0.1289088449
H  H62  1  0.13900000  0.68790000  0.21870000  1.0 0.1289088449
H  H63  1  0.92030000  0.13900000  0.45110000  1.0 0.1289088449
H  H64  1  0.68790000  0.46920000  0.54890000  1.0 0.1289088449
H  H65  1  0.59330000  0.11860000  0.31690000  1.0 0.1289088449
H  H66  1  0.80170000  0.27640000  0.68310000  1.0 0.1289088449
H  H67  1  0.11860000  0.80170000  0.52530000  1.0 0.1289088449
H  H68  1  0.27640000  0.59330000  0.47470000  1.0 0.1289088449
H  H69  1  0.40670000  0.88140000  0.68310000  1.0 0.1289088449
H  H70  1  0.19830000  0.72360000  0.31690000  1.0 0.1289088449
H  H71  1  0.88140000  0.19830000  0.47470000  1.0 0.1289088449
H  H72  1  0.72360000  0.40670000  0.52530000  1.0 0.1289088449
H  H73  1  0.69180000  0.23370000  0.31950000  1.0 0.1216880186
H  H74  1  0.91420000  0.37230000  0.68050000  1.0 0.1216880186
H  H75  1  0.23370000  0.91420000  0.54190000  1.0 0.1216880186
H  H76  1  0.37230000  0.69180000  0.45810000  1.0 0.1216880186
H  H77  1  0.30820000  0.76630000  0.68050000  1.0 0.1216880186
H  H78  1  0.08580000  0.62770000  0.31950000  1.0 0.1216880186
H  H79  1  0.76630000  0.08580000  0.45810000  1.0 0.1216880186
H  H80  1  0.62770000  0.30820000  0.54190000  1.0 0.1216880186
H  H81  1  0.63050000  0.19600000  0.22090000  1.0 0.1216880186
H  H82  1  0.97510000  0.40960000  0.77910000  1.0 0.1216880186
H  H83  1  0.19600000  0.97510000  0.56550000  1.0 0.1216880186
H  H84  1  0.40960000  0.63050000  0.43450000  1.0 0.1216880186
H  H85  1  0.36950000  0.80400000  0.77910000  1.0 0.1216880186
H  H86  1  0.02490000  0.59040000  0.22090000  1.0 0.1216880186
H  H87  1  0.80400000  0.02490000  0.43450000  1.0 0.1216880186
H  H88  1  0.59040000  0.36950000  0.56550000  1.0 0.1216880186
H  H89  1  0.47410000  0.04900000  0.79310000  1.0 0.1216880186
H  H90  1  0.25590000  0.68100000  0.20690000  1.0 0.1216880186
H  H91  1  0.04900000  0.25590000  0.57490000  1.0 0.1216880186
H  H92  1  0.68100000  0.47410000  0.42510000  1.0 0.1216880186
H  H93  1  0.52590000  0.95100000  0.20690000  1.0 0.1216880186
H  H94  1  0.74410000  0.31900000  0.79310000  1.0 0.1216880186
H  H95  1  0.95100000  0.74410000  0.42510000  1.0 0.1216880186
H  H96  1  0.31900000  0.52590000  0.57490000  1.0 0.1216880186
H  H97  1  0.47890000  0.08490000  0.73640000  1.0 0.1289088449
H  H98  1  0.34850000  0.74250000  0.26360000  1.0 0.1289088449
H  H99  1  0.08490000  0.34850000  0.60600000  1.0 0.1289088449
H  H100  1  0.74250000  0.47890000  0.39400000  1.0 0.1289088449
H  H101  1  0.52110000  0.91510000  0.26360000  1.0 0.1289088449
H  H102  1  0.65150000  0.25750000  0.73640000  1.0 0.1289088449
H  H103  1  0.91510000  0.65150000  0.39400000  1.0 0.1289088449
H  H104  1  0.25750000  0.52110000  0.60600000  1.0 0.1289088449
H  H105  1  0.46640000  0.21400000  0.83920000  1.0 0.1289088449
H  H106  1  0.37480000  0.62720000  0.16080000  1.0 0.1289088449
H  H107  1  0.21400000  0.37480000  0.74760000  1.0 0.1289088449
H  H108  1  0.62720000  0.46640000  0.25240000  1.0 0.1289088449
H  H109  1  0.53360000  0.78600000  0.16080000  1.0 0.1289088449
H  H110  1  0.62520000  0.37280000  0.83920000  1.0 0.1289088449
H  H111  1  0.78600000  0.62520000  0.25240000  1.0 0.1289088449
H  H112  1  0.37280000  0.53360000  0.74760000  1.0 0.1289088449
H  H113  1  0.46330000  0.17870000  0.89400000  1.0 0.1289088449
H  H114  1  0.28470000  0.56930000  0.10600000  1.0 0.1289088449
H  H115  1  0.17870000  0.28470000  0.71540000  1.0 0.1289088449
H  H116  1  0.56930000  0.46330000  0.28460000  1.0 0.1289088449
H  H117  1  0.53670000  0.82130000  0.10600000  1.0 0.1289088449
H  H118  1  0.71530000  0.43070000  0.89400000  1.0 0.1289088449
H  H119  1  0.82130000  0.71530000  0.28460000  1.0 0.1289088449
H  H120  1  0.43070000  0.53670000  0.71540000  1.0 0.1289088449
H  H121  1  0.09320000  0.57020000  0.66340000  1.0 0.1120156997
H  H122  1  0.90680000  0.42980000  0.33660000  1.0 0.1120156997
H  H123  1  0.57020000  0.90680000  0.47700000  1.0 0.1120156997
H  H124  1  0.42980000  0.09320000  0.52300000  1.0 0.1120156997
H  H125  1  0.02410000  0.56520000  0.58930000  1.0 0.1216880186
H  H126  1  0.97590000  0.43480000  0.41070000  1.0 0.1216880186
H  H127  1  0.56520000  0.97590000  0.54110000  1.0 0.1216880186
H  H128  1  0.43480000  0.02410000  0.45890000  1.0 0.1216880186
H  H129  1  0.03810000  0.44340000  0.48150000  1.0 0.1216880186
H  H130  1  0.96190000  0.55660000  0.51850000  1.0 0.1216880186
H  H131  1  0.44340000  0.96190000  0.40530000  1.0 0.1216880186
H  H132  1  0.55660000  0.03810000  0.59470000  1.0 0.1216880186
H  H133  1  0.10760000  0.45490000  0.56250000  1.0 0.1120156997
H  H134  1  0.89240000  0.54510000  0.43750000  1.0 0.1120156997
H  H135  1  0.45490000  0.89240000  0.34730000  1.0 0.1120156997
H  H136  1  0.54510000  0.10760000  0.65270000  1.0 0.1120156997
C  C1  1  0.25197000  0.63263000  0.78986000  1.0 0.566362241
C  C2  1  0.84277000  0.46211000  0.21014000  1.0 0.566362241
C  C3  1  0.63263000  0.84277000  0.38066000  1.0 0.566362241
C  C4  1  0.46211000  0.25197000  0.61934000  1.0 0.566362241
C  C5  1  0.74803000  0.36737000  0.21014000  1.0 0.566362241
C  C6  1  0.15723000  0.53789000  0.78986000  1.0 0.566362241
C  C7  1  0.36737000  0.15723000  0.61934000  1.0 0.566362241
C  C8  1  0.53789000  0.74803000  0.38066000  1.0 0.566362241
C  C9  1  0.27778000  0.69408000  0.81704000  1.0 -0.0100083231
C  C10  1  0.87704000  0.46074000  0.18296000  1.0 -0.0100083231
C  C11  1  0.69408000  0.87704000  0.41630000  1.0 -0.0100083231
C  C12  1  0.46074000  0.27778000  0.58370000  1.0 -0.0100083231
C  C13  1  0.72222000  0.30592000  0.18296000  1.0 -0.0100083231
C  C14  1  0.12296000  0.53926000  0.81704000  1.0 -0.0100083231
C  C15  1  0.30592000  0.12296000  0.58370000  1.0 -0.0100083231
C  C16  1  0.53926000  0.72222000  0.41630000  1.0 -0.0100083231
C  C17  1  0.25624000  0.71669000  0.78757000  1.0 -0.1033032213
C  C18  1  0.92912000  0.46867000  0.21243000  1.0 -0.1033032213
C  C19  1  0.71669000  0.92912000  0.46045000  1.0 -0.1033032213
C  C20  1  0.46867000  0.25624000  0.53955000  1.0 -0.1033032213
C  C21  1  0.74376000  0.28331000  0.21243000  1.0 -0.1033032213
C  C22  1  0.07088000  0.53133000  0.78757000  1.0 -0.1033032213
C  C23  1  0.28331000  0.07088000  0.53955000  1.0 -0.1033032213
C  C24  1  0.53133000  0.74376000  0.46045000  1.0 -0.1033032213
C  C25  1  0.27991000  0.77200000  0.81175000  1.0 -0.1519363389
C  C26  1  0.96025000  0.46816000  0.18825000  1.0 -0.1519363389
C  C27  1  0.77200000  0.96025000  0.49209000  1.0 -0.1519363389
C  C28  1  0.46816000  0.27991000  0.50791000  1.0 -0.1519363389
C  C29  1  0.72009000  0.22800000  0.18825000  1.0 -0.1519363389
C  C30  1  0.03975000  0.53184000  0.81175000  1.0 -0.1519363389
C  C31  1  0.22800000  0.03975000  0.50791000  1.0 -0.1519363389
C  C32  1  0.53184000  0.72009000  0.49209000  1.0 -0.1519363389
C  C33  1  0.32591000  0.80473000  0.86468000  1.0 0.1216880186
C  C34  1  0.94005000  0.46123000  0.13532000  1.0 0.1216880186
C  C35  1  0.80473000  0.94005000  0.47882000  1.0 0.1216880186
C  C36  1  0.46123000  0.32591000  0.52118000  1.0 0.1216880186
C  C37  1  0.67409000  0.19527000  0.13532000  1.0 0.1216880186
C  C38  1  0.05995000  0.53877000  0.86468000  1.0 0.1216880186
C  C39  1  0.19527000  0.05995000  0.52118000  1.0 0.1216880186
C  C40  1  0.53877000  0.67409000  0.47882000  1.0 0.1216880186
C  C41  1  0.34825000  0.78230000  0.89531000  1.0 -0.1519363389
C  C42  1  0.88699000  0.45294000  0.10469000  1.0 -0.1519363389
C  C43  1  0.78230000  0.88699000  0.43405000  1.0 -0.1519363389
C  C44  1  0.45294000  0.34825000  0.56595000  1.0 -0.1519363389
C  C45  1  0.65175000  0.21770000  0.10469000  1.0 -0.1519363389
C  C46  1  0.11301000  0.54706000  0.89531000  1.0 -0.1519363389
C  C47  1  0.21770000  0.11301000  0.56595000  1.0 -0.1519363389
C  C48  1  0.54706000  0.65175000  0.43405000  1.0 -0.1519363389
C  C49  1  0.32342000  0.72642000  0.87098000  1.0 -0.0870672526
C  C50  1  0.85544000  0.45244000  0.12902000  1.0 -0.0870672526
C  C51  1  0.72642000  0.85544000  0.40300000  1.0 -0.0870672526
C  C52  1  0.45244000  0.32342000  0.59700000  1.0 -0.0870672526
C  C53  1  0.67658000  0.27358000  0.12902000  1.0 -0.0870672526
C  C54  1  0.14456000  0.54756000  0.87098000  1.0 -0.0870672526
C  C55  1  0.27358000  0.14456000  0.59700000  1.0 -0.0870672526
C  C56  1  0.54756000  0.67658000  0.40300000  1.0 -0.0870672526
C  C57  1  0.35306000  0.86411000  0.89211000  1.0 -0.1091341239
C  C58  1  0.97200000  0.46095000  0.10789000  1.0 -0.1091341239
C  C59  1  0.86411000  0.97200000  0.51105000  1.0 -0.1091341239
C  C60  1  0.46095000  0.35306000  0.48895000  1.0 -0.1091341239
C  C61  1  0.64694000  0.13589000  0.10789000  1.0 -0.1091341239
C  C62  1  0.02800000  0.53905000  0.89211000  1.0 -0.1091341239
C  C63  1  0.13589000  0.02800000  0.48895000  1.0 -0.1091341239
C  C64  1  0.53905000  0.64694000  0.51105000  1.0 -0.1091341239
C  C65  1  0.37739000  0.91111000  0.91550000  1.0 -0.0870672526
C  C66  1  0.99561000  0.46189000  0.08450000  1.0 -0.0870672526
C  C67  1  0.91111000  0.99561000  0.53372000  1.0 -0.0870672526
C  C68  1  0.46189000  0.37739000  0.46628000  1.0 -0.0870672526
C  C69  1  0.62261000  0.08889000  0.08450000  1.0 -0.0870672526
C  C70  1  0.00439000  0.53811000  0.91550000  1.0 -0.0870672526
C  C71  1  0.08889000  0.00439000  0.46628000  1.0 -0.0870672526
C  C72  1  0.53811000  0.62261000  0.53372000  1.0 -0.0870672526
C  C73  1  0.41120000  0.96836000  0.94506000  1.0 0.1387009882
C  C74  1  0.02330000  0.46614000  0.05494000  1.0 0.1387009882
C  C75  1  0.96836000  0.02330000  0.55716000  1.0 0.1387009882
C  C76  1  0.46614000  0.41120000  0.44284000  1.0 0.1387009882
C  C77  1  0.58880000  0.03164000  0.05494000  1.0 0.1387009882
C  C78  1  0.97670000  0.53386000  0.94506000  1.0 0.1387009882
C  C79  1  0.03164000  0.97670000  0.44284000  1.0 0.1387009882
C  C80  1  0.53386000  0.58880000  0.55716000  1.0 0.1387009882
C  C81  1  0.44093000  0.00014000  0.00521000  1.0 -0.1737802851
C  C82  1  0.99493000  0.43572000  0.99479000  1.0 -0.1737802851
C  C83  1  0.00014000  0.99493000  0.55921000  1.0 -0.1737802851
C  C84  1  0.43572000  0.44093000  0.44079000  1.0 -0.1737802851
C  C85  1  0.55907000  0.99986000  0.99479000  1.0 -0.1737802851
C  C86  1  0.00507000  0.56428000  0.00521000  1.0 -0.1737802851
C  C87  1  0.99986000  0.00507000  0.44079000  1.0 -0.1737802851
C  C88  1  0.56428000  0.55907000  0.55921000  1.0 -0.1737802851
C  C89  1  0.47532000  0.05423000  0.03365000  1.0 0.1387009882
C  C90  1  0.02058000  0.44167000  0.96635000  1.0 0.1387009882
C  C91  1  0.05423000  0.02058000  0.57891000  1.0 0.1387009882
C  C92  1  0.44167000  0.47532000  0.42109000  1.0 0.1387009882
C  C93  1  0.52468000  0.94577000  0.96635000  1.0 0.1387009882
C  C94  1  0.97942000  0.55833000  0.03365000  1.0 0.1387009882
C  C95  1  0.94577000  0.97942000  0.42109000  1.0 0.1387009882
C  C96  1  0.55833000  0.52468000  0.57891000  1.0 0.1387009882
C  C97  1  0.48154000  0.07712000  0.00216000  1.0 -0.1882741128
C  C98  1  0.07496000  0.47938000  0.99784000  1.0 -0.1882741128
C  C99  1  0.07712000  0.07496000  0.59558000  1.0 -0.1882741128
C  C100  1  0.47938000  0.48154000  0.40442000  1.0 -0.1882741128
C  C101  1  0.51846000  0.92288000  0.99784000  1.0 -0.1882741128
C  C102  1  0.92504000  0.52062000  0.00216000  1.0 -0.1882741128
C  C103  1  0.92288000  0.92504000  0.40442000  1.0 -0.1882741128
C  C104  1  0.52062000  0.51846000  0.59558000  1.0 -0.1882741128
C  C105  1  0.45128000  0.04433000  0.94151000  1.0 0.1387009882
C  C106  1  0.10282000  0.50977000  0.05849000  1.0 0.1387009882
C  C107  1  0.04433000  0.10282000  0.59305000  1.0 0.1387009882
C  C108  1  0.50977000  0.45128000  0.40695000  1.0 0.1387009882
C  C109  1  0.54872000  0.95567000  0.05849000  1.0 0.1387009882
C  C110  1  0.89718000  0.49023000  0.94151000  1.0 0.1387009882
C  C111  1  0.95567000  0.89718000  0.40695000  1.0 0.1387009882
C  C112  1  0.49023000  0.54872000  0.59305000  1.0 0.1387009882
C  C113  1  0.41748000  0.99067000  0.91325000  1.0 -0.1882741128
C  C114  1  0.07742000  0.50423000  0.08675000  1.0 -0.1882741128
C  C115  1  0.99067000  0.07742000  0.57319000  1.0 -0.1882741128
C  C116  1  0.50423000  0.41748000  0.42681000  1.0 -0.1882741128
C  C117  1  0.58252000  0.00933000  0.08675000  1.0 -0.1882741128
C  C118  1  0.92258000  0.49577000  0.91325000  1.0 -0.1882741128
C  C119  1  0.00933000  0.92258000  0.42681000  1.0 -0.1882741128
C  C120  1  0.49577000  0.58252000  0.57319000  1.0 -0.1882741128
C  C121  1  0.50921000  0.08548000  0.09669000  1.0 -0.0818781557
C  C122  1  0.98879000  0.41252000  0.90331000  1.0 -0.0818781557
C  C123  1  0.08548000  0.98879000  0.57627000  1.0 -0.0818781557
C  C124  1  0.41252000  0.50921000  0.42373000  1.0 -0.0818781557
C  C125  1  0.49079000  0.91452000  0.90331000  1.0 -0.0818781557
C  C126  1  0.01121000  0.58748000  0.09669000  1.0 -0.0818781557
C  C127  1  0.91452000  0.01121000  0.42373000  1.0 -0.0818781557
C  C128  1  0.58748000  0.49079000  0.57627000  1.0 -0.0818781557
C  C129  1  0.53854000  0.10786000  0.14704000  1.0 -0.1187869835
C  C130  1  0.96082000  0.39150000  0.85296000  1.0 -0.1187869835
C  C131  1  0.10786000  0.96082000  0.56932000  1.0 -0.1187869835
C  C132  1  0.39150000  0.53854000  0.43068000  1.0 -0.1187869835
C  C133  1  0.46146000  0.89214000  0.85296000  1.0 -0.1187869835
C  C134  1  0.03918000  0.60850000  0.14704000  1.0 -0.1187869835
C  C135  1  0.89214000  0.03918000  0.43068000  1.0 -0.1187869835
C  C136  1  0.60850000  0.46146000  0.56932000  1.0 -0.1187869835
C  C137  1  0.57580000  0.13341000  0.20927000  1.0 0.1387009882
C  C138  1  0.92414000  0.36653000  0.79073000  1.0 0.1387009882
C  C139  1  0.13341000  0.92414000  0.55761000  1.0 0.1387009882
C  C140  1  0.36653000  0.57580000  0.44239000  1.0 0.1387009882
C  C141  1  0.42420000  0.86659000  0.79073000  1.0 0.1387009882
C  C142  1  0.07586000  0.63347000  0.20927000  1.0 0.1387009882
C  C143  1  0.86659000  0.07586000  0.44239000  1.0 0.1387009882
C  C144  1  0.63347000  0.42420000  0.55761000  1.0 0.1387009882
C  C145  1  0.56352000  0.11052000  0.23856000  1.0 -0.1435538366
C  C146  1  0.87196000  0.32496000  0.76144000  1.0 -0.1435538366
C  C147  1  0.11052000  0.87196000  0.54700000  1.0 -0.1435538366
C  C148  1  0.32496000  0.56352000  0.45300000  1.0 -0.1435538366
C  C149  1  0.43648000  0.88948000  0.76144000  1.0 -0.1435538366
C  C150  1  0.12804000  0.67504000  0.23856000  1.0 -0.1435538366
C  C151  1  0.88948000  0.12804000  0.45300000  1.0 -0.1435538366
C  C152  1  0.67504000  0.43648000  0.54700000  1.0 -0.1435538366
C  C153  1  0.60077000  0.13441000  0.29734000  1.0 -0.0870672526
C  C154  1  0.83707000  0.30343000  0.70266000  1.0 -0.0870672526
C  C155  1  0.13441000  0.83707000  0.53364000  1.0 -0.0870672526
C  C156  1  0.30343000  0.60077000  0.46636000  1.0 -0.0870672526
C  C157  1  0.39923000  0.86559000  0.70266000  1.0 -0.0870672526
C  C158  1  0.16293000  0.69657000  0.29734000  1.0 -0.0870672526
C  C159  1  0.86559000  0.16293000  0.46636000  1.0 -0.0870672526
C  C160  1  0.69657000  0.39923000  0.53364000  1.0 -0.0870672526
C  C161  1  0.64808000  0.18029000  0.32793000  1.0 -0.0317418755
C  C162  1  0.85236000  0.32015000  0.67207000  1.0 -0.0317418755
C  C163  1  0.18029000  0.85236000  0.53221000  1.0 -0.0317418755
C  C164  1  0.32015000  0.64808000  0.46779000  1.0 -0.0317418755
C  C165  1  0.35192000  0.81971000  0.67207000  1.0 -0.0317418755
C  C166  1  0.14764000  0.67985000  0.32793000  1.0 -0.0317418755
C  C167  1  0.81971000  0.14764000  0.46779000  1.0 -0.0317418755
C  C168  1  0.67985000  0.35192000  0.53221000  1.0 -0.0317418755
C  C169  1  0.65918000  0.20254000  0.29918000  1.0 -0.0870672526
C  C170  1  0.90336000  0.36000000  0.70082000  1.0 -0.0870672526
C  C171  1  0.20254000  0.90336000  0.54336000  1.0 -0.0870672526
C  C172  1  0.36000000  0.65918000  0.45664000  1.0 -0.0870672526
C  C173  1  0.34082000  0.79746000  0.70082000  1.0 -0.0870672526
C  C174  1  0.09664000  0.64000000  0.29918000  1.0 -0.0870672526
C  C175  1  0.79746000  0.09664000  0.45664000  1.0 -0.0870672526
C  C176  1  0.64000000  0.34082000  0.54336000  1.0 -0.0870672526
C  C177  1  0.62277000  0.17963000  0.23994000  1.0 -0.1561618953
C  C178  1  0.93969000  0.38283000  0.76006000  1.0 -0.1561618953
C  C179  1  0.17963000  0.93969000  0.55686000  1.0 -0.1561618953
C  C180  1  0.38283000  0.62277000  0.44314000  1.0 -0.1561618953
C  C181  1  0.37723000  0.82037000  0.76006000  1.0 -0.1561618953
C  C182  1  0.06031000  0.61717000  0.23994000  1.0 -0.1561618953
C  C183  1  0.82037000  0.06031000  0.44314000  1.0 -0.1561618953
C  C184  1  0.61717000  0.37723000  0.55686000  1.0 -0.1561618953
C  C185  1  0.68672000  0.20619000  0.39159000  1.0 0.5754800902
C  C186  1  0.81460000  0.29513000  0.60841000  1.0 0.5754800902
C  C187  1  0.20619000  0.81460000  0.51947000  1.0 0.5754800902
C  C188  1  0.29513000  0.68672000  0.48053000  1.0 0.5754800902
C  C189  1  0.31328000  0.79381000  0.60841000  1.0 0.5754800902
C  C190  1  0.18540000  0.70487000  0.39159000  1.0 0.5754800902
C  C191  1  0.79381000  0.18540000  0.48053000  1.0 0.5754800902
C  C192  1  0.70487000  0.31328000  0.51947000  1.0 0.5754800902
C  C193  1  0.45757000  0.06719000  0.90826000  1.0 -0.0870672526
C  C194  1  0.15893000  0.54931000  0.09174000  1.0 -0.0870672526
C  C195  1  0.06719000  0.15893000  0.60962000  1.0 -0.0870672526
C  C196  1  0.54931000  0.45757000  0.39038000  1.0 -0.0870672526
C  C197  1  0.54243000  0.93281000  0.09174000  1.0 -0.0870672526
C  C198  1  0.84107000  0.45069000  0.90826000  1.0 -0.0870672526
C  C199  1  0.93281000  0.84107000  0.39038000  1.0 -0.0870672526
C  C200  1  0.45069000  0.54243000  0.60962000  1.0 -0.0870672526
C  C201  1  0.46285000  0.08585000  0.88102000  1.0 -0.1091341239
C  C202  1  0.20483000  0.58183000  0.11898000  1.0 -0.1091341239
C  C203  1  0.08585000  0.20483000  0.62300000  1.0 -0.1091341239
C  C204  1  0.58183000  0.46285000  0.37700000  1.0 -0.1091341239
C  C205  1  0.53715000  0.91415000  0.11898000  1.0 -0.1091341239
C  C206  1  0.79517000  0.41817000  0.88102000  1.0 -0.1091341239
C  C207  1  0.91415000  0.79517000  0.37700000  1.0 -0.1091341239
C  C208  1  0.41817000  0.53715000  0.62300000  1.0 -0.1091341239
C  C209  1  0.46623000  0.10905000  0.84750000  1.0 0.1216880186
C  C210  1  0.26155000  0.61873000  0.15250000  1.0 0.1216880186
C  C211  1  0.10905000  0.26155000  0.64282000  1.0 0.1216880186
C  C212  1  0.61873000  0.46623000  0.35718000  1.0 0.1216880186
C  C213  1  0.53377000  0.89095000  0.15250000  1.0 0.1216880186
C  C214  1  0.73845000  0.38127000  0.84750000  1.0 0.1216880186
C  C215  1  0.89095000  0.73845000  0.35718000  1.0 0.1216880186
C  C216  1  0.38127000  0.53377000  0.64282000  1.0 0.1216880186
C  C217  1  0.47201000  0.08241000  0.80192000  1.0 -0.1519363389
C  C218  1  0.28049000  0.67009000  0.19808000  1.0 -0.1519363389
C  C219  1  0.08241000  0.28049000  0.61040000  1.0 -0.1519363389
C  C220  1  0.67009000  0.47201000  0.38960000  1.0 -0.1519363389
C  C221  1  0.52799000  0.91759000  0.19808000  1.0 -0.1519363389
C  C222  1  0.71951000  0.32991000  0.80192000  1.0 -0.1519363389
C  C223  1  0.91759000  0.71951000  0.38960000  1.0 -0.1519363389
C  C224  1  0.32991000  0.52799000  0.61040000  1.0 -0.1519363389
C  C225  1  0.47495000  0.10357000  0.76772000  1.0 -0.1033032213
C  C226  1  0.33585000  0.70723000  0.23228000  1.0 -0.1033032213
C  C227  1  0.10357000  0.33585000  0.62862000  1.0 -0.1033032213
C  C228  1  0.70723000  0.47495000  0.37138000  1.0 -0.1033032213
C  C229  1  0.52505000  0.89643000  0.23228000  1.0 -0.1033032213
C  C230  1  0.66415000  0.29277000  0.76772000  1.0 -0.1033032213
C  C231  1  0.89643000  0.66415000  0.37138000  1.0 -0.1033032213
C  C232  1  0.29277000  0.52505000  0.62862000  1.0 -0.1033032213
C  C233  1  0.47193000  0.15244000  0.78203000  1.0 -0.0100083231
C  C234  1  0.37041000  0.68990000  0.21797000  1.0 -0.0100083231
C  C235  1  0.15244000  0.37041000  0.68051000  1.0 -0.0100083231
C  C236  1  0.68990000  0.47193000  0.31949000  1.0 -0.0100083231
C  C237  1  0.52807000  0.84756000  0.21797000  1.0 -0.0100083231
C  C238  1  0.62959000  0.31010000  0.78203000  1.0 -0.0100083231
C  C239  1  0.84756000  0.62959000  0.31949000  1.0 -0.0100083231
C  C240  1  0.31010000  0.52807000  0.68051000  1.0 -0.0100083231
C  C241  1  0.46769000  0.18012000  0.82935000  1.0 -0.0870672526
C  C242  1  0.35077000  0.63834000  0.17065000  1.0 -0.0870672526
C  C243  1  0.18012000  0.35077000  0.71243000  1.0 -0.0870672526
C  C244  1  0.63834000  0.46769000  0.28757000  1.0 -0.0870672526
C  C245  1  0.53231000  0.81988000  0.17065000  1.0 -0.0870672526
C  C246  1  0.64923000  0.36166000  0.82935000  1.0 -0.0870672526
C  C247  1  0.81988000  0.64923000  0.28757000  1.0 -0.0870672526
C  C248  1  0.36166000  0.53231000  0.71243000  1.0 -0.0870672526
C  C249  1  0.46542000  0.15901000  0.86155000  1.0 -0.1318765192
C  C250  1  0.29746000  0.60387000  0.13845000  1.0 -0.1318765192
C  C251  1  0.15901000  0.29746000  0.69359000  1.0 -0.1318765192
C  C252  1  0.60387000  0.46542000  0.30641000  1.0 -0.1318765192
C  C253  1  0.53458000  0.84099000  0.13845000  1.0 -0.1318765192
C  C254  1  0.70254000  0.39613000  0.86155000  1.0 -0.1318765192
C  C255  1  0.84099000  0.70254000  0.30641000  1.0 -0.1318765192
C  C256  1  0.39613000  0.53458000  0.69359000  1.0 -0.1318765192
C  C257  1  0.47265000  0.17581000  0.74462000  1.0 0.5634213478
C  C258  1  0.43119000  0.72803000  0.25538000  1.0 0.5634213478
C  C259  1  0.17581000  0.43119000  0.70316000  1.0 0.5634213478
C  C260  1  0.72803000  0.47265000  0.29684000  1.0 0.5634213478
C  C261  1  0.52735000  0.82419000  0.25538000  1.0 0.5634213478
C  C262  1  0.56881000  0.27197000  0.74462000  1.0 0.5634213478
C  C263  1  0.82419000  0.56881000  0.29684000  1.0 0.5634213478
C  C264  1  0.27197000  0.52735000  0.70316000  1.0 0.5634213478
C  C265  1  0.08240000  0.54340000  0.62580000  1.0 0.0905127467
C  C266  1  0.91760000  0.45660000  0.37420000  1.0 0.0905127467
C  C267  1  0.54340000  0.91760000  0.46100000  1.0 0.0905127467
C  C268  1  0.45660000  0.08240000  0.53900000  1.0 0.0905127467
C  C269  1  0.04010000  0.54110000  0.58120000  1.0 -0.2216069012
C  C270  1  0.95990000  0.45890000  0.41880000  1.0 -0.2216069012
C  C271  1  0.54110000  0.95990000  0.50100000  1.0 -0.2216069012
C  C272  1  0.45890000  0.04010000  0.49900000  1.0 -0.2216069012
C  C273  1  0.02188000  0.50312000  0.52500000  1.0 0.0905127467
C  C274  1  0.97812000  0.49688000  0.47500000  1.0 0.0905127467
C  C275  1  0.50312000  0.97812000  0.48124000  1.0 0.0905127467
C  C276  1  0.49688000  0.02188000  0.51876000  1.0 0.0905127467
C  C277  1  0.04820000  0.47060000  0.51880000  1.0 -0.206001079
C  C278  1  0.95180000  0.52940000  0.48120000  1.0 -0.206001079
C  C279  1  0.47060000  0.95180000  0.42240000  1.0 -0.206001079
C  C280  1  0.52940000  0.04820000  0.57760000  1.0 -0.206001079
C  C281  1  0.09040000  0.47820000  0.56860000  1.0 0.0733374485
C  C282  1  0.90960000  0.52180000  0.43140000  1.0 0.0733374485
C  C283  1  0.47820000  0.90960000  0.38780000  1.0 0.0733374485
C  C284  1  0.52180000  0.09040000  0.61220000  1.0 0.0733374485
N  N1  1  0.10947000  0.51450000  0.62397000  1.0 -0.2297545469
N  N2  1  0.89053000  0.48550000  0.37603000  1.0 -0.2297545469
N  N3  1  0.51450000  0.89053000  0.40503000  1.0 -0.2297545469
N  N4  1  0.48550000  0.10947000  0.59497000  1.0 -0.2297545469
O  O1  1  0.27750000  0.61624000  0.82114000  1.0 -0.5102039485
O  O2  1  0.79510000  0.45636000  0.17886000  1.0 -0.5102039485
O  O3  1  0.61624000  0.79510000  0.33874000  1.0 -0.5102039485
O  O4  1  0.45636000  0.27750000  0.66126000  1.0 -0.5102039485
O  O5  1  0.72250000  0.38376000  0.17886000  1.0 -0.5102039485
O  O6  1  0.20490000  0.54364000  0.82114000  1.0 -0.5102039485
O  O7  1  0.38376000  0.20490000  0.66126000  1.0 -0.5102039485
O  O8  1  0.54364000  0.72250000  0.33874000  1.0 -0.5102039485
O  O9  1  0.21003000  0.60415000  0.74050000  1.0 -0.4999161682
O  O10  1  0.86365000  0.46953000  0.25950000  1.0 -0.4999161682
O  O11  1  0.60415000  0.86365000  0.39412000  1.0 -0.4999161682
O  O12  1  0.46953000  0.21003000  0.60588000  1.0 -0.4999161682
O  O13  1  0.78997000  0.39585000  0.25950000  1.0 -0.4999161682
O  O14  1  0.13635000  0.53047000  0.74050000  1.0 -0.4999161682
O  O15  1  0.39585000  0.13635000  0.60588000  1.0 -0.4999161682
O  O16  1  0.53047000  0.78997000  0.39412000  1.0 -0.4999161682
O  O17  1  0.46664000  0.21948000  0.75918000  1.0 -0.5102039485
O  O18  1  0.46030000  0.70746000  0.24082000  1.0 -0.5102039485
O  O19  1  0.21948000  0.46030000  0.75284000  1.0 -0.5102039485
O  O20  1  0.70746000  0.46664000  0.24716000  1.0 -0.5102039485
O  O21  1  0.53336000  0.78052000  0.24082000  1.0 -0.5102039485
O  O22  1  0.53970000  0.29254000  0.75918000  1.0 -0.5102039485
O  O23  1  0.78052000  0.53970000  0.24716000  1.0 -0.5102039485
O  O24  1  0.29254000  0.53336000  0.75284000  1.0 -0.5102039485
O  O25  1  0.47875000  0.15089000  0.70374000  1.0 -0.5102039485
O  O26  1  0.44715000  0.77501000  0.29626000  1.0 -0.5102039485
O  O27  1  0.15089000  0.44715000  0.67214000  1.0 -0.5102039485
O  O28  1  0.77501000  0.47875000  0.32786000  1.0 -0.5102039485
O  O29  1  0.52125000  0.84911000  0.29626000  1.0 -0.5102039485
O  O30  1  0.55285000  0.22499000  0.70374000  1.0 -0.5102039485
O  O31  1  0.84911000  0.55285000  0.32786000  1.0 -0.5102039485
O  O32  1  0.22499000  0.52125000  0.67214000  1.0 -0.5102039485
O  O33  1  0.73050000  0.24594000  0.41632000  1.0 -0.4999161682
O  O34  1  0.82962000  0.31418000  0.58368000  1.0 -0.4999161682
O  O35  1  0.24594000  0.82962000  0.51544000  1.0 -0.4999161682
O  O36  1  0.31418000  0.73050000  0.48456000  1.0 -0.4999161682
O  O37  1  0.26950000  0.75406000  0.58368000  1.0 -0.4999161682
O  O38  1  0.17038000  0.68582000  0.41632000  1.0 -0.4999161682
O  O39  1  0.75406000  0.17038000  0.48456000  1.0 -0.4999161682
O  O40  1  0.68582000  0.26950000  0.51544000  1.0 -0.4999161682
O  O41  1  0.67104000  0.18585000  0.41665000  1.0 -0.5327320009
O  O42  1  0.76920000  0.25439000  0.58335000  1.0 -0.5327320009
O  O43  1  0.18585000  0.76920000  0.51481000  1.0 -0.5327320009
O  O44  1  0.25439000  0.67104000  0.48519000  1.0 -0.5327320009
O  O45  1  0.32896000  0.81415000  0.58335000  1.0 -0.5327320009
O  O46  1  0.23080000  0.74561000  0.41665000  1.0 -0.5327320009
O  O47  1  0.81415000  0.23080000  0.48519000  1.0 -0.5327320009
O  O48  1  0.74561000  0.32896000  0.51481000  1.0 -0.5327320009
