# DDEC6 charges by PACMAN v1.1 (https://github.com/mtap-research/PACMAN-charge/)
data_QIYDAF01_ASR_pacman
_symmetry_space_group_name_H-M   'P 1'
_cell_length_a   41.67400000
_cell_length_b   41.67400000
_cell_length_c   42.56900000
_cell_angle_alpha   59.70230000
_cell_angle_beta   120.29800000
_cell_angle_gamma   117.88500000
_symmetry_Int_Tables_number   1
_chemical_formula_structural   CuH10(C11O2)2
_chemical_formula_sum   'Cu24 H240 C528 O96'
_cell_volume   52812.49849498
_cell_formula_units_Z   24
loop_
 _symmetry_equiv_pos_site_id
 _symmetry_equiv_pos_as_xyz
  1  'x, y, z'
loop_
 _atom_site_type_symbol
 _atom_site_label
 _atom_site_symmetry_multiplicity
 _atom_site_fract_x
 _atom_site_fract_y
 _atom_site_fract_z
 _atom_site_occupancy
 _atom_site_charge
Cu  Cu1  1  0.10229000  0.42457000  0.75457000  1.0 0.8446183054
Cu  Cu2  1  0.57543000  0.89771000  0.75457000  1.0 0.8446183054
Cu  Cu3  1  0.04066000  0.42994000  0.75261000  1.0 0.8250993339
Cu  Cu4  1  0.57006000  0.95934000  0.75261000  1.0 0.8250993339
Cu  Cu5  1  0.11611000  0.41683000  0.29603000  1.0 0.875285521
Cu  Cu6  1  0.58317000  0.88389000  0.29603000  1.0 0.875285521
Cu  Cu7  1  0.05329000  0.42359000  0.23361000  1.0 0.8600799588
Cu  Cu8  1  0.57641000  0.94671000  0.23361000  1.0 0.8600799588
Cu  Cu9  1  0.57672000  0.42328000  0.21548000  1.0 0.8512458799
Cu  Cu10  1  0.57765000  0.42235000  0.27820000  1.0 0.8512458799
Cu  Cu11  1  0.04598000  0.89270000  0.76507000  1.0 0.8718692509
Cu  Cu12  1  0.10730000  0.95402000  0.76507000  1.0 0.8718692509
Cu  Cu13  1  0.42457000  0.10229000  0.24543000  1.0 0.8446183054
Cu  Cu14  1  0.89771000  0.57543000  0.24543000  1.0 0.8446183054
Cu  Cu15  1  0.42994000  0.04066000  0.24739000  1.0 0.8250993339
Cu  Cu16  1  0.95934000  0.57006000  0.24739000  1.0 0.8250993339
Cu  Cu17  1  0.41683000  0.11611000  0.70397000  1.0 0.875285521
Cu  Cu18  1  0.88389000  0.58317000  0.70397000  1.0 0.875285521
Cu  Cu19  1  0.42359000  0.05329000  0.76639000  1.0 0.8600799588
Cu  Cu20  1  0.94671000  0.57641000  0.76639000  1.0 0.8600799588
Cu  Cu21  1  0.42328000  0.57672000  0.78452000  1.0 0.8512458799
Cu  Cu22  1  0.42235000  0.57765000  0.72180000  1.0 0.8512458799
Cu  Cu23  1  0.89270000  0.04598000  0.23493000  1.0 0.8718692509
Cu  Cu24  1  0.95402000  0.10730000  0.23493000  1.0 0.8718692509
H  H1  1  0.06580000  0.44040000  0.63510000  1.0 0.1289641922
H  H2  1  0.55960000  0.93420000  0.63510000  1.0 0.1289641922
H  H3  1  0.03540000  0.44600000  0.57000000  1.0 0.1222626358
H  H4  1  0.55400000  0.96460000  0.57000000  1.0 0.1222626358
H  H5  1  0.94020000  0.45200000  0.56730000  1.0 0.1289641922
H  H6  1  0.54800000  0.05980000  0.56730000  1.0 0.1289641922
H  H7  1  0.97060000  0.44640000  0.63240000  1.0 0.1289641922
H  H8  1  0.55360000  0.02940000  0.63240000  1.0 0.1289641922
H  H9  1  0.98710000  0.45490000  0.45080000  1.0 0.1388937491
H  H10  1  0.54510000  0.01290000  0.45080000  1.0 0.1388937491
H  H11  1  0.89850000  0.45870000  0.34840000  1.0 0.1289641922
H  H12  1  0.54130000  0.10150000  0.34840000  1.0 0.1289641922
H  H13  1  0.88370000  0.45410000  0.43740000  1.0 0.1388937491
H  H14  1  0.54590000  0.11630000  0.43740000  1.0 0.1388937491
H  H15  1  0.05180000  0.42900000  0.40210000  1.0 0.1222626358
H  H16  1  0.57100000  0.94820000  0.40210000  1.0 0.1222626358
H  H17  1  0.07820000  0.42020000  0.37090000  1.0 0.1289641922
H  H18  1  0.57980000  0.92180000  0.37090000  1.0 0.1289641922
H  H19  1  0.00350000  0.46850000  0.26690000  1.0 0.1289641922
H  H20  1  0.53150000  0.99650000  0.26690000  1.0 0.1289641922
H  H21  1  0.97720000  0.47720000  0.29810000  1.0 0.1222626358
H  H22  1  0.52280000  0.02280000  0.29810000  1.0 0.1222626358
H  H23  1  0.76230000  0.44730000  0.27620000  1.0 0.1222626358
H  H24  1  0.55270000  0.23770000  0.27620000  1.0 0.1222626358
H  H25  1  0.69570000  0.43930000  0.24910000  1.0 0.1289641922
H  H26  1  0.56070000  0.30430000  0.24910000  1.0 0.1289641922
H  H27  1  0.69950000  0.43810000  0.34630000  1.0 0.1289641922
H  H28  1  0.56190000  0.30050000  0.34630000  1.0 0.1289641922
H  H29  1  0.76600000  0.44600000  0.37340000  1.0 0.1222626358
H  H30  1  0.55400000  0.23400000  0.37340000  1.0 0.1222626358
H  H31  1  0.17250000  0.40610000  0.87680000  1.0 0.1289641922
H  H32  1  0.59390000  0.82750000  0.87680000  1.0 0.1289641922
H  H33  1  0.19970000  0.39630000  0.94290000  1.0 0.1222626358
H  H34  1  0.60370000  0.80030000  0.94290000  1.0 0.1222626358
H  H35  1  0.10140000  0.39800000  0.93820000  1.0 0.1222626358
H  H36  1  0.60200000  0.89860000  0.93820000  1.0 0.1222626358
H  H37  1  0.07400000  0.40780000  0.87210000  1.0 0.1289641922
H  H38  1  0.59220000  0.92600000  0.87210000  1.0 0.1289641922
H  H39  1  0.26370000  0.39170000  0.06490000  1.0 0.1222626358
H  H40  1  0.60830000  0.73630000  0.06490000  1.0 0.1222626358
H  H41  1  0.26240000  0.38760000  0.16100000  1.0 0.1222626358
H  H42  1  0.61240000  0.73760000  0.16100000  1.0 0.1222626358
H  H43  1  0.16550000  0.38810000  0.06540000  1.0 0.1222626358
H  H44  1  0.61190000  0.83450000  0.06540000  1.0 0.1222626358
H  H45  1  0.38750000  0.40010000  0.12110000  1.0 0.1222626358
H  H46  1  0.59990000  0.61250000  0.12110000  1.0 0.1222626358
H  H47  1  0.45380000  0.40720000  0.14810000  1.0 0.1289641922
H  H48  1  0.59280000  0.54620000  0.14810000  1.0 0.1289641922
H  H49  1  0.45830000  0.40650000  0.24540000  1.0 0.1289641922
H  H50  1  0.59350000  0.54170000  0.24540000  1.0 0.1289641922
H  H51  1  0.39190000  0.39950000  0.21830000  1.0 0.1222626358
H  H52  1  0.60050000  0.60810000  0.21830000  1.0 0.1222626358
H  H53  1  0.20670000  0.39070000  0.22680000  1.0 0.1222626358
H  H54  1  0.60930000  0.79330000  0.22680000  1.0 0.1222626358
H  H55  1  0.17900000  0.39920000  0.25700000  1.0 0.1289641922
H  H56  1  0.60080000  0.82100000  0.25700000  1.0 0.1289641922
H  H57  1  0.08040000  0.40060000  0.16300000  1.0 0.1289641922
H  H58  1  0.59940000  0.91960000  0.16300000  1.0 0.1289641922
H  H59  1  0.10810000  0.39210000  0.13290000  1.0 0.1222626358
H  H60  1  0.60790000  0.89190000  0.13290000  1.0 0.1222626358
H  H61  1  0.17070000  0.55050000  0.72430000  1.0 0.1222626358
H  H62  1  0.44950000  0.82930000  0.72430000  1.0 0.1222626358
H  H63  1  0.19850000  0.61590000  0.71690000  1.0 0.1222626358
H  H64  1  0.38410000  0.80150000  0.71690000  1.0 0.1222626358
H  H65  1  0.11300000  0.61260000  0.73830000  1.0 0.1222626358
H  H66  1  0.38740000  0.88700000  0.73830000  1.0 0.1222626358
H  H67  1  0.08520000  0.54720000  0.74570000  1.0 0.1222626358
H  H68  1  0.45280000  0.91480000  0.74570000  1.0 0.1222626358
H  H69  1  0.26490000  0.73510000  0.72180000  1.0 0.1289641922
H  H70  1  0.16850000  0.73870000  0.72170000  1.0 0.1289641922
H  H71  1  0.26130000  0.83150000  0.72170000  1.0 0.1289641922
H  H72  1  0.11000000  0.79660000  0.73470000  1.0 0.1222626358
H  H73  1  0.20340000  0.89000000  0.73470000  1.0 0.1222626358
H  H74  1  0.08050000  0.82630000  0.74110000  1.0 0.1289641922
H  H75  1  0.17370000  0.91950000  0.74110000  1.0 0.1289641922
H  H76  1  0.06820000  0.30560000  0.77770000  1.0 0.1289641922
H  H77  1  0.69440000  0.93180000  0.77770000  1.0 0.1289641922
H  H78  1  0.03970000  0.23990000  0.78680000  1.0 0.1222626358
H  H79  1  0.76010000  0.96030000  0.78680000  1.0 0.1222626358
H  H80  1  0.94170000  0.24670000  0.77760000  1.0 0.1222626358
H  H81  1  0.75330000  0.05830000  0.77760000  1.0 0.1222626358
H  H82  1  0.97020000  0.31260000  0.76840000  1.0 0.1289641922
H  H83  1  0.68740000  0.02980000  0.76840000  1.0 0.1289641922
H  H84  1  0.88090000  0.11910000  0.78730000  1.0 0.1289641922
H  H85  1  0.97910000  0.11290000  0.79220000  1.0 0.1289641922
H  H86  1  0.88710000  0.02090000  0.79220000  1.0 0.1289641922
H  H87  1  0.94820000  0.96120000  0.78990000  1.0 0.1222626358
H  H88  1  0.03880000  0.05180000  0.78990000  1.0 0.1222626358
H  H89  1  0.98010000  0.92890000  0.78730000  1.0 0.1222626358
H  H90  1  0.07110000  0.01990000  0.78730000  1.0 0.1289641922
H  H91  1  0.08480000  0.82040000  0.88480000  1.0 0.1289641922
H  H92  1  0.17960000  0.91520000  0.88480000  1.0 0.1289641922
H  H93  1  0.11400000  0.79020000  0.95080000  1.0 0.1222626358
H  H94  1  0.20980000  0.88600000  0.95080000  1.0 0.1222626358
H  H95  1  0.17180000  0.73280000  0.07820000  1.0 0.1289641922
H  H96  1  0.26720000  0.82820000  0.07820000  1.0 0.1289641922
H  H97  1  0.26890000  0.73110000  0.17680000  1.0 0.1289641922
H  H98  1  0.11960000  0.60960000  0.13870000  1.0 0.1222626358
H  H99  1  0.39040000  0.88040000  0.13870000  1.0 0.1222626358
H  H100  1  0.09000000  0.54400000  0.16630000  1.0 0.1289641922
H  H101  1  0.45600000  0.91000000  0.16630000  1.0 0.1289641922
H  H102  1  0.18480000  0.53760000  0.26420000  1.0 0.1289641922
H  H103  1  0.46240000  0.81520000  0.26420000  1.0 0.1289641922
H  H104  1  0.21430000  0.60310000  0.23650000  1.0 0.1222626358
H  H105  1  0.39690000  0.78570000  0.23650000  1.0 0.1222626358
H  H106  1  0.07540000  0.29500000  0.35910000  1.0 0.1289641922
H  H107  1  0.70500000  0.92460000  0.35910000  1.0 0.1289641922
H  H108  1  0.04140000  0.23240000  0.38860000  1.0 0.1222626358
H  H109  1  0.76760000  0.95860000  0.38860000  1.0 0.1222626358
H  H110  1  0.94270000  0.24830000  0.29730000  1.0 0.1114572205
H  H111  1  0.75170000  0.05730000  0.29730000  1.0 0.1114572205
H  H112  1  0.97660000  0.31100000  0.26780000  1.0 0.1222626358
H  H113  1  0.68900000  0.02340000  0.26780000  1.0 0.1222626358
H  H114  1  0.88250000  0.11750000  0.35580000  1.0 0.1114572205
H  H115  1  0.97520000  0.11900000  0.45500000  1.0 0.1222626358
H  H116  1  0.88100000  0.02480000  0.45500000  1.0 0.1222626358
H  H117  1  0.03550000  0.05950000  0.58110000  1.0 0.1222626358
H  H118  1  0.94050000  0.96450000  0.58110000  1.0 0.1222626358
H  H119  1  0.06720000  0.02640000  0.64650000  1.0 0.1289641922
H  H120  1  0.97360000  0.93280000  0.64650000  1.0 0.1289641922
H  H121  1  0.44040000  0.06580000  0.36490000  1.0 0.1289641922
H  H122  1  0.93420000  0.55960000  0.36490000  1.0 0.1289641922
H  H123  1  0.44600000  0.03540000  0.43000000  1.0 0.1222626358
H  H124  1  0.96460000  0.55400000  0.43000000  1.0 0.1222626358
H  H125  1  0.45200000  0.94020000  0.43270000  1.0 0.1289641922
H  H126  1  0.05980000  0.54800000  0.43270000  1.0 0.1289641922
H  H127  1  0.44640000  0.97060000  0.36760000  1.0 0.1289641922
H  H128  1  0.02940000  0.55360000  0.36760000  1.0 0.1289641922
H  H129  1  0.45490000  0.98710000  0.54920000  1.0 0.1388937491
H  H130  1  0.01290000  0.54510000  0.54920000  1.0 0.1388937491
H  H131  1  0.45870000  0.89850000  0.65160000  1.0 0.1289641922
H  H132  1  0.10150000  0.54130000  0.65160000  1.0 0.1289641922
H  H133  1  0.45410000  0.88370000  0.56260000  1.0 0.1388937491
H  H134  1  0.11630000  0.54590000  0.56260000  1.0 0.1388937491
H  H135  1  0.42900000  0.05180000  0.59790000  1.0 0.1222626358
H  H136  1  0.94820000  0.57100000  0.59790000  1.0 0.1222626358
H  H137  1  0.42020000  0.07820000  0.62910000  1.0 0.1289641922
H  H138  1  0.92180000  0.57980000  0.62910000  1.0 0.1289641922
H  H139  1  0.46850000  0.00350000  0.73310000  1.0 0.1289641922
H  H140  1  0.99650000  0.53150000  0.73310000  1.0 0.1289641922
H  H141  1  0.47720000  0.97720000  0.70190000  1.0 0.1222626358
H  H142  1  0.02280000  0.52280000  0.70190000  1.0 0.1222626358
H  H143  1  0.44730000  0.76230000  0.72380000  1.0 0.1222626358
H  H144  1  0.23770000  0.55270000  0.72380000  1.0 0.1222626358
H  H145  1  0.43930000  0.69570000  0.75090000  1.0 0.1289641922
H  H146  1  0.30430000  0.56070000  0.75090000  1.0 0.1289641922
H  H147  1  0.43810000  0.69950000  0.65370000  1.0 0.1289641922
H  H148  1  0.30050000  0.56190000  0.65370000  1.0 0.1289641922
H  H149  1  0.44600000  0.76600000  0.62660000  1.0 0.1222626358
H  H150  1  0.23400000  0.55400000  0.62660000  1.0 0.1222626358
H  H151  1  0.40610000  0.17250000  0.12320000  1.0 0.1289641922
H  H152  1  0.82750000  0.59390000  0.12320000  1.0 0.1289641922
H  H153  1  0.39630000  0.19970000  0.05710000  1.0 0.1222626358
H  H154  1  0.80030000  0.60370000  0.05710000  1.0 0.1222626358
H  H155  1  0.39800000  0.10140000  0.06180000  1.0 0.1222626358
H  H156  1  0.89860000  0.60200000  0.06180000  1.0 0.1222626358
H  H157  1  0.40780000  0.07400000  0.12790000  1.0 0.1289641922
H  H158  1  0.92600000  0.59220000  0.12790000  1.0 0.1289641922
H  H159  1  0.39170000  0.26370000  0.93510000  1.0 0.1222626358
H  H160  1  0.73630000  0.60830000  0.93510000  1.0 0.1222626358
H  H161  1  0.38760000  0.26240000  0.83900000  1.0 0.1222626358
H  H162  1  0.73760000  0.61240000  0.83900000  1.0 0.1222626358
H  H163  1  0.38810000  0.16550000  0.93460000  1.0 0.1222626358
H  H164  1  0.83450000  0.61190000  0.93460000  1.0 0.1222626358
H  H165  1  0.40010000  0.38750000  0.87890000  1.0 0.1222626358
H  H166  1  0.61250000  0.59990000  0.87890000  1.0 0.1222626358
H  H167  1  0.40720000  0.45380000  0.85190000  1.0 0.1289641922
H  H168  1  0.54620000  0.59280000  0.85190000  1.0 0.1289641922
H  H169  1  0.40650000  0.45830000  0.75460000  1.0 0.1289641922
H  H170  1  0.54170000  0.59350000  0.75460000  1.0 0.1222626358
H  H171  1  0.39950000  0.39190000  0.78170000  1.0 0.1222626358
H  H172  1  0.60810000  0.60050000  0.78170000  1.0 0.1222626358
H  H173  1  0.39070000  0.20670000  0.77320000  1.0 0.1222626358
H  H174  1  0.79330000  0.60930000  0.77320000  1.0 0.1222626358
H  H175  1  0.39920000  0.17900000  0.74300000  1.0 0.1289641922
H  H176  1  0.82100000  0.60080000  0.74300000  1.0 0.1289641922
H  H177  1  0.40060000  0.08040000  0.83700000  1.0 0.1289641922
H  H178  1  0.91960000  0.59940000  0.83700000  1.0 0.1289641922
H  H179  1  0.39210000  0.10810000  0.86710000  1.0 0.1222626358
H  H180  1  0.89190000  0.60790000  0.86710000  1.0 0.1222626358
H  H181  1  0.55050000  0.17070000  0.27570000  1.0 0.1222626358
H  H182  1  0.82930000  0.44950000  0.27570000  1.0 0.1222626358
H  H183  1  0.61590000  0.19850000  0.28310000  1.0 0.1222626358
H  H184  1  0.80150000  0.38410000  0.28310000  1.0 0.1222626358
H  H185  1  0.61260000  0.11300000  0.26170000  1.0 0.1222626358
H  H186  1  0.88700000  0.38740000  0.26170000  1.0 0.1222626358
H  H187  1  0.54720000  0.08520000  0.25430000  1.0 0.1222626358
H  H188  1  0.91480000  0.45280000  0.25430000  1.0 0.1222626358
H  H189  1  0.73510000  0.26490000  0.27820000  1.0 0.1289641922
H  H190  1  0.73870000  0.16850000  0.27830000  1.0 0.1222626358
H  H191  1  0.83150000  0.26130000  0.27830000  1.0 0.1289641922
H  H192  1  0.79660000  0.11000000  0.26530000  1.0 0.1222626358
H  H193  1  0.89000000  0.20340000  0.26530000  1.0 0.1222626358
H  H194  1  0.82630000  0.08050000  0.25890000  1.0 0.1289641922
H  H195  1  0.91950000  0.17370000  0.25890000  1.0 0.1289641922
H  H196  1  0.30560000  0.06820000  0.22230000  1.0 0.1289641922
H  H197  1  0.93180000  0.69440000  0.22230000  1.0 0.1289641922
H  H198  1  0.23990000  0.03970000  0.21320000  1.0 0.1222626358
H  H199  1  0.96030000  0.76010000  0.21320000  1.0 0.1222626358
H  H200  1  0.24670000  0.94170000  0.22240000  1.0 0.1222626358
H  H201  1  0.05830000  0.75330000  0.22240000  1.0 0.1222626358
H  H202  1  0.31260000  0.97020000  0.23160000  1.0 0.1289641922
H  H203  1  0.02980000  0.68740000  0.23160000  1.0 0.1289641922
H  H204  1  0.11910000  0.88090000  0.21270000  1.0 0.1222626358
H  H205  1  0.11290000  0.97910000  0.20780000  1.0 0.1289641922
H  H206  1  0.02090000  0.88710000  0.20780000  1.0 0.1289641922
H  H207  1  0.96120000  0.94820000  0.21010000  1.0 0.1222626358
H  H208  1  0.05180000  0.03880000  0.21010000  1.0 0.1222626358
H  H209  1  0.92890000  0.98010000  0.21270000  1.0 0.1222626358
H  H210  1  0.01990000  0.07110000  0.21270000  1.0 0.1289641922
H  H211  1  0.82040000  0.08480000  0.11520000  1.0 0.1289641922
H  H212  1  0.91520000  0.17960000  0.11520000  1.0 0.1289641922
H  H213  1  0.79020000  0.11400000  0.04920000  1.0 0.1222626358
H  H214  1  0.88600000  0.20980000  0.04920000  1.0 0.1222626358
H  H215  1  0.73280000  0.17180000  0.92180000  1.0 0.1289641922
H  H216  1  0.82820000  0.26720000  0.92180000  1.0 0.1289641922
H  H217  1  0.73110000  0.26890000  0.82320000  1.0 0.1289641922
H  H218  1  0.60960000  0.11960000  0.86130000  1.0 0.1222626358
H  H219  1  0.88040000  0.39040000  0.86130000  1.0 0.1222626358
H  H220  1  0.54400000  0.09000000  0.83370000  1.0 0.1289641922
H  H221  1  0.91000000  0.45600000  0.83370000  1.0 0.1289641922
H  H222  1  0.53760000  0.18480000  0.73580000  1.0 0.1289641922
H  H223  1  0.81520000  0.46240000  0.73580000  1.0 0.1289641922
H  H224  1  0.60310000  0.21430000  0.76350000  1.0 0.1222626358
H  H225  1  0.78570000  0.39690000  0.76350000  1.0 0.1222626358
H  H226  1  0.29500000  0.07540000  0.64090000  1.0 0.1289641922
H  H227  1  0.92460000  0.70500000  0.64090000  1.0 0.1289641922
H  H228  1  0.23240000  0.04140000  0.61140000  1.0 0.1289641922
H  H229  1  0.95860000  0.76760000  0.61140000  1.0 0.1289641922
H  H230  1  0.24830000  0.94270000  0.70270000  1.0 0.1114572205
H  H231  1  0.05730000  0.75170000  0.70270000  1.0 0.1114572205
H  H232  1  0.31100000  0.97660000  0.73220000  1.0 0.1222626358
H  H233  1  0.02340000  0.68900000  0.73220000  1.0 0.1222626358
H  H234  1  0.11750000  0.88250000  0.64420000  1.0 0.1114572205
H  H235  1  0.11900000  0.97520000  0.54500000  1.0 0.1222626358
H  H236  1  0.02480000  0.88100000  0.54500000  1.0 0.1222626358
H  H237  1  0.05950000  0.03550000  0.41890000  1.0 0.1222626358
H  H238  1  0.96450000  0.94050000  0.41890000  1.0 0.1222626358
H  H239  1  0.02640000  0.06720000  0.35350000  1.0 0.1289641922
H  H240  1  0.93280000  0.97360000  0.35350000  1.0 0.1289641922
C  C1  1  0.03959000  0.43767000  0.68322000  1.0 0.5603761224
C  C2  1  0.56233000  0.96041000  0.68322000  1.0 0.5603761224
C  C3  1  0.02117000  0.44289000  0.64004000  1.0 -0.0079349441
C  C4  1  0.55711000  0.97883000  0.64004000  1.0 -0.0079349441
C  C5  1  0.04050000  0.44274000  0.62142000  1.0 -0.0892495236
C  C6  1  0.55726000  0.95950000  0.62142000  1.0 -0.0892495236
C  C7  1  0.02234000  0.44604000  0.58257000  1.0 -0.1491276019
C  C8  1  0.55396000  0.97766000  0.58257000  1.0 -0.1491276019
C  C9  1  0.98485000  0.44951000  0.56233000  1.0 0.1388937491
C  C10  1  0.55049000  0.01515000  0.56233000  1.0 0.1388937491
C  C11  1  0.96551000  0.44967000  0.58094000  1.0 -0.1491276019
C  C12  1  0.55033000  0.03449000  0.58094000  1.0 -0.1491276019
C  C13  1  0.98366000  0.44636000  0.61980000  1.0 -0.0995521027
C  C14  1  0.55364000  0.01634000  0.61980000  1.0 -0.0995521027
C  C15  1  0.96627000  0.45029000  0.52210000  1.0 -0.119103969
C  C16  1  0.54971000  0.03373000  0.52210000  1.0 -0.119103969
C  C17  1  0.95329000  0.45261000  0.48890000  1.0 -0.0995521027
C  C18  1  0.54739000  0.04671000  0.48890000  1.0 -0.0995521027
C  C19  1  0.93784000  0.45422000  0.45031000  1.0 0.1388937491
C  C20  1  0.54578000  0.06216000  0.45031000  1.0 0.1388937491
C  C21  1  0.96131000  0.45527000  0.43527000  1.0 -0.169533712
C  C22  1  0.54473000  0.03869000  0.43527000  1.0 -0.169533712
C  C23  1  0.94661000  0.45693000  0.39720000  1.0 0.1583967952
C  C24  1  0.54307000  0.05339000  0.39720000  1.0 0.1583967952
C  C25  1  0.90842000  0.45752000  0.37415000  1.0 -0.169533712
C  C26  1  0.54248000  0.09158000  0.37415000  1.0 -0.169533712
C  C27  1  0.88495000  0.45647000  0.38919000  1.0 0.1289641922
C  C28  1  0.54353000  0.11505000  0.38919000  1.0 0.1289641922
C  C29  1  0.89966000  0.45482000  0.42730000  1.0 -0.1803559249
C  C30  1  0.54518000  0.10034000  0.42730000  1.0 -0.1803559249
C  C31  1  0.97144000  0.45644000  0.38222000  1.0 -0.0795128031
C  C32  1  0.54356000  0.02856000  0.38222000  1.0 -0.0795128031
C  C33  1  0.99202000  0.45684000  0.36980000  1.0 -0.119103969
C  C34  1  0.54316000  0.00798000  0.36980000  1.0 -0.119103969
C  C35  1  0.01194000  0.45394000  0.35310000  1.0 0.1388937491
C  C36  1  0.54606000  0.98806000  0.35310000  1.0 0.1388937491
C  C37  1  0.04205000  0.43693000  0.37480000  1.0 -0.1400031228
C  C38  1  0.56307000  0.95795000  0.37480000  1.0 -0.1400031228
C  C39  1  0.05777000  0.43169000  0.35620000  1.0 -0.0892495236
C  C40  1  0.56831000  0.94223000  0.35620000  1.0 -0.0892495236
C  C41  1  0.04338000  0.44346000  0.31590000  1.0 -0.0175757334
C  C42  1  0.55654000  0.95662000  0.31590000  1.0 -0.0175757334
C  C43  1  0.01326000  0.46048000  0.29418000  1.0 -0.0995521027
C  C44  1  0.53952000  0.98674000  0.29418000  1.0 -0.0995521027
C  C45  1  0.99755000  0.46571000  0.31270000  1.0 -0.1400031228
C  C46  1  0.53429000  0.00245000  0.31270000  1.0 -0.1400031228
C  C47  1  0.05977000  0.43443000  0.29780000  1.0 0.5761110674
C  C48  1  0.56557000  0.94023000  0.29780000  1.0 0.5761110674
C  C49  1  0.84618000  0.45602000  0.36490000  1.0 -0.0995521027
C  C50  1  0.54398000  0.15382000  0.36490000  1.0 -0.0995521027
C  C51  1  0.81311000  0.45289000  0.34990000  1.0 -0.0995521027
C  C52  1  0.54711000  0.18689000  0.34990000  1.0 -0.0995521027
C  C53  1  0.77062000  0.44738000  0.32740000  1.0 0.1388937491
C  C54  1  0.55262000  0.22938000  0.32740000  1.0 0.1289641922
C  C55  1  0.74965000  0.44539000  0.29032000  1.0 -0.169533712
C  C56  1  0.55461000  0.25035000  0.29032000  1.0 -0.169533712
C  C57  1  0.70996000  0.44066000  0.27420000  1.0 -0.0892495236
C  C58  1  0.55934000  0.29004000  0.27420000  1.0 -0.0892495236
C  C59  1  0.69124000  0.43796000  0.29510000  1.0 -0.0325410488
C  C60  1  0.56204000  0.30876000  0.29510000  1.0 -0.0325410488
C  C61  1  0.71221000  0.43995000  0.33220000  1.0 -0.0795128031
C  C62  1  0.56005000  0.28779000  0.33220000  1.0 -0.0795128031
C  C63  1  0.75190000  0.44466000  0.34830000  1.0 -0.1400031228
C  C64  1  0.55534000  0.24810000  0.34830000  1.0 -0.1400031228
C  C65  1  0.64870000  0.43182000  0.27780000  1.0 0.5694194508
C  C66  1  0.56818000  0.35130000  0.27780000  1.0 0.5694194508
C  C67  1  0.09924000  0.41508000  0.82313000  1.0 0.5603761224
C  C68  1  0.58492000  0.90076000  0.82313000  1.0 0.5603761224
C  C69  1  0.12060000  0.40790000  0.86807000  1.0 0.0106244514
C  C70  1  0.59210000  0.87940000  0.86807000  1.0 0.0106244514
C  C71  1  0.15810000  0.40446000  0.88920000  1.0 -0.0995521027
C  C72  1  0.59554000  0.84190000  0.88920000  1.0 -0.0995521027
C  C73  1  0.17439000  0.39861000  0.92866000  1.0 -0.1311371844
C  C74  1  0.60139000  0.82561000  0.92866000  1.0 -0.1311371844
C  C75  1  0.15319000  0.39621000  0.94698000  1.0 0.1222626358
C  C76  1  0.60379000  0.84681000  0.94698000  1.0 0.1222626358
C  C77  1  0.11571000  0.39965000  0.92580000  1.0 -0.1311371844
C  C78  1  0.60035000  0.88429000  0.92580000  1.0 -0.1311371844
C  C79  1  0.09941000  0.40549000  0.88640000  1.0 -0.0995521027
C  C80  1  0.59451000  0.90059000  0.88640000  1.0 -0.0995521027
C  C81  1  0.17469000  0.39357000  0.98680000  1.0 -0.110897792
C  C82  1  0.60643000  0.82531000  0.98680000  1.0 -0.110897792
C  C83  1  0.18954000  0.39180000  0.01940000  1.0 -0.0795128031
C  C84  1  0.60820000  0.81046000  0.01940000  1.0 -0.0795128031
C  C85  1  0.21156000  0.39004000  0.05898000  1.0 0.1289641922
C  C86  1  0.60996000  0.78844000  0.05898000  1.0 0.1289641922
C  C87  1  0.25037000  0.39067000  0.07790000  1.0 -0.1973802971
C  C88  1  0.60933000  0.74963000  0.07790000  1.0 -0.1973802971
C  C89  1  0.26936000  0.38974000  0.11600000  1.0 0.1289641922
C  C90  1  0.61026000  0.73064000  0.11600000  1.0 0.1289641922
C  C91  1  0.24955000  0.38819000  0.13525000  1.0 -0.1885132856
C  C92  1  0.61181000  0.75045000  0.13525000  1.0 -0.1885132856
C  C93  1  0.21074000  0.38756000  0.11631000  1.0 0.1388937491
C  C94  1  0.61244000  0.78926000  0.11631000  1.0 0.1388937491
C  C95  1  0.19175000  0.38849000  0.07818000  1.0 -0.1803559249
C  C96  1  0.61151000  0.80825000  0.07818000  1.0 -0.1803559249
C  C97  1  0.30881000  0.39219000  0.13410000  1.0 -0.0892495236
C  C98  1  0.60781000  0.69119000  0.13410000  1.0 -0.0892495236
C  C99  1  0.34199000  0.39461000  0.14820000  1.0 -0.0892495236
C  C100  1  0.60539000  0.65801000  0.14820000  1.0 -0.0892495236
C  C101  1  0.38326000  0.39906000  0.16710000  1.0 0.1222626358
C  C102  1  0.60094000  0.61674000  0.16710000  1.0 0.1222626358
C  C103  1  0.40173000  0.40139000  0.14615000  1.0 -0.1400031228
C  C104  1  0.59861000  0.59827000  0.14615000  1.0 -0.1400031228
C  C105  1  0.44133000  0.40567000  0.16230000  1.0 -0.071977758
C  C106  1  0.59433000  0.55867000  0.16230000  1.0 -0.071977758
C  C107  1  0.46247000  0.40761000  0.19930000  1.0 -0.071977758
C  C108  1  0.59239000  0.53753000  0.19930000  1.0 -0.071977758
C  C109  1  0.44401000  0.40527000  0.22029000  1.0 -0.071977758
C  C110  1  0.59473000  0.55599000  0.22029000  1.0 -0.071977758
C  C111  1  0.40440000  0.40100000  0.20417000  1.0 -0.1400031228
C  C112  1  0.59900000  0.59560000  0.20417000  1.0 -0.1400031228
C  C113  1  0.19364000  0.38776000  0.13640000  1.0 -0.1311371844
C  C114  1  0.61224000  0.80636000  0.13640000  1.0 -0.1311371844
C  C115  1  0.17689000  0.38871000  0.15480000  1.0 -0.1311371844
C  C116  1  0.61129000  0.82311000  0.15480000  1.0 -0.1311371844
C  C117  1  0.16010000  0.39058000  0.17700000  1.0 0.1388937491
C  C118  1  0.60942000  0.83990000  0.17700000  1.0 0.1388937491
C  C119  1  0.18126000  0.39270000  0.21400000  1.0 -0.1311371844
C  C120  1  0.60730000  0.81874000  0.21400000  1.0 -0.1311371844
C  C121  1  0.16476000  0.39776000  0.23193000  1.0 -0.0795128031
C  C122  1  0.60224000  0.83524000  0.23193000  1.0 -0.0795128031
C  C123  1  0.12708000  0.40070000  0.21290000  1.0 -0.0477094275
C  C124  1  0.59930000  0.87292000  0.21290000  1.0 -0.0477094275
C  C125  1  0.10592000  0.39858000  0.17590000  1.0 -0.0795128031
C  C126  1  0.60142000  0.89408000  0.17590000  1.0 -0.0795128031
C  C127  1  0.12244000  0.39352000  0.15794000  1.0 -0.1311371844
C  C128  1  0.60648000  0.87756000  0.15794000  1.0 -0.1311371844
C  C129  1  0.10285000  0.49915000  0.74161000  1.0 0.5761110674
C  C130  1  0.50085000  0.89715000  0.74161000  1.0 0.5761110674
C  C131  1  0.12524000  0.54250000  0.73573000  1.0 -0.001649422
C  C132  1  0.45750000  0.87476000  0.73573000  1.0 -0.001649422
C  C133  1  0.15904000  0.56296000  0.72712000  1.0 -0.110897792
C  C134  1  0.43704000  0.84096000  0.72712000  1.0 -0.110897792
C  C135  1  0.17571000  0.60205000  0.72269000  1.0 -0.1400031228
C  C136  1  0.39795000  0.82429000  0.72269000  1.0 -0.1400031228
C  C137  1  0.15855000  0.62065000  0.72688000  1.0 0.1388937491
C  C138  1  0.37935000  0.84145000  0.72688000  1.0 0.1388937491
C  C139  1  0.12467000  0.60013000  0.73550000  1.0 -0.1400031228
C  C140  1  0.39987000  0.87533000  0.73550000  1.0 -0.1400031228
C  C141  1  0.10798000  0.56102000  0.73992000  1.0 -0.110897792
C  C142  1  0.43898000  0.89202000  0.73992000  1.0 -0.110897792
C  C143  1  0.17920000  0.66040000  0.72330000  1.0 -0.110897792
C  C144  1  0.33960000  0.82080000  0.72330000  1.0 -0.110897792
C  C145  1  0.19600000  0.69360000  0.72170000  1.0 -0.071977758
C  C146  1  0.30640000  0.80400000  0.72170000  1.0 -0.071977758
C  C147  1  0.25150000  0.74850000  0.72110000  1.0 -0.2283314767
C  C148  1  0.21319000  0.73361000  0.72048000  1.0 0.1388937491
C  C149  1  0.26639000  0.78681000  0.72048000  1.0 0.1388937491
C  C150  1  0.19384000  0.75236000  0.72158000  1.0 -0.1973802971
C  C151  1  0.24764000  0.80616000  0.72158000  1.0 -0.1973802971
C  C152  1  0.20930000  0.79070000  0.72260000  1.0 0.0999983299
C  C153  1  0.19210000  0.80790000  0.72530000  1.0 -0.0477094275
C  C154  1  0.17780000  0.82220000  0.72680000  1.0 -0.071977758
C  C155  1  0.16010000  0.83990000  0.73220000  1.0 0.1222626358
C  C156  1  0.12311000  0.82189000  0.73549000  1.0 -0.1400031228
C  C157  1  0.17811000  0.87689000  0.73549000  1.0 -0.1400031228
C  C158  1  0.10550000  0.83900000  0.73971000  1.0 -0.0892495236
C  C159  1  0.16100000  0.89450000  0.73971000  1.0 -0.0892495236
C  C160  1  0.12506000  0.87494000  0.74184000  1.0 -0.0325410488
C  C161  1  0.03925000  0.35635000  0.76618000  1.0 0.5694194508
C  C162  1  0.64365000  0.96075000  0.76618000  1.0 0.5694194508
C  C163  1  0.02195000  0.31545000  0.77218000  1.0 -0.071977758
C  C164  1  0.68455000  0.97805000  0.77218000  1.0 -0.071977758
C  C165  1  0.04270000  0.29378000  0.77766000  1.0 -0.071977758
C  C166  1  0.70622000  0.95730000  0.77766000  1.0 -0.071977758
C  C167  1  0.02569000  0.25451000  0.78311000  1.0 -0.1491276019
C  C168  1  0.74549000  0.97431000  0.78311000  1.0 -0.1491276019
C  C169  1  0.98794000  0.23692000  0.78308000  1.0 0.1528696535
C  C170  1  0.76308000  0.01206000  0.78308000  1.0 0.1528696535
C  C171  1  0.96720000  0.25860000  0.77760000  1.0 -0.1400031228
C  C172  1  0.74140000  0.03280000  0.77760000  1.0 -0.1400031228
C  C173  1  0.98417000  0.29783000  0.77215000  1.0 -0.071977758
C  C174  1  0.70217000  0.01583000  0.77215000  1.0 -0.071977758
C  C175  1  0.95180000  0.15980000  0.78860000  1.0 -0.110897792
C  C176  1  0.84020000  0.04820000  0.78860000  1.0 -0.110897792
C  C177  1  0.96605000  0.19295000  0.78890000  1.0 -0.110897792
C  C178  1  0.80705000  0.03395000  0.78890000  1.0 -0.110897792
C  C179  1  0.89470000  0.10530000  0.78920000  1.0 -0.169533712
C  C180  1  0.93550000  0.12130000  0.79090000  1.0 0.1289641922
C  C181  1  0.87870000  0.06450000  0.79090000  1.0 0.1289641922
C  C182  1  0.95381000  0.10119000  0.79270000  1.0 -0.1885132856
C  C183  1  0.89881000  0.04619000  0.79270000  1.0 -0.1885132856
C  C184  1  0.93590000  0.06410000  0.79550000  1.0 0.0999983299
C  C185  1  0.95450000  0.04550000  0.79550000  1.0 -0.119103969
C  C186  1  0.96970000  0.03030000  0.79410000  1.0 -0.0175757334
C  C187  1  0.98960000  0.01040000  0.79180000  1.0 0.1114572205
C  C188  1  0.97358000  0.97442000  0.78970000  1.0 -0.169533712
C  C189  1  0.02558000  0.02642000  0.78970000  1.0 -0.169533712
C  C190  1  0.99323000  0.95439000  0.78723000  1.0 -0.071977758
C  C191  1  0.04561000  0.00677000  0.78723000  1.0 -0.071977758
C  C192  1  0.02910000  0.97090000  0.78490000  1.0 -0.0477094275
C  C193  1  0.04653000  0.95347000  0.77700000  1.0 0.5694194508
C  C194  1  0.10955000  0.89045000  0.83630000  1.0 0.5761110674
C  C195  1  0.12977000  0.87023000  0.88030000  1.0 -0.001649422
C  C196  1  0.10960000  0.83290000  0.89890000  1.0 -0.0995521027
C  C197  1  0.16710000  0.89040000  0.89890000  1.0 -0.0995521027
C  C198  1  0.12645000  0.81533000  0.93730000  1.0 -0.1400031228
C  C199  1  0.18467000  0.87355000  0.93730000  1.0 -0.1400031228
C  C200  1  0.16376000  0.83624000  0.95660000  1.0 0.1528696535
C  C201  1  0.18440000  0.81560000  0.99910000  1.0 -0.0892495236
C  C202  1  0.20130000  0.79870000  0.03540000  1.0 -0.119103969
C  C203  1  0.21940000  0.78060000  0.07330000  1.0 0.1289641922
C  C204  1  0.19795000  0.74385000  0.09110000  1.0 -0.2146918887
C  C205  1  0.25615000  0.80205000  0.09110000  1.0 -0.2146918887
C  C206  1  0.21774000  0.72544000  0.12860000  1.0 0.1388937491
C  C207  1  0.27456000  0.78226000  0.12860000  1.0 0.1388937491
C  C208  1  0.25639000  0.74361000  0.15030000  1.0 -0.2496737393
C  C209  1  0.20119000  0.68321000  0.15180000  1.0 -0.0325410488
C  C210  1  0.31679000  0.79881000  0.15180000  1.0 -0.0325410488
C  C211  1  0.18779000  0.65201000  0.16920000  1.0 -0.119103969
C  C212  1  0.34799000  0.81221000  0.16920000  1.0 -0.119103969
C  C213  1  0.16985000  0.61263000  0.18490000  1.0 0.1114572205
C  C214  1  0.38737000  0.83015000  0.18490000  1.0 0.1114572205
C  C215  1  0.13277000  0.59503000  0.16398000  1.0 -0.119103969
C  C216  1  0.40497000  0.86723000  0.16398000  1.0 -0.119103969
C  C217  1  0.11511000  0.55595000  0.18050000  1.0 -0.0995521027
C  C218  1  0.44405000  0.88489000  0.18050000  1.0 -0.0995521027
C  C219  1  0.13455000  0.53451000  0.21790000  1.0 -0.001649422
C  C220  1  0.46549000  0.86545000  0.21790000  1.0 -0.001649422
C  C221  1  0.17166000  0.55214000  0.23885000  1.0 -0.0995521027
C  C222  1  0.44786000  0.82834000  0.23885000  1.0 -0.0995521027
C  C223  1  0.18930000  0.59118000  0.22240000  1.0 -0.119103969
C  C224  1  0.40882000  0.81070000  0.22240000  1.0 -0.119103969
C  C225  1  0.05009000  0.35017000  0.29290000  1.0 0.5761110674
C  C226  1  0.64983000  0.94991000  0.29290000  1.0 0.5761110674
C  C227  1  0.02927000  0.30903000  0.31060000  1.0 -0.0325410488
C  C228  1  0.69097000  0.97073000  0.31060000  1.0 -0.0325410488
C  C229  1  0.04857000  0.28561000  0.34660000  1.0 -0.0795128031
C  C230  1  0.71439000  0.95143000  0.34660000  1.0 -0.0795128031
C  C231  1  0.02832000  0.24828000  0.36425000  1.0 -0.1491276019
C  C232  1  0.75172000  0.97168000  0.36425000  1.0 -0.1491276019
C  C233  1  0.98870000  0.23432000  0.34580000  1.0 0.1528696535
C  C234  1  0.76568000  0.01130000  0.34580000  1.0 0.1528696535
C  C235  1  0.96939000  0.25773000  0.30980000  1.0 -0.169533712
C  C236  1  0.74227000  0.03061000  0.30980000  1.0 -0.169533712
C  C237  1  0.98969000  0.29511000  0.29216000  1.0 -0.0795128031
C  C238  1  0.70489000  0.01031000  0.29216000  1.0 -0.0892495236
C  C239  1  0.96820000  0.19480000  0.36650000  1.0 -0.110897792
C  C240  1  0.80520000  0.03180000  0.36650000  1.0 -0.110897792
C  C241  1  0.94969000  0.16311000  0.38040000  1.0 -0.0995521027
C  C242  1  0.83689000  0.05031000  0.38040000  1.0 -0.0995521027
C  C243  1  0.89435000  0.10565000  0.38260000  1.0 -0.1885132856
C  C244  1  0.93106000  0.12478000  0.40250000  1.0 0.1583967952
C  C245  1  0.87522000  0.06894000  0.40250000  1.0 0.1583967952
C  C246  1  0.94988000  0.10664000  0.44160000  1.0 -0.1885132856
C  C247  1  0.89336000  0.05012000  0.44160000  1.0 -0.1885132856
C  C248  1  0.93014000  0.06986000  0.46020000  1.0 0.1114572205
C  C249  1  0.95077000  0.04923000  0.50240000  1.0 0.0023201094
C  C250  1  0.96534000  0.03466000  0.53260000  1.0 -0.110897792
C  C251  1  0.98410000  0.01590000  0.57250000  1.0 0.1114572205
C  C252  1  0.02270000  0.03406000  0.59370000  1.0 -0.1400031228
C  C253  1  0.96594000  0.97730000  0.59370000  1.0 -0.1400031228
C  C254  1  0.04182000  0.01422000  0.63300000  1.0 -0.0995521027
C  C255  1  0.98578000  0.95818000  0.63300000  1.0 -0.0995521027
C  C256  1  0.02301000  0.97699000  0.65140000  1.0 -0.0079349441
C  C257  1  0.04339000  0.95661000  0.69480000  1.0 0.5694194508
C  C258  1  0.10730000  0.89270000  0.74960000  1.0 0.5888434497
C  C259  1  0.50359000  0.41383000  0.21570000  1.0 0.5603761224
C  C260  1  0.58617000  0.49641000  0.21570000  1.0 0.5603761224
C  C261  1  0.10997000  0.40671000  0.23130000  1.0 0.5603761224
C  C262  1  0.59329000  0.89003000  0.23130000  1.0 0.5603761224
C  C263  1  0.11360000  0.49160000  0.23250000  1.0 0.5694194508
C  C264  1  0.50840000  0.88640000  0.23250000  1.0 0.5694194508
C  C265  1  0.43767000  0.03959000  0.31678000  1.0 0.5603761224
C  C266  1  0.96041000  0.56233000  0.31678000  1.0 0.5603761224
C  C267  1  0.44289000  0.02117000  0.35996000  1.0 -0.0079349441
C  C268  1  0.97883000  0.55711000  0.35996000  1.0 -0.0079349441
C  C269  1  0.44274000  0.04050000  0.37858000  1.0 -0.0892495236
C  C270  1  0.95950000  0.55726000  0.37858000  1.0 -0.0892495236
C  C271  1  0.44604000  0.02234000  0.41743000  1.0 -0.1491276019
C  C272  1  0.97766000  0.55396000  0.41743000  1.0 -0.1491276019
C  C273  1  0.44951000  0.98485000  0.43767000  1.0 0.1388937491
C  C274  1  0.01515000  0.55049000  0.43767000  1.0 0.1388937491
C  C275  1  0.44967000  0.96551000  0.41906000  1.0 -0.1491276019
C  C276  1  0.03449000  0.55033000  0.41906000  1.0 -0.1491276019
C  C277  1  0.44636000  0.98366000  0.38020000  1.0 -0.0995521027
C  C278  1  0.01634000  0.55364000  0.38020000  1.0 -0.0995521027
C  C279  1  0.45029000  0.96627000  0.47790000  1.0 -0.119103969
C  C280  1  0.03373000  0.54971000  0.47790000  1.0 -0.119103969
C  C281  1  0.45261000  0.95329000  0.51110000  1.0 -0.0995521027
C  C282  1  0.04671000  0.54739000  0.51110000  1.0 -0.0995521027
C  C283  1  0.45422000  0.93784000  0.54969000  1.0 0.1388937491
C  C284  1  0.06216000  0.54578000  0.54969000  1.0 0.1388937491
C  C285  1  0.45527000  0.96131000  0.56473000  1.0 -0.169533712
C  C286  1  0.03869000  0.54473000  0.56473000  1.0 -0.169533712
C  C287  1  0.45693000  0.94661000  0.60280000  1.0 0.1583967952
C  C288  1  0.05339000  0.54307000  0.60280000  1.0 0.1583967952
C  C289  1  0.45752000  0.90842000  0.62585000  1.0 -0.169533712
C  C290  1  0.09158000  0.54248000  0.62585000  1.0 -0.169533712
C  C291  1  0.45647000  0.88495000  0.61081000  1.0 0.1289641922
C  C292  1  0.11505000  0.54353000  0.61081000  1.0 0.1289641922
C  C293  1  0.45482000  0.89966000  0.57270000  1.0 -0.1803559249
C  C294  1  0.10034000  0.54518000  0.57270000  1.0 -0.1803559249
C  C295  1  0.45644000  0.97144000  0.61778000  1.0 -0.0795128031
C  C296  1  0.02856000  0.54356000  0.61778000  1.0 -0.0795128031
C  C297  1  0.45684000  0.99202000  0.63020000  1.0 -0.119103969
C  C298  1  0.00798000  0.54316000  0.63020000  1.0 -0.119103969
C  C299  1  0.45394000  0.01194000  0.64690000  1.0 0.1388937491
C  C300  1  0.98806000  0.54606000  0.64690000  1.0 0.1388937491
C  C301  1  0.43693000  0.04205000  0.62520000  1.0 -0.1400031228
C  C302  1  0.95795000  0.56307000  0.62520000  1.0 -0.1400031228
C  C303  1  0.43169000  0.05777000  0.64380000  1.0 -0.0892495236
C  C304  1  0.94223000  0.56831000  0.64380000  1.0 -0.0892495236
C  C305  1  0.44346000  0.04338000  0.68410000  1.0 -0.0175757334
C  C306  1  0.95662000  0.55654000  0.68410000  1.0 -0.0175757334
C  C307  1  0.46048000  0.01326000  0.70582000  1.0 -0.0995521027
C  C308  1  0.98674000  0.53952000  0.70582000  1.0 -0.0995521027
C  C309  1  0.46571000  0.99755000  0.68730000  1.0 -0.1400031228
C  C310  1  0.00245000  0.53429000  0.68730000  1.0 -0.1400031228
C  C311  1  0.43443000  0.05977000  0.70220000  1.0 0.5761110674
C  C312  1  0.94023000  0.56557000  0.70220000  1.0 0.5761110674
C  C313  1  0.45602000  0.84618000  0.63510000  1.0 -0.0995521027
C  C314  1  0.15382000  0.54398000  0.63510000  1.0 -0.0995521027
C  C315  1  0.45289000  0.81311000  0.65010000  1.0 -0.0995521027
C  C316  1  0.18689000  0.54711000  0.65010000  1.0 -0.0995521027
C  C317  1  0.44738000  0.77062000  0.67260000  1.0 0.1388937491
C  C318  1  0.22938000  0.55262000  0.67260000  1.0 0.1388937491
C  C319  1  0.44539000  0.74965000  0.70968000  1.0 -0.169533712
C  C320  1  0.25035000  0.55461000  0.70968000  1.0 -0.169533712
C  C321  1  0.44066000  0.70996000  0.72580000  1.0 -0.0892495236
C  C322  1  0.29004000  0.55934000  0.72580000  1.0 -0.0892495236
C  C323  1  0.43796000  0.69124000  0.70490000  1.0 -0.0325410488
C  C324  1  0.30876000  0.56204000  0.70490000  1.0 -0.0325410488
C  C325  1  0.43995000  0.71221000  0.66780000  1.0 -0.0795128031
C  C326  1  0.28779000  0.56005000  0.66780000  1.0 -0.0795128031
C  C327  1  0.44466000  0.75190000  0.65170000  1.0 -0.1400031228
C  C328  1  0.24810000  0.55534000  0.65170000  1.0 -0.1400031228
C  C329  1  0.43182000  0.64870000  0.72220000  1.0 0.5694194508
C  C330  1  0.35130000  0.56818000  0.72220000  1.0 0.5694194508
C  C331  1  0.41508000  0.09924000  0.17687000  1.0 0.5603761224
C  C332  1  0.90076000  0.58492000  0.17687000  1.0 0.5603761224
C  C333  1  0.40790000  0.12060000  0.13193000  1.0 0.0106244514
C  C334  1  0.87940000  0.59210000  0.13193000  1.0 0.0106244514
C  C335  1  0.40446000  0.15810000  0.11080000  1.0 -0.0995521027
C  C336  1  0.84190000  0.59554000  0.11080000  1.0 -0.0995521027
C  C337  1  0.39861000  0.17439000  0.07134000  1.0 -0.1311371844
C  C338  1  0.82561000  0.60139000  0.07134000  1.0 -0.1311371844
C  C339  1  0.39621000  0.15319000  0.05302000  1.0 0.1222626358
C  C340  1  0.84681000  0.60379000  0.05302000  1.0 0.1222626358
C  C341  1  0.39965000  0.11571000  0.07420000  1.0 -0.1311371844
C  C342  1  0.88429000  0.60035000  0.07420000  1.0 -0.1311371844
C  C343  1  0.40549000  0.09941000  0.11360000  1.0 -0.0995521027
C  C344  1  0.90059000  0.59451000  0.11360000  1.0 -0.0995521027
C  C345  1  0.39357000  0.17469000  0.01320000  1.0 -0.110897792
C  C346  1  0.82531000  0.60643000  0.01320000  1.0 -0.110897792
C  C347  1  0.39180000  0.18954000  0.98060000  1.0 -0.071977758
C  C348  1  0.81046000  0.60820000  0.98060000  1.0 -0.071977758
C  C349  1  0.39004000  0.21156000  0.94102000  1.0 0.1289641922
C  C350  1  0.78844000  0.60996000  0.94102000  1.0 0.1289641922
C  C351  1  0.39067000  0.25037000  0.92210000  1.0 -0.1973802971
C  C352  1  0.74963000  0.60933000  0.92210000  1.0 -0.1973802971
C  C353  1  0.38974000  0.26936000  0.88400000  1.0 0.1289641922
C  C354  1  0.73064000  0.61026000  0.88400000  1.0 0.1289641922
C  C355  1  0.38819000  0.24955000  0.86475000  1.0 -0.1885132856
C  C356  1  0.75045000  0.61181000  0.86475000  1.0 -0.1885132856
C  C357  1  0.38756000  0.21074000  0.88369000  1.0 0.1388937491
C  C358  1  0.78926000  0.61244000  0.88369000  1.0 0.1388937491
C  C359  1  0.38849000  0.19175000  0.92182000  1.0 -0.1803559249
C  C360  1  0.80825000  0.61151000  0.92182000  1.0 -0.1803559249
C  C361  1  0.39219000  0.30881000  0.86590000  1.0 -0.0892495236
C  C362  1  0.69119000  0.60781000  0.86590000  1.0 -0.0892495236
C  C363  1  0.39461000  0.34199000  0.85180000  1.0 -0.0892495236
C  C364  1  0.65801000  0.60539000  0.85180000  1.0 -0.0892495236
C  C365  1  0.39906000  0.38326000  0.83290000  1.0 0.1222626358
C  C366  1  0.61674000  0.60094000  0.83290000  1.0 0.1222626358
C  C367  1  0.40139000  0.40173000  0.85385000  1.0 -0.1400031228
C  C368  1  0.59827000  0.59861000  0.85385000  1.0 -0.1400031228
C  C369  1  0.40567000  0.44133000  0.83770000  1.0 -0.071977758
C  C370  1  0.55867000  0.59433000  0.83770000  1.0 -0.071977758
C  C371  1  0.40761000  0.46247000  0.80070000  1.0 -0.071977758
C  C372  1  0.53753000  0.59239000  0.80070000  1.0 -0.071977758
C  C373  1  0.40527000  0.44401000  0.77971000  1.0 -0.071977758
C  C374  1  0.55599000  0.59473000  0.77971000  1.0 -0.071977758
C  C375  1  0.40100000  0.40440000  0.79583000  1.0 -0.1400031228
C  C376  1  0.59560000  0.59900000  0.79583000  1.0 -0.1400031228
C  C377  1  0.38776000  0.19364000  0.86360000  1.0 -0.1311371844
C  C378  1  0.80636000  0.61224000  0.86360000  1.0 -0.1311371844
C  C379  1  0.38871000  0.17689000  0.84520000  1.0 -0.1311371844
C  C380  1  0.82311000  0.61129000  0.84520000  1.0 -0.1311371844
C  C381  1  0.39058000  0.16010000  0.82300000  1.0 0.1388937491
C  C382  1  0.83990000  0.60942000  0.82300000  1.0 0.1388937491
C  C383  1  0.39270000  0.18126000  0.78600000  1.0 -0.1311371844
C  C384  1  0.81874000  0.60730000  0.78600000  1.0 -0.1311371844
C  C385  1  0.39776000  0.16476000  0.76807000  1.0 -0.0795128031
C  C386  1  0.83524000  0.60224000  0.76807000  1.0 -0.0795128031
C  C387  1  0.40070000  0.12708000  0.78710000  1.0 -0.0477094275
C  C388  1  0.87292000  0.59930000  0.78710000  1.0 -0.0477094275
C  C389  1  0.39858000  0.10592000  0.82410000  1.0 -0.0795128031
C  C390  1  0.89408000  0.60142000  0.82410000  1.0 -0.0795128031
C  C391  1  0.39352000  0.12244000  0.84206000  1.0 -0.1311371844
C  C392  1  0.87756000  0.60648000  0.84206000  1.0 -0.1311371844
C  C393  1  0.49915000  0.10285000  0.25839000  1.0 0.5761110674
C  C394  1  0.89715000  0.50085000  0.25839000  1.0 0.5761110674
C  C395  1  0.54250000  0.12524000  0.26427000  1.0 -0.001649422
C  C396  1  0.87476000  0.45750000  0.26427000  1.0 -0.001649422
C  C397  1  0.56296000  0.15904000  0.27288000  1.0 -0.110897792
C  C398  1  0.84096000  0.43704000  0.27288000  1.0 -0.110897792
C  C399  1  0.60205000  0.17571000  0.27731000  1.0 -0.1400031228
C  C400  1  0.82429000  0.39795000  0.27731000  1.0 -0.1400031228
C  C401  1  0.62065000  0.15855000  0.27312000  1.0 0.1388937491
C  C402  1  0.84145000  0.37935000  0.27312000  1.0 0.1388937491
C  C403  1  0.60013000  0.12467000  0.26450000  1.0 -0.1400031228
C  C404  1  0.87533000  0.39987000  0.26450000  1.0 -0.1400031228
C  C405  1  0.56102000  0.10798000  0.26008000  1.0 -0.110897792
C  C406  1  0.89202000  0.43898000  0.26008000  1.0 -0.110897792
C  C407  1  0.66040000  0.17920000  0.27670000  1.0 -0.110897792
C  C408  1  0.82080000  0.33960000  0.27670000  1.0 -0.110897792
C  C409  1  0.69360000  0.19600000  0.27830000  1.0 -0.071977758
C  C410  1  0.80400000  0.30640000  0.27830000  1.0 -0.071977758
C  C411  1  0.74850000  0.25150000  0.27890000  1.0 -0.2283314767
C  C412  1  0.73361000  0.21319000  0.27952000  1.0 0.1388937491
C  C413  1  0.78681000  0.26639000  0.27952000  1.0 0.1388937491
C  C414  1  0.75236000  0.19384000  0.27842000  1.0 -0.1973802971
C  C415  1  0.80616000  0.24764000  0.27842000  1.0 -0.1973802971
C  C416  1  0.79070000  0.20930000  0.27740000  1.0 0.0999983299
C  C417  1  0.80790000  0.19210000  0.27470000  1.0 -0.0477094275
C  C418  1  0.82220000  0.17780000  0.27320000  1.0 -0.071977758
C  C419  1  0.83990000  0.16010000  0.26780000  1.0 0.1222626358
C  C420  1  0.82189000  0.12311000  0.26451000  1.0 -0.1400031228
C  C421  1  0.87689000  0.17811000  0.26451000  1.0 -0.1400031228
C  C422  1  0.83900000  0.10550000  0.26029000  1.0 -0.0892495236
C  C423  1  0.89450000  0.16100000  0.26029000  1.0 -0.0892495236
C  C424  1  0.87494000  0.12506000  0.25816000  1.0 -0.0325410488
C  C425  1  0.35635000  0.03925000  0.23382000  1.0 0.5694194508
C  C426  1  0.96075000  0.64365000  0.23382000  1.0 0.5694194508
C  C427  1  0.31545000  0.02195000  0.22782000  1.0 -0.071977758
C  C428  1  0.97805000  0.68455000  0.22782000  1.0 -0.071977758
C  C429  1  0.29378000  0.04270000  0.22234000  1.0 -0.071977758
C  C430  1  0.95730000  0.70622000  0.22234000  1.0 -0.071977758
C  C431  1  0.25451000  0.02569000  0.21689000  1.0 -0.1491276019
C  C432  1  0.97431000  0.74549000  0.21689000  1.0 -0.1491276019
C  C433  1  0.23692000  0.98794000  0.21692000  1.0 0.1528696535
C  C434  1  0.01206000  0.76308000  0.21692000  1.0 0.1528696535
C  C435  1  0.25860000  0.96720000  0.22240000  1.0 -0.1400031228
C  C436  1  0.03280000  0.74140000  0.22240000  1.0 -0.1400031228
C  C437  1  0.29783000  0.98417000  0.22785000  1.0 -0.071977758
C  C438  1  0.01583000  0.70217000  0.22785000  1.0 -0.071977758
C  C439  1  0.15980000  0.95180000  0.21140000  1.0 -0.110897792
C  C440  1  0.04820000  0.84020000  0.21140000  1.0 -0.110897792
C  C441  1  0.19295000  0.96605000  0.21110000  1.0 -0.110897792
C  C442  1  0.03395000  0.80705000  0.21110000  1.0 -0.110897792
C  C443  1  0.10530000  0.89470000  0.21080000  1.0 -0.1803559249
C  C444  1  0.12130000  0.93550000  0.20910000  1.0 0.1388937491
C  C445  1  0.06450000  0.87870000  0.20910000  1.0 0.1388937491
C  C446  1  0.10119000  0.95381000  0.20730000  1.0 -0.1885132856
C  C447  1  0.04619000  0.89881000  0.20730000  1.0 -0.1885132856
C  C448  1  0.06410000  0.93590000  0.20450000  1.0 0.1114572205
C  C449  1  0.04550000  0.95450000  0.20450000  1.0 -0.119103969
C  C450  1  0.03030000  0.96970000  0.20590000  1.0 -0.0175757334
C  C451  1  0.01040000  0.98960000  0.20820000  1.0 0.1114572205
C  C452  1  0.97442000  0.97358000  0.21030000  1.0 -0.169533712
C  C453  1  0.02642000  0.02558000  0.21030000  1.0 -0.169533712
C  C454  1  0.95439000  0.99323000  0.21277000  1.0 -0.071977758
C  C455  1  0.00677000  0.04561000  0.21277000  1.0 -0.071977758
C  C456  1  0.97090000  0.02910000  0.21510000  1.0 -0.0448778758
C  C457  1  0.95347000  0.04653000  0.22300000  1.0 0.5694194508
C  C458  1  0.89045000  0.10955000  0.16370000  1.0 0.5761110674
C  C459  1  0.87023000  0.12977000  0.11970000  1.0 -0.001649422
C  C460  1  0.83290000  0.10960000  0.10110000  1.0 -0.0995521027
C  C461  1  0.89040000  0.16710000  0.10110000  1.0 -0.0995521027
C  C462  1  0.81533000  0.12645000  0.06270000  1.0 -0.1311371844
C  C463  1  0.87355000  0.18467000  0.06270000  1.0 -0.1400031228
C  C464  1  0.83624000  0.16376000  0.04340000  1.0 0.1528696535
C  C465  1  0.81560000  0.18440000  0.00090000  1.0 -0.0995521027
C  C466  1  0.79870000  0.20130000  0.96460000  1.0 -0.119103969
C  C467  1  0.78060000  0.21940000  0.92670000  1.0 0.1289641922
C  C468  1  0.74385000  0.19795000  0.90890000  1.0 -0.2146918887
C  C469  1  0.80205000  0.25615000  0.90890000  1.0 -0.2146918887
C  C470  1  0.72544000  0.21774000  0.87140000  1.0 0.1388937491
C  C471  1  0.78226000  0.27456000  0.87140000  1.0 0.1388937491
C  C472  1  0.74361000  0.25639000  0.84970000  1.0 -0.2496737393
C  C473  1  0.68321000  0.20119000  0.84820000  1.0 -0.0325410488
C  C474  1  0.79881000  0.31679000  0.84820000  1.0 -0.0325410488
C  C475  1  0.65201000  0.18779000  0.83080000  1.0 -0.110897792
C  C476  1  0.81221000  0.34799000  0.83080000  1.0 -0.110897792
C  C477  1  0.61263000  0.16985000  0.81510000  1.0 0.1114572205
C  C478  1  0.83015000  0.38737000  0.81510000  1.0 0.1114572205
C  C479  1  0.59503000  0.13277000  0.83602000  1.0 -0.119103969
C  C480  1  0.86723000  0.40497000  0.83602000  1.0 -0.119103969
C  C481  1  0.55595000  0.11511000  0.81950000  1.0 -0.0995521027
C  C482  1  0.88489000  0.44405000  0.81950000  1.0 -0.0995521027
C  C483  1  0.53451000  0.13455000  0.78210000  1.0 -0.001649422
C  C484  1  0.86545000  0.46549000  0.78210000  1.0 -0.001649422
C  C485  1  0.55214000  0.17166000  0.76115000  1.0 -0.0995521027
C  C486  1  0.82834000  0.44786000  0.76115000  1.0 -0.0995521027
C  C487  1  0.59118000  0.18930000  0.77760000  1.0 -0.119103969
C  C488  1  0.81070000  0.40882000  0.77760000  1.0 -0.119103969
C  C489  1  0.35017000  0.05009000  0.70710000  1.0 0.5761110674
C  C490  1  0.94991000  0.64983000  0.70710000  1.0 0.5761110674
C  C491  1  0.30903000  0.02927000  0.68940000  1.0 -0.0325410488
C  C492  1  0.97073000  0.69097000  0.68940000  1.0 -0.0325410488
C  C493  1  0.28561000  0.04857000  0.65340000  1.0 -0.0795128031
C  C494  1  0.95143000  0.71439000  0.65340000  1.0 -0.0795128031
C  C495  1  0.24828000  0.02832000  0.63575000  1.0 -0.1491276019
C  C496  1  0.97168000  0.75172000  0.63575000  1.0 -0.1491276019
C  C497  1  0.23432000  0.98870000  0.65420000  1.0 0.1528696535
C  C498  1  0.01130000  0.76568000  0.65420000  1.0 0.1528696535
C  C499  1  0.25773000  0.96939000  0.69020000  1.0 -0.169533712
C  C500  1  0.03061000  0.74227000  0.69020000  1.0 -0.169533712
C  C501  1  0.29511000  0.98969000  0.70784000  1.0 -0.0795128031
C  C502  1  0.01031000  0.70489000  0.70784000  1.0 -0.0892495236
C  C503  1  0.19480000  0.96820000  0.63350000  1.0 -0.110897792
C  C504  1  0.03180000  0.80520000  0.63350000  1.0 -0.110897792
C  C505  1  0.16311000  0.94969000  0.61960000  1.0 -0.0995521027
C  C506  1  0.05031000  0.83689000  0.61960000  1.0 -0.0995521027
C  C507  1  0.10565000  0.89435000  0.61740000  1.0 -0.1885132856
C  C508  1  0.12478000  0.93106000  0.59750000  1.0 0.1583967952
C  C509  1  0.06894000  0.87522000  0.59750000  1.0 0.1583967952
C  C510  1  0.10664000  0.94988000  0.55840000  1.0 -0.1885132856
C  C511  1  0.05012000  0.89336000  0.55840000  1.0 -0.1885132856
C  C512  1  0.06986000  0.93014000  0.53980000  1.0 0.1114572205
C  C513  1  0.04923000  0.95077000  0.49760000  1.0 0.0023201094
C  C514  1  0.03466000  0.96534000  0.46740000  1.0 -0.110897792
C  C515  1  0.01590000  0.98410000  0.42750000  1.0 0.1114572205
C  C516  1  0.03406000  0.02270000  0.40630000  1.0 -0.1400031228
C  C517  1  0.97730000  0.96594000  0.40630000  1.0 -0.1400031228
C  C518  1  0.01422000  0.04182000  0.36700000  1.0 -0.0995521027
C  C519  1  0.95818000  0.98578000  0.36700000  1.0 -0.0995521027
C  C520  1  0.97699000  0.02301000  0.34860000  1.0 -0.0079349441
C  C521  1  0.95661000  0.04339000  0.30520000  1.0 0.5694194508
C  C522  1  0.89270000  0.10730000  0.25040000  1.0 0.5888434497
C  C523  1  0.41383000  0.50359000  0.78430000  1.0 0.5603761224
C  C524  1  0.49641000  0.58617000  0.78430000  1.0 0.5603761224
C  C525  1  0.40671000  0.10997000  0.76870000  1.0 0.5603761224
C  C526  1  0.89003000  0.59329000  0.76870000  1.0 0.5603761224
C  C527  1  0.49160000  0.11360000  0.76750000  1.0 0.5694194508
C  C528  1  0.88640000  0.50840000  0.76750000  1.0 0.5694194508
O  O1  1  0.07336000  0.43264000  0.69949000  1.0 -0.5193818785
O  O2  1  0.56736000  0.92664000  0.69949000  1.0 -0.5193818785
O  O3  1  0.02142000  0.44078000  0.69721000  1.0 -0.5114630612
O  O4  1  0.55922000  0.97858000  0.69721000  1.0 -0.5114630612
O  O5  1  0.12234000  0.41662000  0.80964000  1.0 -0.5403641315
O  O6  1  0.58338000  0.87766000  0.80964000  1.0 -0.5403641315
O  O7  1  0.06629000  0.41737000  0.80855000  1.0 -0.4729399981
O  O8  1  0.58263000  0.93371000  0.80855000  1.0 -0.4729399981
O  O9  1  0.12113000  0.48169000  0.74140000  1.0 -0.5193818785
O  O10  1  0.51831000  0.87887000  0.74140000  1.0 -0.5193818785
O  O11  1  0.07019000  0.48489000  0.74475000  1.0 -0.5193818785
O  O12  1  0.51511000  0.92981000  0.74475000  1.0 -0.5193818785
O  O13  1  0.07345000  0.36833000  0.76712000  1.0 -0.4988189789
O  O14  1  0.63167000  0.92655000  0.76712000  1.0 -0.4988189789
O  O15  1  0.01982000  0.37416000  0.76184000  1.0 -0.4775797205
O  O16  1  0.62584000  0.98018000  0.76184000  1.0 -0.4775797205
O  O17  1  0.09246000  0.42572000  0.31799000  1.0 -0.5300053509
O  O18  1  0.57428000  0.90754000  0.31799000  1.0 -0.5300053509
O  O19  1  0.04080000  0.43842000  0.26196000  1.0 -0.5300053509
O  O20  1  0.56158000  0.95920000  0.26196000  1.0 -0.5300053509
O  O21  1  0.08568000  0.36082000  0.31258000  1.0 -0.5193818785
O  O22  1  0.63918000  0.91432000  0.31258000  1.0 -0.5193818785
O  O23  1  0.03122000  0.36904000  0.26109000  1.0 -0.4892928503
O  O24  1  0.63096000  0.96878000  0.26109000  1.0 -0.4892928503
O  O25  1  0.63289000  0.43113000  0.24400000  1.0 -0.5114630612
O  O26  1  0.56887000  0.36711000  0.24400000  1.0 -0.5114630612
O  O27  1  0.63295000  0.43123000  0.29698000  1.0 -0.5193818785
O  O28  1  0.56877000  0.36705000  0.29698000  1.0 -0.5193818785
O  O29  1  0.02469000  0.92247000  0.70972000  1.0 -0.5114630612
O  O30  1  0.07753000  0.97531000  0.70972000  1.0 -0.5114630612
O  O31  1  0.07520000  0.87282000  0.81905000  1.0 -0.5193818785
O  O32  1  0.12718000  0.92480000  0.81905000  1.0 -0.5193818785
O  O33  1  0.02841000  0.91911000  0.77779000  1.0 -0.4988189789
O  O34  1  0.08089000  0.97159000  0.77779000  1.0 -0.4988189789
O  O35  1  0.07324000  0.87506000  0.75248000  1.0 -0.5300053509
O  O36  1  0.12494000  0.92676000  0.75248000  1.0 -0.5300053509
O  O37  1  0.52027000  0.41455000  0.19713000  1.0 -0.5114630612
O  O38  1  0.58545000  0.47973000  0.19713000  1.0 -0.5114630612
O  O39  1  0.52073000  0.41399000  0.24929000  1.0 -0.4892928503
O  O40  1  0.58601000  0.47927000  0.24929000  1.0 -0.4892928503
O  O41  1  0.13278000  0.40760000  0.26685000  1.0 -0.5403641315
O  O42  1  0.59240000  0.86722000  0.26685000  1.0 -0.5403641315
O  O43  1  0.07621000  0.40979000  0.21517000  1.0 -0.4892928503
O  O44  1  0.59021000  0.92379000  0.21517000  1.0 -0.4892928503
O  O45  1  0.13431000  0.47373000  0.26840000  1.0 -0.555350438
O  O46  1  0.52627000  0.86569000  0.26840000  1.0 -0.555350438
O  O47  1  0.08197000  0.47711000  0.21358000  1.0 -0.4514469655
O  O48  1  0.52289000  0.91803000  0.21358000  1.0 -0.4514469655
O  O49  1  0.43264000  0.07336000  0.30051000  1.0 -0.5193818785
O  O50  1  0.92664000  0.56736000  0.30051000  1.0 -0.5193818785
O  O51  1  0.44078000  0.02142000  0.30279000  1.0 -0.5114630612
O  O52  1  0.97858000  0.55922000  0.30279000  1.0 -0.5114630612
O  O53  1  0.41662000  0.12234000  0.19036000  1.0 -0.5403641315
O  O54  1  0.87766000  0.58338000  0.19036000  1.0 -0.5403641315
O  O55  1  0.41737000  0.06629000  0.19145000  1.0 -0.4729399981
O  O56  1  0.93371000  0.58263000  0.19145000  1.0 -0.4729399981
O  O57  1  0.48169000  0.12113000  0.25860000  1.0 -0.5193818785
O  O58  1  0.87887000  0.51831000  0.25860000  1.0 -0.5193818785
O  O59  1  0.48489000  0.07019000  0.25525000  1.0 -0.5193818785
O  O60  1  0.92981000  0.51511000  0.25525000  1.0 -0.5193818785
O  O61  1  0.36833000  0.07345000  0.23288000  1.0 -0.4988189789
O  O62  1  0.92655000  0.63167000  0.23288000  1.0 -0.4988189789
O  O63  1  0.37416000  0.01982000  0.23816000  1.0 -0.4775797205
O  O64  1  0.98018000  0.62584000  0.23816000  1.0 -0.4775797205
O  O65  1  0.42572000  0.09246000  0.68201000  1.0 -0.5300053509
O  O66  1  0.90754000  0.57428000  0.68201000  1.0 -0.5300053509
O  O67  1  0.43842000  0.04080000  0.73804000  1.0 -0.5300053509
O  O68  1  0.95920000  0.56158000  0.73804000  1.0 -0.5300053509
O  O69  1  0.36082000  0.08568000  0.68742000  1.0 -0.5193818785
O  O70  1  0.91432000  0.63918000  0.68742000  1.0 -0.5193818785
O  O71  1  0.36904000  0.03122000  0.73891000  1.0 -0.4892928503
O  O72  1  0.96878000  0.63096000  0.73891000  1.0 -0.4892928503
O  O73  1  0.43113000  0.63289000  0.75600000  1.0 -0.5114630612
O  O74  1  0.36711000  0.56887000  0.75600000  1.0 -0.5114630612
O  O75  1  0.43123000  0.63295000  0.70302000  1.0 -0.5193818785
O  O76  1  0.36705000  0.56877000  0.70302000  1.0 -0.5193818785
O  O77  1  0.92247000  0.02469000  0.29028000  1.0 -0.5114630612
O  O78  1  0.97531000  0.07753000  0.29028000  1.0 -0.5114630612
O  O79  1  0.87282000  0.07520000  0.18095000  1.0 -0.5193818785
O  O80  1  0.92480000  0.12718000  0.18095000  1.0 -0.5193818785
O  O81  1  0.91911000  0.02841000  0.22221000  1.0 -0.4988189789
O  O82  1  0.97159000  0.08089000  0.22221000  1.0 -0.4988189789
O  O83  1  0.87506000  0.07324000  0.24752000  1.0 -0.5300053509
O  O84  1  0.92676000  0.12494000  0.24752000  1.0 -0.5300053509
O  O85  1  0.41455000  0.52027000  0.80287000  1.0 -0.5114630612
O  O86  1  0.47973000  0.58545000  0.80287000  1.0 -0.5114630612
O  O87  1  0.41399000  0.52073000  0.75071000  1.0 -0.4892928503
O  O88  1  0.47927000  0.58601000  0.75071000  1.0 -0.4892928503
O  O89  1  0.40760000  0.13278000  0.73315000  1.0 -0.5403641315
O  O90  1  0.86722000  0.59240000  0.73315000  1.0 -0.5403641315
O  O91  1  0.40979000  0.07621000  0.78483000  1.0 -0.4892928503
O  O92  1  0.92379000  0.59021000  0.78483000  1.0 -0.4892928503
O  O93  1  0.47373000  0.13431000  0.73160000  1.0 -0.555350438
O  O94  1  0.86569000  0.52627000  0.73160000  1.0 -0.555350438
O  O95  1  0.47711000  0.08197000  0.78642000  1.0 -0.4514469655
O  O96  1  0.91803000  0.52289000  0.78642000  1.0 -0.4514469655
