# DDEC6 charges by PACMAN v1.1 (https://github.com/mtap-research/PACMAN-charge/)
data_QIYDIN_ASR_pacman
_symmetry_space_group_name_H-M   'P 1'
_cell_length_a   34.34600000
_cell_length_b   34.34600000
_cell_length_c   34.34600000
_cell_angle_alpha   90.00000000
_cell_angle_beta   90.00000000
_cell_angle_gamma   90.00000000
_symmetry_Int_Tables_number   1
_chemical_formula_structural   CuH10(C11O2)2
_chemical_formula_sum   'Cu12 H120 C264 O48'
_cell_volume   40516.18045374
_cell_formula_units_Z   12
loop_
 _symmetry_equiv_pos_site_id
 _symmetry_equiv_pos_as_xyz
  1  'x, y, z'
loop_
 _atom_site_type_symbol
 _atom_site_label
 _atom_site_symmetry_multiplicity
 _atom_site_fract_x
 _atom_site_fract_y
 _atom_site_fract_z
 _atom_site_occupancy
 _atom_site_charge
Cu  Cu1  1  0.16637000  0.00000000  0.50000000  1.0 0.8471116065
Cu  Cu2  1  0.83363000  0.00000000  0.50000000  1.0 0.8471116065
Cu  Cu3  1  0.50000000  0.16637000  0.00000000  1.0 0.8471116065
Cu  Cu4  1  0.50000000  0.83363000  0.00000000  1.0 0.8471116065
Cu  Cu5  1  0.00000000  0.50000000  0.16637000  1.0 0.8471116065
Cu  Cu6  1  0.00000000  0.50000000  0.83363000  1.0 0.8471116065
Cu  Cu7  1  0.24283000  0.00000000  0.50000000  1.0 0.8700431028
Cu  Cu8  1  0.75717000  0.00000000  0.50000000  1.0 0.8700431028
Cu  Cu9  1  0.50000000  0.24283000  0.00000000  1.0 0.8700431028
Cu  Cu10  1  0.50000000  0.75717000  0.00000000  1.0 0.8700431028
Cu  Cu11  1  0.00000000  0.50000000  0.24283000  1.0 0.8700431028
Cu  Cu12  1  0.00000000  0.50000000  0.75717000  1.0 0.8700431028
H  H1  1  0.26430000  0.07660000  0.59520000  1.0 0.1217786187
H  H2  1  0.73570000  0.92340000  0.59520000  1.0 0.1217786187
H  H3  1  0.73570000  0.07660000  0.40480000  1.0 0.1217786187
H  H4  1  0.26430000  0.92340000  0.40480000  1.0 0.1217786187
H  H5  1  0.59520000  0.26430000  0.07660000  1.0 0.1217786187
H  H6  1  0.59520000  0.73570000  0.92340000  1.0 0.1217786187
H  H7  1  0.40480000  0.73570000  0.07660000  1.0 0.1217786187
H  H8  1  0.40480000  0.26430000  0.92340000  1.0 0.1217786187
H  H9  1  0.07660000  0.59520000  0.26430000  1.0 0.1217786187
H  H10  1  0.92340000  0.59520000  0.73570000  1.0 0.1217786187
H  H11  1  0.07660000  0.40480000  0.73570000  1.0 0.1217786187
H  H12  1  0.92340000  0.40480000  0.26430000  1.0 0.1217786187
H  H13  1  0.73570000  0.92340000  0.40480000  1.0 0.1217786187
H  H14  1  0.26430000  0.07660000  0.40480000  1.0 0.1217786187
H  H15  1  0.26430000  0.92340000  0.59520000  1.0 0.1217786187
H  H16  1  0.73570000  0.07660000  0.59520000  1.0 0.1217786187
H  H17  1  0.40480000  0.73570000  0.92340000  1.0 0.1217786187
H  H18  1  0.40480000  0.26430000  0.07660000  1.0 0.1217786187
H  H19  1  0.59520000  0.26430000  0.92340000  1.0 0.1217786187
H  H20  1  0.59520000  0.73570000  0.07660000  1.0 0.1217786187
H  H21  1  0.92340000  0.40480000  0.73570000  1.0 0.1217786187
H  H22  1  0.07660000  0.40480000  0.26430000  1.0 0.1217786187
H  H23  1  0.92340000  0.59520000  0.26430000  1.0 0.1217786187
H  H24  1  0.07660000  0.59520000  0.73570000  1.0 0.1217786187
H  H25  1  0.26560000  0.11760000  0.64930000  1.0 0.1217786187
H  H26  1  0.73440000  0.88240000  0.64930000  1.0 0.1217786187
H  H27  1  0.73440000  0.11760000  0.35070000  1.0 0.1217786187
H  H28  1  0.26560000  0.88240000  0.35070000  1.0 0.1217786187
H  H29  1  0.64930000  0.26560000  0.11760000  1.0 0.1217786187
H  H30  1  0.64930000  0.73440000  0.88240000  1.0 0.1217786187
H  H31  1  0.35070000  0.73440000  0.11760000  1.0 0.1217786187
H  H32  1  0.35070000  0.26560000  0.88240000  1.0 0.1217786187
H  H33  1  0.11760000  0.64930000  0.26560000  1.0 0.1217786187
H  H34  1  0.88240000  0.64930000  0.73440000  1.0 0.1217786187
H  H35  1  0.11760000  0.35070000  0.73440000  1.0 0.1217786187
H  H36  1  0.88240000  0.35070000  0.26560000  1.0 0.1217786187
H  H37  1  0.73440000  0.88240000  0.35070000  1.0 0.1217786187
H  H38  1  0.26560000  0.11760000  0.35070000  1.0 0.1217786187
H  H39  1  0.26560000  0.88240000  0.64930000  1.0 0.1217786187
H  H40  1  0.73440000  0.11760000  0.64930000  1.0 0.1217786187
H  H41  1  0.35070000  0.73440000  0.88240000  1.0 0.1217786187
H  H42  1  0.35070000  0.26560000  0.11760000  1.0 0.1217786187
H  H43  1  0.64930000  0.26560000  0.88240000  1.0 0.1217786187
H  H44  1  0.64930000  0.73440000  0.11760000  1.0 0.1217786187
H  H45  1  0.88240000  0.35070000  0.73440000  1.0 0.1217786187
H  H46  1  0.11760000  0.35070000  0.26560000  1.0 0.1217786187
H  H47  1  0.88240000  0.64930000  0.26560000  1.0 0.1217786187
H  H48  1  0.11760000  0.64930000  0.73440000  1.0 0.1217786187
H  H49  1  0.14860000  0.12730000  0.64470000  1.0 0.1217786187
H  H50  1  0.85140000  0.87270000  0.64470000  1.0 0.1217786187
H  H51  1  0.85140000  0.12730000  0.35530000  1.0 0.1217786187
H  H52  1  0.14860000  0.87270000  0.35530000  1.0 0.1217786187
H  H53  1  0.64470000  0.14860000  0.12730000  1.0 0.1217786187
H  H54  1  0.64470000  0.85140000  0.87270000  1.0 0.1217786187
H  H55  1  0.35530000  0.85140000  0.12730000  1.0 0.1217786187
H  H56  1  0.35530000  0.14860000  0.87270000  1.0 0.1217786187
H  H57  1  0.12730000  0.64470000  0.14860000  1.0 0.1217786187
H  H58  1  0.87270000  0.64470000  0.85140000  1.0 0.1217786187
H  H59  1  0.12730000  0.35530000  0.85140000  1.0 0.1217786187
H  H60  1  0.87270000  0.35530000  0.14860000  1.0 0.1217786187
H  H61  1  0.85140000  0.87270000  0.35530000  1.0 0.1217786187
H  H62  1  0.14860000  0.12730000  0.35530000  1.0 0.1217786187
H  H63  1  0.14860000  0.87270000  0.64470000  1.0 0.1217786187
H  H64  1  0.85140000  0.12730000  0.64470000  1.0 0.1217786187
H  H65  1  0.35530000  0.85140000  0.87270000  1.0 0.1217786187
H  H66  1  0.35530000  0.14860000  0.12730000  1.0 0.1217786187
H  H67  1  0.64470000  0.14860000  0.87270000  1.0 0.1217786187
H  H68  1  0.64470000  0.85140000  0.12730000  1.0 0.1217786187
H  H69  1  0.87270000  0.35530000  0.85140000  1.0 0.1217786187
H  H70  1  0.12730000  0.35530000  0.14860000  1.0 0.1217786187
H  H71  1  0.87270000  0.64470000  0.14860000  1.0 0.1217786187
H  H72  1  0.12730000  0.64470000  0.85140000  1.0 0.1217786187
H  H73  1  0.14730000  0.08630000  0.59060000  1.0 0.1281292166
H  H74  1  0.85270000  0.91370000  0.59060000  1.0 0.1281292166
H  H75  1  0.85270000  0.08630000  0.40940000  1.0 0.1281292166
H  H76  1  0.14730000  0.91370000  0.40940000  1.0 0.1281292166
H  H77  1  0.59060000  0.14730000  0.08630000  1.0 0.1281292166
H  H78  1  0.59060000  0.85270000  0.91370000  1.0 0.1281292166
H  H79  1  0.40940000  0.85270000  0.08630000  1.0 0.1281292166
H  H80  1  0.40940000  0.14730000  0.91370000  1.0 0.1281292166
H  H81  1  0.08630000  0.59060000  0.14730000  1.0 0.1281292166
H  H82  1  0.91370000  0.59060000  0.85270000  1.0 0.1281292166
H  H83  1  0.08630000  0.40940000  0.85270000  1.0 0.1281292166
H  H84  1  0.91370000  0.40940000  0.14730000  1.0 0.1281292166
H  H85  1  0.85270000  0.91370000  0.40940000  1.0 0.1281292166
H  H86  1  0.14730000  0.08630000  0.40940000  1.0 0.1281292166
H  H87  1  0.14730000  0.91370000  0.59060000  1.0 0.1281292166
H  H88  1  0.85270000  0.08630000  0.59060000  1.0 0.1281292166
H  H89  1  0.40940000  0.85270000  0.91370000  1.0 0.1281292166
H  H90  1  0.40940000  0.14730000  0.08630000  1.0 0.1281292166
H  H91  1  0.59060000  0.14730000  0.91370000  1.0 0.1281292166
H  H92  1  0.59060000  0.85270000  0.08630000  1.0 0.1281292166
H  H93  1  0.91370000  0.40940000  0.85270000  1.0 0.1281292166
H  H94  1  0.08630000  0.40940000  0.14730000  1.0 0.1281292166
H  H95  1  0.91370000  0.59060000  0.14730000  1.0 0.1281292166
H  H96  1  0.08630000  0.59060000  0.85270000  1.0 0.1281292166
H  H97  1  0.16830000  0.22630000  0.73840000  1.0 0.1137201825
H  H98  1  0.83170000  0.77370000  0.73840000  1.0 0.1137201825
H  H99  1  0.83170000  0.22630000  0.26160000  1.0 0.1137201825
H  H100  1  0.16830000  0.77370000  0.26160000  1.0 0.1137201825
H  H101  1  0.73840000  0.16830000  0.22630000  1.0 0.1137201825
H  H102  1  0.73840000  0.83170000  0.77370000  1.0 0.1137201825
H  H103  1  0.26160000  0.83170000  0.22630000  1.0 0.1137201825
H  H104  1  0.26160000  0.16830000  0.77370000  1.0 0.1137201825
H  H105  1  0.22630000  0.73840000  0.16830000  1.0 0.1137201825
H  H106  1  0.77370000  0.73840000  0.83170000  1.0 0.1137201825
H  H107  1  0.22630000  0.26160000  0.83170000  1.0 0.1137201825
H  H108  1  0.77370000  0.26160000  0.16830000  1.0 0.1137201825
H  H109  1  0.83170000  0.77370000  0.26160000  1.0 0.1137201825
H  H110  1  0.16830000  0.22630000  0.26160000  1.0 0.1137201825
H  H111  1  0.16830000  0.77370000  0.73840000  1.0 0.1137201825
H  H112  1  0.83170000  0.22630000  0.73840000  1.0 0.1137201825
H  H113  1  0.26160000  0.83170000  0.77370000  1.0 0.1137201825
H  H114  1  0.26160000  0.16830000  0.22630000  1.0 0.1137201825
H  H115  1  0.73840000  0.16830000  0.77370000  1.0 0.1137201825
H  H116  1  0.73840000  0.83170000  0.22630000  1.0 0.1137201825
H  H117  1  0.77370000  0.26160000  0.83170000  1.0 0.1137201825
H  H118  1  0.22630000  0.26160000  0.16830000  1.0 0.1137201825
H  H119  1  0.77370000  0.73840000  0.16830000  1.0 0.1137201825
H  H120  1  0.22630000  0.73840000  0.83170000  1.0 0.1137201825
C  C1  1  0.20387000  0.05097000  0.55199000  1.0 0.5603030661
C  C2  1  0.79613000  0.94903000  0.55199000  1.0 0.5603030661
C  C3  1  0.79613000  0.05097000  0.44801000  1.0 0.5603030661
C  C4  1  0.20387000  0.94903000  0.44801000  1.0 0.5603030661
C  C5  1  0.55199000  0.20387000  0.05097000  1.0 0.5603030661
C  C6  1  0.55199000  0.79613000  0.94903000  1.0 0.5603030661
C  C7  1  0.44801000  0.79613000  0.05097000  1.0 0.5603030661
C  C8  1  0.44801000  0.20387000  0.94903000  1.0 0.5603030661
C  C9  1  0.05097000  0.55199000  0.20387000  1.0 0.5603030661
C  C10  1  0.94903000  0.55199000  0.79613000  1.0 0.5603030661
C  C11  1  0.05097000  0.44801000  0.79613000  1.0 0.5603030661
C  C12  1  0.94903000  0.44801000  0.20387000  1.0 0.5603030661
C  C13  1  0.79613000  0.94903000  0.44801000  1.0 0.5603030661
C  C14  1  0.20387000  0.05097000  0.44801000  1.0 0.5603030661
C  C15  1  0.20387000  0.94903000  0.55199000  1.0 0.5603030661
C  C16  1  0.79613000  0.05097000  0.55199000  1.0 0.5603030661
C  C17  1  0.44801000  0.79613000  0.94903000  1.0 0.5603030661
C  C18  1  0.44801000  0.20387000  0.05097000  1.0 0.5603030661
C  C19  1  0.55199000  0.20387000  0.94903000  1.0 0.5603030661
C  C20  1  0.55199000  0.79613000  0.05097000  1.0 0.5603030661
C  C21  1  0.94903000  0.44801000  0.79613000  1.0 0.5603030661
C  C22  1  0.05097000  0.44801000  0.20387000  1.0 0.5603030661
C  C23  1  0.94903000  0.55199000  0.20387000  1.0 0.5603030661
C  C24  1  0.05097000  0.55199000  0.79613000  1.0 0.5603030661
C  C25  1  0.20568000  0.07750000  0.58768000  1.0 -0.01196226
C  C26  1  0.79432000  0.92250000  0.58768000  1.0 -0.01196226
C  C27  1  0.79432000  0.07750000  0.41232000  1.0 -0.01196226
C  C28  1  0.20568000  0.92250000  0.41232000  1.0 -0.01196226
C  C29  1  0.58768000  0.20568000  0.07750000  1.0 -0.01196226
C  C30  1  0.58768000  0.79432000  0.92250000  1.0 -0.01196226
C  C31  1  0.41232000  0.79432000  0.07750000  1.0 -0.01196226
C  C32  1  0.41232000  0.20568000  0.92250000  1.0 -0.01196226
C  C33  1  0.07750000  0.58768000  0.20568000  1.0 -0.01196226
C  C34  1  0.92250000  0.58768000  0.79432000  1.0 -0.01196226
C  C35  1  0.07750000  0.41232000  0.79432000  1.0 -0.01196226
C  C36  1  0.92250000  0.41232000  0.20568000  1.0 -0.01196226
C  C37  1  0.79432000  0.92250000  0.41232000  1.0 -0.01196226
C  C38  1  0.20568000  0.07750000  0.41232000  1.0 -0.01196226
C  C39  1  0.20568000  0.92250000  0.58768000  1.0 -0.01196226
C  C40  1  0.79432000  0.07750000  0.58768000  1.0 -0.01196226
C  C41  1  0.41232000  0.79432000  0.92250000  1.0 -0.01196226
C  C42  1  0.41232000  0.20568000  0.07750000  1.0 -0.01196226
C  C43  1  0.58768000  0.20568000  0.92250000  1.0 -0.01196226
C  C44  1  0.58768000  0.79432000  0.07750000  1.0 -0.01196226
C  C45  1  0.92250000  0.41232000  0.79432000  1.0 -0.01196226
C  C46  1  0.07750000  0.41232000  0.20568000  1.0 -0.01196226
C  C47  1  0.92250000  0.58768000  0.20568000  1.0 -0.01196226
C  C48  1  0.07750000  0.58768000  0.79432000  1.0 -0.01196226
C  C49  1  0.24096000  0.08684000  0.60517000  1.0 -0.0904635655
C  C50  1  0.75904000  0.91316000  0.60517000  1.0 -0.0904635655
C  C51  1  0.75904000  0.08684000  0.39483000  1.0 -0.0904635655
C  C52  1  0.24096000  0.91316000  0.39483000  1.0 -0.0904635655
C  C53  1  0.60517000  0.24096000  0.08684000  1.0 -0.0904635655
C  C54  1  0.60517000  0.75904000  0.91316000  1.0 -0.0904635655
C  C55  1  0.39483000  0.75904000  0.08684000  1.0 -0.0904635655
C  C56  1  0.39483000  0.24096000  0.91316000  1.0 -0.0904635655
C  C57  1  0.08684000  0.60517000  0.24096000  1.0 -0.0904635655
C  C58  1  0.91316000  0.60517000  0.75904000  1.0 -0.0904635655
C  C59  1  0.08684000  0.39483000  0.75904000  1.0 -0.0904635655
C  C60  1  0.91316000  0.39483000  0.24096000  1.0 -0.0904635655
C  C61  1  0.75904000  0.91316000  0.39483000  1.0 -0.0904635655
C  C62  1  0.24096000  0.08684000  0.39483000  1.0 -0.0904635655
C  C63  1  0.24096000  0.91316000  0.60517000  1.0 -0.0904635655
C  C64  1  0.75904000  0.08684000  0.60517000  1.0 -0.0904635655
C  C65  1  0.39483000  0.75904000  0.91316000  1.0 -0.0904635655
C  C66  1  0.39483000  0.24096000  0.08684000  1.0 -0.0904635655
C  C67  1  0.60517000  0.24096000  0.91316000  1.0 -0.0904635655
C  C68  1  0.60517000  0.75904000  0.08684000  1.0 -0.0904635655
C  C69  1  0.91316000  0.39483000  0.75904000  1.0 -0.0904635655
C  C70  1  0.08684000  0.39483000  0.24096000  1.0 -0.0904635655
C  C71  1  0.91316000  0.60517000  0.24096000  1.0 -0.0904635655
C  C72  1  0.08684000  0.60517000  0.75904000  1.0 -0.0904635655
C  C73  1  0.24172000  0.11127000  0.63743000  1.0 -0.1416903365
C  C74  1  0.75828000  0.88873000  0.63743000  1.0 -0.1416903365
C  C75  1  0.75828000  0.11127000  0.36257000  1.0 -0.1416903365
C  C76  1  0.24172000  0.88873000  0.36257000  1.0 -0.1416903365
C  C77  1  0.63743000  0.24172000  0.11127000  1.0 -0.1416903365
C  C78  1  0.63743000  0.75828000  0.88873000  1.0 -0.1416903365
C  C79  1  0.36257000  0.75828000  0.11127000  1.0 -0.1416903365
C  C80  1  0.36257000  0.24172000  0.88873000  1.0 -0.1416903365
C  C81  1  0.11127000  0.63743000  0.24172000  1.0 -0.1416903365
C  C82  1  0.88873000  0.63743000  0.75828000  1.0 -0.1416903365
C  C83  1  0.11127000  0.36257000  0.75828000  1.0 -0.1416903365
C  C84  1  0.88873000  0.36257000  0.24172000  1.0 -0.1416903365
C  C85  1  0.75828000  0.88873000  0.36257000  1.0 -0.1416903365
C  C86  1  0.24172000  0.11127000  0.36257000  1.0 -0.1416903365
C  C87  1  0.24172000  0.88873000  0.63743000  1.0 -0.1416903365
C  C88  1  0.75828000  0.11127000  0.63743000  1.0 -0.1416903365
C  C89  1  0.36257000  0.75828000  0.88873000  1.0 -0.1416903365
C  C90  1  0.36257000  0.24172000  0.11127000  1.0 -0.1416903365
C  C91  1  0.63743000  0.24172000  0.88873000  1.0 -0.1416903365
C  C92  1  0.63743000  0.75828000  0.11127000  1.0 -0.1416903365
C  C93  1  0.88873000  0.36257000  0.75828000  1.0 -0.1416903365
C  C94  1  0.11127000  0.36257000  0.24172000  1.0 -0.1416903365
C  C95  1  0.88873000  0.63743000  0.24172000  1.0 -0.1416903365
C  C96  1  0.11127000  0.63743000  0.75828000  1.0 -0.1416903365
C  C97  1  0.20719000  0.12638000  0.65218000  1.0 0.1281292166
C  C98  1  0.79281000  0.87362000  0.65218000  1.0 0.1281292166
C  C99  1  0.79281000  0.12638000  0.34782000  1.0 0.1281292166
C  C100  1  0.20719000  0.87362000  0.34782000  1.0 0.1281292166
C  C101  1  0.65218000  0.20719000  0.12638000  1.0 0.1281292166
C  C102  1  0.65218000  0.79281000  0.87362000  1.0 0.1281292166
C  C103  1  0.34782000  0.79281000  0.12638000  1.0 0.1281292166
C  C104  1  0.34782000  0.20719000  0.87362000  1.0 0.1281292166
C  C105  1  0.12638000  0.65218000  0.20719000  1.0 0.1281292166
C  C106  1  0.87362000  0.65218000  0.79281000  1.0 0.1281292166
C  C107  1  0.12638000  0.34782000  0.79281000  1.0 0.1281292166
C  C108  1  0.87362000  0.34782000  0.20719000  1.0 0.1281292166
C  C109  1  0.79281000  0.87362000  0.34782000  1.0 0.1281292166
C  C110  1  0.20719000  0.12638000  0.34782000  1.0 0.1281292166
C  C111  1  0.20719000  0.87362000  0.65218000  1.0 0.1281292166
C  C112  1  0.79281000  0.12638000  0.65218000  1.0 0.1281292166
C  C113  1  0.34782000  0.79281000  0.87362000  1.0 0.1281292166
C  C114  1  0.34782000  0.20719000  0.12638000  1.0 0.1281292166
C  C115  1  0.65218000  0.20719000  0.87362000  1.0 0.1281292166
C  C116  1  0.65218000  0.79281000  0.12638000  1.0 0.1281292166
C  C117  1  0.87362000  0.34782000  0.79281000  1.0 0.1281292166
C  C118  1  0.12638000  0.34782000  0.20719000  1.0 0.1281292166
C  C119  1  0.87362000  0.65218000  0.20719000  1.0 0.1281292166
C  C120  1  0.12638000  0.65218000  0.79281000  1.0 0.1281292166
C  C121  1  0.17191000  0.11705000  0.63469000  1.0 -0.1416903365
C  C122  1  0.82809000  0.88295000  0.63469000  1.0 -0.1416903365
C  C123  1  0.82809000  0.11705000  0.36531000  1.0 -0.1416903365
C  C124  1  0.17191000  0.88295000  0.36531000  1.0 -0.1416903365
C  C125  1  0.63469000  0.17191000  0.11705000  1.0 -0.1416903365
C  C126  1  0.63469000  0.82809000  0.88295000  1.0 -0.1416903365
C  C127  1  0.36531000  0.82809000  0.11705000  1.0 -0.1416903365
C  C128  1  0.36531000  0.17191000  0.88295000  1.0 -0.1416903365
C  C129  1  0.11705000  0.63469000  0.17191000  1.0 -0.1416903365
C  C130  1  0.88295000  0.63469000  0.82809000  1.0 -0.1416903365
C  C131  1  0.11705000  0.36531000  0.82809000  1.0 -0.1416903365
C  C132  1  0.88295000  0.36531000  0.17191000  1.0 -0.1416903365
C  C133  1  0.82809000  0.88295000  0.36531000  1.0 -0.1416903365
C  C134  1  0.17191000  0.11705000  0.36531000  1.0 -0.1416903365
C  C135  1  0.17191000  0.88295000  0.63469000  1.0 -0.1416903365
C  C136  1  0.82809000  0.11705000  0.63469000  1.0 -0.1416903365
C  C137  1  0.36531000  0.82809000  0.88295000  1.0 -0.1416903365
C  C138  1  0.36531000  0.17191000  0.11705000  1.0 -0.1416903365
C  C139  1  0.63469000  0.17191000  0.88295000  1.0 -0.1416903365
C  C140  1  0.63469000  0.82809000  0.11705000  1.0 -0.1416903365
C  C141  1  0.88295000  0.36531000  0.82809000  1.0 -0.1416903365
C  C142  1  0.11705000  0.36531000  0.17191000  1.0 -0.1416903365
C  C143  1  0.88295000  0.63469000  0.17191000  1.0 -0.1416903365
C  C144  1  0.11705000  0.63469000  0.82809000  1.0 -0.1416903365
C  C145  1  0.17116000  0.09261000  0.60243000  1.0 -0.0904635655
C  C146  1  0.82884000  0.90739000  0.60243000  1.0 -0.0904635655
C  C147  1  0.82884000  0.09261000  0.39757000  1.0 -0.0904635655
C  C148  1  0.17116000  0.90739000  0.39757000  1.0 -0.0904635655
C  C149  1  0.60243000  0.17116000  0.09261000  1.0 -0.0904635655
C  C150  1  0.60243000  0.82884000  0.90739000  1.0 -0.0904635655
C  C151  1  0.39757000  0.82884000  0.09261000  1.0 -0.0904635655
C  C152  1  0.39757000  0.17116000  0.90739000  1.0 -0.0904635655
C  C153  1  0.09261000  0.60243000  0.17116000  1.0 -0.0904635655
C  C154  1  0.90739000  0.60243000  0.82884000  1.0 -0.0904635655
C  C155  1  0.09261000  0.39757000  0.82884000  1.0 -0.0904635655
C  C156  1  0.90739000  0.39757000  0.17116000  1.0 -0.0904635655
C  C157  1  0.82884000  0.90739000  0.39757000  1.0 -0.0904635655
C  C158  1  0.17116000  0.09261000  0.39757000  1.0 -0.0904635655
C  C159  1  0.17116000  0.90739000  0.60243000  1.0 -0.0904635655
C  C160  1  0.82884000  0.09261000  0.60243000  1.0 -0.0904635655
C  C161  1  0.39757000  0.82884000  0.90739000  1.0 -0.0904635655
C  C162  1  0.39757000  0.17116000  0.09261000  1.0 -0.0904635655
C  C163  1  0.60243000  0.17116000  0.90739000  1.0 -0.0904635655
C  C164  1  0.60243000  0.82884000  0.09261000  1.0 -0.0904635655
C  C165  1  0.90739000  0.39757000  0.82884000  1.0 -0.0904635655
C  C166  1  0.09261000  0.39757000  0.17116000  1.0 -0.0904635655
C  C167  1  0.90739000  0.60243000  0.17116000  1.0 -0.0904635655
C  C168  1  0.09261000  0.60243000  0.82884000  1.0 -0.0904635655
C  C169  1  0.20644000  0.15185000  0.68950000  1.0 -0.0464991102
C  C170  1  0.79356000  0.84815000  0.68950000  1.0 -0.0464991102
C  C171  1  0.79356000  0.15185000  0.31050000  1.0 -0.0464991102
C  C172  1  0.20644000  0.84815000  0.31050000  1.0 -0.0464991102
C  C173  1  0.68950000  0.20644000  0.15185000  1.0 -0.0464991102
C  C174  1  0.68950000  0.79356000  0.84815000  1.0 -0.0464991102
C  C175  1  0.31050000  0.79356000  0.15185000  1.0 -0.0464991102
C  C176  1  0.31050000  0.20644000  0.84815000  1.0 -0.0464991102
C  C177  1  0.15185000  0.68950000  0.20644000  1.0 -0.0464991102
C  C178  1  0.84815000  0.68950000  0.79356000  1.0 -0.0464991102
C  C179  1  0.15185000  0.31050000  0.79356000  1.0 -0.0464991102
C  C180  1  0.84815000  0.31050000  0.20644000  1.0 -0.0464991102
C  C181  1  0.79356000  0.84815000  0.31050000  1.0 -0.0464991102
C  C182  1  0.20644000  0.15185000  0.31050000  1.0 -0.0464991102
C  C183  1  0.20644000  0.84815000  0.68950000  1.0 -0.0464991102
C  C184  1  0.79356000  0.15185000  0.68950000  1.0 -0.0464991102
C  C185  1  0.31050000  0.79356000  0.84815000  1.0 -0.0464991102
C  C186  1  0.31050000  0.20644000  0.15185000  1.0 -0.0464991102
C  C187  1  0.68950000  0.20644000  0.84815000  1.0 -0.0464991102
C  C188  1  0.68950000  0.79356000  0.15185000  1.0 -0.0464991102
C  C189  1  0.84815000  0.31050000  0.79356000  1.0 -0.0464991102
C  C190  1  0.15185000  0.31050000  0.20644000  1.0 -0.0464991102
C  C191  1  0.84815000  0.68950000  0.20644000  1.0 -0.0464991102
C  C192  1  0.15185000  0.68950000  0.79356000  1.0 -0.0464991102
C  C193  1  0.21218000  0.17238000  0.71603000  1.0 -0.1244147604
C  C194  1  0.78782000  0.82762000  0.71603000  1.0 -0.1252554318
C  C195  1  0.78782000  0.17238000  0.28397000  1.0 -0.1244147604
C  C196  1  0.21218000  0.82762000  0.28397000  1.0 -0.1252554318
C  C197  1  0.71603000  0.21218000  0.17238000  1.0 -0.1244147604
C  C198  1  0.71603000  0.78782000  0.82762000  1.0 -0.1252554318
C  C199  1  0.28397000  0.78782000  0.17238000  1.0 -0.1252554318
C  C200  1  0.28397000  0.21218000  0.82762000  1.0 -0.1244147604
C  C201  1  0.17238000  0.71603000  0.21218000  1.0 -0.1252554318
C  C202  1  0.82762000  0.71603000  0.78782000  1.0 -0.1252554318
C  C203  1  0.17238000  0.28397000  0.78782000  1.0 -0.1252554318
C  C204  1  0.82762000  0.28397000  0.21218000  1.0 -0.1244147604
C  C205  1  0.78782000  0.82762000  0.28397000  1.0 -0.1252554318
C  C206  1  0.21218000  0.17238000  0.28397000  1.0 -0.1244147604
C  C207  1  0.21218000  0.82762000  0.71603000  1.0 -0.1252554318
C  C208  1  0.78782000  0.17238000  0.71603000  1.0 -0.1244147604
C  C209  1  0.28397000  0.78782000  0.82762000  1.0 -0.1252554318
C  C210  1  0.28397000  0.21218000  0.17238000  1.0 -0.1244147604
C  C211  1  0.71603000  0.21218000  0.82762000  1.0 -0.1252554318
C  C212  1  0.71603000  0.78782000  0.17238000  1.0 -0.1252554318
C  C213  1  0.82762000  0.28397000  0.78782000  1.0 -0.1252554318
C  C214  1  0.17238000  0.28397000  0.21218000  1.0 -0.1244147604
C  C215  1  0.82762000  0.71603000  0.21218000  1.0 -0.1252554318
C  C216  1  0.17238000  0.71603000  0.78782000  1.0 -0.1252554318
C  C217  1  0.21466000  0.19457000  0.74747000  1.0 0.1217786187
C  C218  1  0.78534000  0.80543000  0.74747000  1.0 0.1281292166
C  C219  1  0.78534000  0.19457000  0.25253000  1.0 0.1217786187
C  C220  1  0.21466000  0.80543000  0.25253000  1.0 0.1281292166
C  C221  1  0.74747000  0.21466000  0.19457000  1.0 0.1217786187
C  C222  1  0.74747000  0.78534000  0.80543000  1.0 0.1217786187
C  C223  1  0.25253000  0.78534000  0.19457000  1.0 0.1281292166
C  C224  1  0.25253000  0.21466000  0.80543000  1.0 0.1217786187
C  C225  1  0.19457000  0.74747000  0.21466000  1.0 0.1281292166
C  C226  1  0.80543000  0.74747000  0.78534000  1.0 0.1217786187
C  C227  1  0.19457000  0.25253000  0.78534000  1.0 0.1217786187
C  C228  1  0.80543000  0.25253000  0.21466000  1.0 0.1217786187
C  C229  1  0.78534000  0.80543000  0.25253000  1.0 0.1281292166
C  C230  1  0.21466000  0.19457000  0.25253000  1.0 0.1217786187
C  C231  1  0.21466000  0.80543000  0.74747000  1.0 0.1217786187
C  C232  1  0.78534000  0.19457000  0.74747000  1.0 0.1217786187
C  C233  1  0.25253000  0.78534000  0.80543000  1.0 0.1217786187
C  C234  1  0.25253000  0.21466000  0.19457000  1.0 0.1217786187
C  C235  1  0.74747000  0.21466000  0.80543000  1.0 0.1217786187
C  C236  1  0.74747000  0.78534000  0.19457000  1.0 0.1281292166
C  C237  1  0.80543000  0.25253000  0.78534000  1.0 0.1217786187
C  C238  1  0.19457000  0.25253000  0.21466000  1.0 0.1217786187
C  C239  1  0.80543000  0.74747000  0.21466000  1.0 0.1281292166
C  C240  1  0.19457000  0.74747000  0.78534000  1.0 0.1217786187
C  C241  1  0.19020000  0.22400000  0.75464000  1.0 -0.1416903365
C  C242  1  0.80980000  0.77600000  0.75464000  1.0 -0.1470135523
C  C243  1  0.80980000  0.22400000  0.24536000  1.0 -0.1416903365
C  C244  1  0.19020000  0.77600000  0.24536000  1.0 -0.1470135523
C  C245  1  0.75464000  0.19020000  0.22400000  1.0 -0.1416903365
C  C246  1  0.75464000  0.80980000  0.77600000  1.0 -0.1470135523
C  C247  1  0.24536000  0.80980000  0.22400000  1.0 -0.1470135523
C  C248  1  0.24536000  0.19020000  0.77600000  1.0 -0.1416903365
C  C249  1  0.22400000  0.75464000  0.19020000  1.0 -0.1470135523
C  C250  1  0.77600000  0.75464000  0.80980000  1.0 -0.1470135523
C  C251  1  0.22400000  0.24536000  0.80980000  1.0 -0.1416903365
C  C252  1  0.77600000  0.24536000  0.19020000  1.0 -0.1416903365
C  C253  1  0.80980000  0.77600000  0.24536000  1.0 -0.1470135523
C  C254  1  0.19020000  0.22400000  0.24536000  1.0 -0.1416903365
C  C255  1  0.19020000  0.77600000  0.75464000  1.0 -0.1470135523
C  C256  1  0.80980000  0.22400000  0.75464000  1.0 -0.1416903365
C  C257  1  0.24536000  0.80980000  0.77600000  1.0 -0.1470135523
C  C258  1  0.24536000  0.19020000  0.22400000  1.0 -0.1416903365
C  C259  1  0.75464000  0.19020000  0.77600000  1.0 -0.1416903365
C  C260  1  0.75464000  0.80980000  0.22400000  1.0 -0.1470135523
C  C261  1  0.77600000  0.24536000  0.80980000  1.0 -0.1416903365
C  C262  1  0.22400000  0.24536000  0.19020000  1.0 -0.1416903365
C  C263  1  0.77600000  0.75464000  0.19020000  1.0 -0.1470135523
C  C264  1  0.22400000  0.75464000  0.80980000  1.0 -0.1470135523
O  O1  1  0.17049000  0.03998000  0.54090000  1.0 -0.5138351332
O  O2  1  0.82951000  0.96002000  0.54090000  1.0 -0.5138351332
O  O3  1  0.82951000  0.03998000  0.45910000  1.0 -0.5138351332
O  O4  1  0.17049000  0.96002000  0.45910000  1.0 -0.5138351332
O  O5  1  0.54090000  0.17049000  0.03998000  1.0 -0.5138351332
O  O6  1  0.54090000  0.82951000  0.96002000  1.0 -0.5138351332
O  O7  1  0.45910000  0.82951000  0.03998000  1.0 -0.5138351332
O  O8  1  0.45910000  0.17049000  0.96002000  1.0 -0.5138351332
O  O9  1  0.03998000  0.54090000  0.17049000  1.0 -0.5138351332
O  O10  1  0.96002000  0.54090000  0.82951000  1.0 -0.5138351332
O  O11  1  0.03998000  0.45910000  0.82951000  1.0 -0.5138351332
O  O12  1  0.96002000  0.45910000  0.17049000  1.0 -0.5138351332
O  O13  1  0.82951000  0.96002000  0.45910000  1.0 -0.5138351332
O  O14  1  0.17049000  0.03998000  0.45910000  1.0 -0.5138351332
O  O15  1  0.17049000  0.96002000  0.54090000  1.0 -0.5138351332
O  O16  1  0.82951000  0.03998000  0.54090000  1.0 -0.5138351332
O  O17  1  0.45910000  0.82951000  0.96002000  1.0 -0.5138351332
O  O18  1  0.45910000  0.17049000  0.03998000  1.0 -0.5138351332
O  O19  1  0.54090000  0.17049000  0.96002000  1.0 -0.5138351332
O  O20  1  0.54090000  0.82951000  0.03998000  1.0 -0.5138351332
O  O21  1  0.96002000  0.45910000  0.82951000  1.0 -0.5138351332
O  O22  1  0.03998000  0.45910000  0.17049000  1.0 -0.5138351332
O  O23  1  0.96002000  0.54090000  0.17049000  1.0 -0.5138351332
O  O24  1  0.03998000  0.54090000  0.82951000  1.0 -0.5138351332
O  O25  1  0.23861000  0.03964000  0.54050000  1.0 -0.5426406598
O  O26  1  0.76139000  0.96036000  0.54050000  1.0 -0.5426406598
O  O27  1  0.76139000  0.03964000  0.45950000  1.0 -0.5426406598
O  O28  1  0.23861000  0.96036000  0.45950000  1.0 -0.5426406598
O  O29  1  0.54050000  0.23861000  0.03964000  1.0 -0.5426406598
O  O30  1  0.54050000  0.76139000  0.96036000  1.0 -0.5426406598
O  O31  1  0.45950000  0.76139000  0.03964000  1.0 -0.5426406598
O  O32  1  0.45950000  0.23861000  0.96036000  1.0 -0.5426406598
O  O33  1  0.03964000  0.54050000  0.23861000  1.0 -0.5426406598
O  O34  1  0.96036000  0.54050000  0.76139000  1.0 -0.5426406598
O  O35  1  0.03964000  0.45950000  0.76139000  1.0 -0.5426406598
O  O36  1  0.96036000  0.45950000  0.23861000  1.0 -0.5426406598
O  O37  1  0.76139000  0.96036000  0.45950000  1.0 -0.5426406598
O  O38  1  0.23861000  0.03964000  0.45950000  1.0 -0.5426406598
O  O39  1  0.23861000  0.96036000  0.54050000  1.0 -0.5426406598
O  O40  1  0.76139000  0.03964000  0.54050000  1.0 -0.5426406598
O  O41  1  0.45950000  0.76139000  0.96036000  1.0 -0.5426406598
O  O42  1  0.45950000  0.23861000  0.03964000  1.0 -0.5426406598
O  O43  1  0.54050000  0.23861000  0.96036000  1.0 -0.5426406598
O  O44  1  0.54050000  0.76139000  0.03964000  1.0 -0.5426406598
O  O45  1  0.96036000  0.45950000  0.76139000  1.0 -0.5426406598
O  O46  1  0.03964000  0.45950000  0.23861000  1.0 -0.5426406598
O  O47  1  0.96036000  0.54050000  0.23861000  1.0 -0.5426406598
O  O48  1  0.03964000  0.54050000  0.76139000  1.0 -0.5426406598
