# DDEC6 charges by PACMAN v1.1 (https://github.com/mtap-research/PACMAN-charge/)
data_QIYDOT_ASR_pacman
_symmetry_space_group_name_H-M   'P 1'
_cell_length_a   37.70690000
_cell_length_b   37.70690000
_cell_length_c   37.70690000
_cell_angle_alpha   104.50900000
_cell_angle_beta   104.50900000
_cell_angle_gamma   119.93000000
_symmetry_Int_Tables_number   1
_chemical_formula_structural   Cu3H38C75NO12
_chemical_formula_sum   'Cu12 H152 C300 N4 O48'
_cell_volume   40223.02404169
_cell_formula_units_Z   4
loop_
 _symmetry_equiv_pos_site_id
 _symmetry_equiv_pos_as_xyz
  1  'x, y, z'
loop_
 _atom_site_type_symbol
 _atom_site_label
 _atom_site_symmetry_multiplicity
 _atom_site_fract_x
 _atom_site_fract_y
 _atom_site_fract_z
 _atom_site_occupancy
 _atom_site_charge
Cu  Cu1  1  0.87216000  0.62784000  0.50000000  1.0 0.8771452963
Cu  Cu2  1  0.12784000  0.37216000  0.50000000  1.0 0.8771452963
Cu  Cu3  1  0.37216000  0.87216000  0.24432000  1.0 0.8771452963
Cu  Cu4  1  0.62784000  0.12784000  0.75568000  1.0 0.8771452963
Cu  Cu5  1  0.91237000  0.58763000  0.50000000  1.0 0.7061548143
Cu  Cu6  1  0.08763000  0.41237000  0.50000000  1.0 0.7061548143
Cu  Cu7  1  0.41237000  0.91237000  0.32474000  1.0 0.7061548143
Cu  Cu8  1  0.58763000  0.08763000  0.67526000  1.0 0.7061548143
Cu  Cu9  1  0.71535000  0.71535000  0.00000000  1.0 0.8375306338
Cu  Cu10  1  0.78465000  0.78465000  0.00000000  1.0 0.8375306338
Cu  Cu11  1  0.28465000  0.28465000  0.00000000  1.0 0.8375306338
Cu  Cu12  1  0.21535000  0.21535000  0.00000000  1.0 0.8375306338
H  H1  1  0.96750000  0.62200000  0.41610000  1.0 0.1299086213
H  H2  1  0.20590000  0.55140000  0.58390000  1.0 0.1299086213
H  H3  1  0.55140000  0.96750000  0.34550000  1.0 0.1299086213
H  H4  1  0.62200000  0.20590000  0.65450000  1.0 0.1299086213
H  H5  1  0.53250000  0.94860000  0.65450000  1.0 0.1299086213
H  H6  1  0.29410000  0.87800000  0.34550000  1.0 0.1299086213
H  H7  1  0.94860000  0.29410000  0.41610000  1.0 0.1299086213
H  H8  1  0.87800000  0.53250000  0.58390000  1.0 0.1299086213
H  H9  1  0.03250000  0.37800000  0.58390000  1.0 0.1299086213
H  H10  1  0.79410000  0.44860000  0.41610000  1.0 0.1299086213
H  H11  1  0.44860000  0.03250000  0.65450000  1.0 0.1299086213
H  H12  1  0.37800000  0.79410000  0.34550000  1.0 0.1299086213
H  H13  1  0.46750000  0.05140000  0.34550000  1.0 0.1299086213
H  H14  1  0.70590000  0.12200000  0.65450000  1.0 0.1299086213
H  H15  1  0.05140000  0.70590000  0.58390000  1.0 0.1299086213
H  H16  1  0.12200000  0.46750000  0.41610000  1.0 0.1299086213
H  H17  1  0.99170000  0.65010000  0.37180000  1.0 0.1214064348
H  H18  1  0.27830000  0.61990000  0.62820000  1.0 0.1214064348
H  H19  1  0.61990000  0.99170000  0.34160000  1.0 0.1214064348
H  H20  1  0.65010000  0.27830000  0.65840000  1.0 0.1214064348
H  H21  1  0.50830000  0.88010000  0.65840000  1.0 0.1214064348
H  H22  1  0.22170000  0.84990000  0.34160000  1.0 0.1214064348
H  H23  1  0.88010000  0.22170000  0.37180000  1.0 0.1214064348
H  H24  1  0.84990000  0.50830000  0.62820000  1.0 0.1214064348
H  H25  1  0.00830000  0.34990000  0.62820000  1.0 0.1214064348
H  H26  1  0.72170000  0.38010000  0.37180000  1.0 0.1214064348
H  H27  1  0.38010000  0.00830000  0.65840000  1.0 0.1214064348
H  H28  1  0.34990000  0.72170000  0.34160000  1.0 0.1214064348
H  H29  1  0.49170000  0.11990000  0.34160000  1.0 0.1214064348
H  H30  1  0.77830000  0.15010000  0.65840000  1.0 0.1214064348
H  H31  1  0.11990000  0.77830000  0.62820000  1.0 0.1214064348
H  H32  1  0.15010000  0.49170000  0.37180000  1.0 0.1214064348
H  H33  1  0.91660000  0.69790000  0.36650000  1.0 0.1214064348
H  H34  1  0.33140000  0.55010000  0.63350000  1.0 0.1214064348
H  H35  1  0.55010000  0.91660000  0.21870000  1.0 0.1214064348
H  H36  1  0.69790000  0.33140000  0.78130000  1.0 0.1214064348
H  H37  1  0.58340000  0.94990000  0.78130000  1.0 0.1214064348
H  H38  1  0.16860000  0.80210000  0.21870000  1.0 0.1214064348
H  H39  1  0.94990000  0.16860000  0.36650000  1.0 0.1214064348
H  H40  1  0.80210000  0.58340000  0.63350000  1.0 0.1214064348
H  H41  1  0.08340000  0.30210000  0.63350000  1.0 0.1214064348
H  H42  1  0.66860000  0.44990000  0.36650000  1.0 0.1214064348
H  H43  1  0.44990000  0.08340000  0.78130000  1.0 0.1214064348
H  H44  1  0.30210000  0.66860000  0.21870000  1.0 0.1214064348
H  H45  1  0.41660000  0.05010000  0.21870000  1.0 0.1214064348
H  H46  1  0.83140000  0.19790000  0.78130000  1.0 0.1214064348
H  H47  1  0.05010000  0.83140000  0.63350000  1.0 0.1214064348
H  H48  1  0.19790000  0.41660000  0.36650000  1.0 0.1214064348
H  H49  1  0.89220000  0.66960000  0.41060000  1.0 0.1299086213
H  H50  1  0.25900000  0.48160000  0.58940000  1.0 0.1299086213
H  H51  1  0.48160000  0.89220000  0.22260000  1.0 0.1299086213
H  H52  1  0.66960000  0.25900000  0.77740000  1.0 0.1299086213
H  H53  1  0.60780000  0.01840000  0.77740000  1.0 0.1299086213
H  H54  1  0.24100000  0.83040000  0.22260000  1.0 0.1299086213
H  H55  1  0.01840000  0.24100000  0.41060000  1.0 0.1299086213
H  H56  1  0.83040000  0.60780000  0.58940000  1.0 0.1299086213
H  H57  1  0.10780000  0.33040000  0.58940000  1.0 0.1299086213
H  H58  1  0.74100000  0.51840000  0.41060000  1.0 0.1299086213
H  H59  1  0.51840000  0.10780000  0.77740000  1.0 0.1299086213
H  H60  1  0.33040000  0.74100000  0.22260000  1.0 0.1299086213
H  H61  1  0.39220000  0.98160000  0.22260000  1.0 0.1299086213
H  H62  1  0.75900000  0.16960000  0.77740000  1.0 0.1299086213
H  H63  1  0.98160000  0.75900000  0.58940000  1.0 0.1299086213
H  H64  1  0.16960000  0.39220000  0.41060000  1.0 0.1299086213
H  H65  1  0.93740000  0.71130000  0.25370000  1.0 0.1299086213
H  H66  1  0.45760000  0.68370000  0.74630000  1.0 0.1299086213
H  H67  1  0.68370000  0.93740000  0.22610000  1.0 0.1299086213
H  H68  1  0.71130000  0.45760000  0.77390000  1.0 0.1299086213
H  H69  1  0.56260000  0.81630000  0.77390000  1.0 0.1299086213
H  H70  1  0.04240000  0.78870000  0.22610000  1.0 0.1299086213
H  H71  1  0.81630000  0.04240000  0.25370000  1.0 0.1299086213
H  H72  1  0.78870000  0.56260000  0.74630000  1.0 0.1299086213
H  H73  1  0.06260000  0.28870000  0.74630000  1.0 0.1299086213
H  H74  1  0.54240000  0.31630000  0.25370000  1.0 0.1299086213
H  H75  1  0.31630000  0.06260000  0.77390000  1.0 0.1299086213
H  H76  1  0.28870000  0.54240000  0.22610000  1.0 0.1299086213
H  H77  1  0.43740000  0.18370000  0.22610000  1.0 0.1299086213
H  H78  1  0.95760000  0.21130000  0.77390000  1.0 0.1299086213
H  H79  1  0.18370000  0.95760000  0.74630000  1.0 0.1299086213
H  H80  1  0.21130000  0.43740000  0.25370000  1.0 0.1299086213
H  H81  1  0.06570000  0.75000000  0.31570000  1.0 0.1299086213
H  H82  1  0.43430000  0.75000000  0.68430000  1.0 0.1299086213
H  H83  1  0.75000000  0.06570000  0.31570000  1.0 0.1299086213
H  H84  1  0.75000000  0.43430000  0.68430000  1.0 0.1299086213
H  H85  1  0.93430000  0.25000000  0.68430000  1.0 0.1299086213
H  H86  1  0.56570000  0.25000000  0.31570000  1.0 0.1299086213
H  H87  1  0.25000000  0.93430000  0.68430000  1.0 0.1299086213
H  H88  1  0.25000000  0.56570000  0.31570000  1.0 0.1299086213
H  H89  1  0.83590000  0.69650000  0.14240000  1.0 0.1214064348
H  H90  1  0.55410000  0.69350000  0.85760000  1.0 0.1214064348
H  H91  1  0.69350000  0.83590000  0.13940000  1.0 0.1214064348
H  H92  1  0.69650000  0.55410000  0.86060000  1.0 0.1214064348
H  H93  1  0.66410000  0.80650000  0.86060000  1.0 0.1214064348
H  H94  1  0.94590000  0.80350000  0.13940000  1.0 0.1214064348
H  H95  1  0.80650000  0.94590000  0.14240000  1.0 0.1214064348
H  H96  1  0.80350000  0.66410000  0.85760000  1.0 0.1214064348
H  H97  1  0.16410000  0.30350000  0.85760000  1.0 0.1214064348
H  H98  1  0.44590000  0.30650000  0.14240000  1.0 0.1214064348
H  H99  1  0.30650000  0.16410000  0.86060000  1.0 0.1214064348
H  H100  1  0.30350000  0.44590000  0.13940000  1.0 0.1214064348
H  H101  1  0.33590000  0.19350000  0.13940000  1.0 0.1214064348
H  H102  1  0.05410000  0.19650000  0.86060000  1.0 0.1214064348
H  H103  1  0.19350000  0.05410000  0.85760000  1.0 0.1214064348
H  H104  1  0.19650000  0.33590000  0.14240000  1.0 0.1214064348
H  H105  1  0.78690000  0.69860000  0.09370000  1.0 0.1299086213
H  H106  1  0.60490000  0.69320000  0.90630000  1.0 0.1299086213
H  H107  1  0.69320000  0.78690000  0.08830000  1.0 0.1299086213
H  H108  1  0.69860000  0.60490000  0.91170000  1.0 0.1299086213
H  H109  1  0.71310000  0.80680000  0.91170000  1.0 0.1299086213
H  H110  1  0.89510000  0.80140000  0.08830000  1.0 0.1299086213
H  H111  1  0.80680000  0.89510000  0.09370000  1.0 0.1299086213
H  H112  1  0.80140000  0.71310000  0.90630000  1.0 0.1299086213
H  H113  1  0.21310000  0.30140000  0.90630000  1.0 0.1356088189
H  H114  1  0.39510000  0.30680000  0.09370000  1.0 0.1356088189
H  H115  1  0.30680000  0.21310000  0.91170000  1.0 0.1356088189
H  H116  1  0.30140000  0.39510000  0.08830000  1.0 0.1356088189
H  H117  1  0.28690000  0.19320000  0.08830000  1.0 0.1356088189
H  H118  1  0.10490000  0.19860000  0.91170000  1.0 0.1356088189
H  H119  1  0.19320000  0.10490000  0.90630000  1.0 0.1356088189
H  H120  1  0.19860000  0.28690000  0.09370000  1.0 0.1356088189
H  H121  1  0.98080000  0.58250000  0.56330000  1.0 0.1113865654
H  H122  1  0.01920000  0.41750000  0.43670000  1.0 0.1113865654
H  H123  1  0.41750000  0.98080000  0.39830000  1.0 0.1113865654
H  H124  1  0.58250000  0.01920000  0.60170000  1.0 0.1113865654
H  H125  1  0.51920000  0.08250000  0.60170000  1.0 0.1113865654
H  H126  1  0.48080000  0.91750000  0.39830000  1.0 0.1113865654
H  H127  1  0.08250000  0.48080000  0.56330000  1.0 0.1113865654
H  H128  1  0.91750000  0.51920000  0.43670000  1.0 0.1113865654
H  H129  1  0.01830000  0.54560000  0.56390000  1.0 0.0880294977
H  H130  1  0.98170000  0.45440000  0.43610000  1.0 0.0880294977
H  H131  1  0.45440000  0.01830000  0.47270000  1.0 0.0880294977
H  H132  1  0.54560000  0.98170000  0.52730000  1.0 0.0880294977
H  H133  1  0.48170000  0.04560000  0.52730000  1.0 0.0880294977
H  H134  1  0.51830000  0.95440000  0.47270000  1.0 0.0880294977
H  H135  1  0.04560000  0.51830000  0.56390000  1.0 0.0880294977
H  H136  1  0.95440000  0.48170000  0.43610000  1.0 0.0880294977
H  H137  1  0.89400000  0.49580000  0.50000000  1.0 0.1113865654
H  H138  1  0.99580000  0.39400000  0.50000000  1.0 0.1113865654
H  H139  1  0.39400000  0.89400000  0.39820000  1.0 0.1113865654
H  H140  1  0.49580000  0.99580000  0.60180000  1.0 0.1113865654
H  H141  1  0.60600000  0.10600000  0.60180000  1.0 0.1113865654
H  H142  1  0.50420000  0.00420000  0.39820000  1.0 0.1113865654
H  H143  1  0.10600000  0.50420000  0.50000000  1.0 0.1113865654
H  H144  1  0.00420000  0.60600000  0.50000000  1.0 0.1113865654
H  H145  1  0.93070000  0.45830000  0.50000000  1.0 0.0880294977
H  H146  1  0.95830000  0.43070000  0.50000000  1.0 0.0880294977
H  H147  1  0.43070000  0.93070000  0.47240000  1.0 0.0880294977
H  H148  1  0.45830000  0.95830000  0.52760000  1.0 0.0880294977
H  H149  1  0.56930000  0.06930000  0.52760000  1.0 0.0880294977
H  H150  1  0.54170000  0.04170000  0.47240000  1.0 0.0880294977
H  H151  1  0.06930000  0.54170000  0.50000000  1.0 0.0880294977
H  H152  1  0.04170000  0.56930000  0.50000000  1.0 0.0880294977
C  C1  1  0.91370000  0.62750000  0.44700000  1.0 0.5523326481
C  C2  1  0.18050000  0.46670000  0.55300000  1.0 0.5523326481
C  C3  1  0.46670000  0.91370000  0.28620000  1.0 0.5523326481
C  C4  1  0.62750000  0.18050000  0.71380000  1.0 0.5523326481
C  C5  1  0.58630000  0.03330000  0.71380000  1.0 0.5523326481
C  C6  1  0.31950000  0.87250000  0.28620000  1.0 0.5523326481
C  C7  1  0.03330000  0.31950000  0.44700000  1.0 0.5523326481
C  C8  1  0.87250000  0.58630000  0.55300000  1.0 0.5523326481
C  C9  1  0.08630000  0.37250000  0.55300000  1.0 0.5523326481
C  C10  1  0.81950000  0.53330000  0.44700000  1.0 0.5523326481
C  C11  1  0.53330000  0.08630000  0.71380000  1.0 0.5523326481
C  C12  1  0.37250000  0.81950000  0.28620000  1.0 0.5523326481
C  C13  1  0.41370000  0.96670000  0.28620000  1.0 0.5523326481
C  C14  1  0.68050000  0.12750000  0.71380000  1.0 0.5523326481
C  C15  1  0.96670000  0.68050000  0.55300000  1.0 0.5523326481
C  C16  1  0.12750000  0.41370000  0.44700000  1.0 0.5523326481
C  C17  1  0.92747000  0.64304000  0.41759000  1.0 -0.0381840613
C  C18  1  0.22545000  0.50988000  0.58241000  1.0 -0.0381840613
C  C19  1  0.50988000  0.92747000  0.28443000  1.0 -0.0381840613
C  C20  1  0.64304000  0.22545000  0.71557000  1.0 -0.0381840613
C  C21  1  0.57253000  0.99012000  0.71557000  1.0 -0.0381840613
C  C22  1  0.27455000  0.85696000  0.28443000  1.0 -0.0381840613
C  C23  1  0.99012000  0.27455000  0.41759000  1.0 -0.0381840613
C  C24  1  0.85696000  0.57253000  0.58241000  1.0 -0.0381840613
C  C25  1  0.07253000  0.35696000  0.58241000  1.0 -0.0381840613
C  C26  1  0.77455000  0.49012000  0.41759000  1.0 -0.0381840613
C  C27  1  0.49012000  0.07253000  0.71557000  1.0 -0.0381840613
C  C28  1  0.35696000  0.77455000  0.28443000  1.0 -0.0381840613
C  C29  1  0.42747000  0.00988000  0.28443000  1.0 -0.0381840613
C  C30  1  0.72545000  0.14304000  0.71557000  1.0 -0.0381840613
C  C31  1  0.00988000  0.72545000  0.58241000  1.0 -0.0381840613
C  C32  1  0.14304000  0.42747000  0.41759000  1.0 -0.0381840613
C  C33  1  0.95717000  0.63726000  0.40603000  1.0 -0.1008016313
C  C34  1  0.23123000  0.55114000  0.59397000  1.0 -0.1008016313
C  C35  1  0.55114000  0.95717000  0.31991000  1.0 -0.1008016313
C  C36  1  0.63726000  0.23123000  0.68009000  1.0 -0.1008016313
C  C37  1  0.54283000  0.94886000  0.68009000  1.0 -0.1008016313
C  C38  1  0.26877000  0.86274000  0.31991000  1.0 -0.1008016313
C  C39  1  0.94886000  0.26877000  0.40603000  1.0 -0.1008016313
C  C40  1  0.86274000  0.54283000  0.59397000  1.0 -0.1008016313
C  C41  1  0.04283000  0.36274000  0.59397000  1.0 -0.1008016313
C  C42  1  0.76877000  0.44886000  0.40603000  1.0 -0.1008016313
C  C43  1  0.44886000  0.04283000  0.68009000  1.0 -0.1008016313
C  C44  1  0.36274000  0.76877000  0.31991000  1.0 -0.1008016313
C  C45  1  0.45717000  0.05114000  0.31991000  1.0 -0.1008016313
C  C46  1  0.73123000  0.13726000  0.68009000  1.0 -0.1008016313
C  C47  1  0.05114000  0.73123000  0.59397000  1.0 -0.1008016313
C  C48  1  0.13726000  0.45717000  0.40603000  1.0 -0.1008016313
C  C49  1  0.97175000  0.65415000  0.37970000  1.0 -0.1412239554
C  C50  1  0.27445000  0.59205000  0.62030000  1.0 -0.1412239554
C  C51  1  0.59205000  0.97175000  0.31760000  1.0 -0.1412239554
C  C52  1  0.65415000  0.27445000  0.68240000  1.0 -0.1412239554
C  C53  1  0.52825000  0.90795000  0.68240000  1.0 -0.1412239554
C  C54  1  0.22555000  0.84585000  0.31760000  1.0 -0.1412239554
C  C55  1  0.90795000  0.22555000  0.37970000  1.0 -0.1412239554
C  C56  1  0.84585000  0.52825000  0.62030000  1.0 -0.1412239554
C  C57  1  0.02825000  0.34585000  0.62030000  1.0 -0.1412239554
C  C58  1  0.72555000  0.40795000  0.37970000  1.0 -0.1412239554
C  C59  1  0.40795000  0.02825000  0.68240000  1.0 -0.1412239554
C  C60  1  0.34585000  0.72555000  0.31760000  1.0 -0.1412239554
C  C61  1  0.47175000  0.09205000  0.31760000  1.0 -0.1412239554
C  C62  1  0.77445000  0.15415000  0.68240000  1.0 -0.1412239554
C  C63  1  0.09205000  0.77445000  0.62030000  1.0 -0.1412239554
C  C64  1  0.15415000  0.47175000  0.37970000  1.0 -0.1412239554
C  C65  1  0.95655000  0.67675000  0.36492000  1.0 0.1520711715
C  C66  1  0.31183000  0.59163000  0.63508000  1.0 0.1520711715
C  C67  1  0.59163000  0.95655000  0.27980000  1.0 0.1520711715
C  C68  1  0.67675000  0.31183000  0.72020000  1.0 0.1520711715
C  C69  1  0.54345000  0.90837000  0.72020000  1.0 0.1520711715
C  C70  1  0.18817000  0.82325000  0.27980000  1.0 0.1520711715
C  C71  1  0.90837000  0.18817000  0.36492000  1.0 0.1520711715
C  C72  1  0.82325000  0.54345000  0.63508000  1.0 0.1520711715
C  C73  1  0.04345000  0.32325000  0.63508000  1.0 0.1520711715
C  C74  1  0.68817000  0.40837000  0.36492000  1.0 0.1520711715
C  C75  1  0.40837000  0.04345000  0.72020000  1.0 0.1520711715
C  C76  1  0.32325000  0.68817000  0.27980000  1.0 0.1520711715
C  C77  1  0.45655000  0.09163000  0.27980000  1.0 0.1520711715
C  C78  1  0.81183000  0.17675000  0.72020000  1.0 0.1520711715
C  C79  1  0.09163000  0.81183000  0.63508000  1.0 0.1520711715
C  C80  1  0.17675000  0.45655000  0.36492000  1.0 0.1520711715
C  C81  1  0.92690000  0.68259000  0.37649000  1.0 -0.1412239554
C  C82  1  0.30610000  0.55041000  0.62351000  1.0 -0.1412239554
C  C83  1  0.55041000  0.92690000  0.24431000  1.0 -0.1412239554
C  C84  1  0.68259000  0.30610000  0.75569000  1.0 -0.1412239554
C  C85  1  0.57310000  0.94959000  0.75569000  1.0 -0.1412239554
C  C86  1  0.19390000  0.81741000  0.24431000  1.0 -0.1412239554
C  C87  1  0.94959000  0.19390000  0.37649000  1.0 -0.1412239554
C  C88  1  0.81741000  0.57310000  0.62351000  1.0 -0.1412239554
C  C89  1  0.07310000  0.31741000  0.62351000  1.0 -0.1412239554
C  C90  1  0.69390000  0.44959000  0.37649000  1.0 -0.1412239554
C  C91  1  0.44959000  0.07310000  0.75569000  1.0 -0.1412239554
C  C92  1  0.31741000  0.69390000  0.24431000  1.0 -0.1412239554
C  C93  1  0.42690000  0.05041000  0.24431000  1.0 -0.1412239554
C  C94  1  0.80610000  0.18259000  0.75569000  1.0 -0.1412239554
C  C95  1  0.05041000  0.80610000  0.62351000  1.0 -0.1412239554
C  C96  1  0.18259000  0.42690000  0.37649000  1.0 -0.1412239554
C  C97  1  0.91233000  0.66569000  0.40282000  1.0 -0.0914425268
C  C98  1  0.26287000  0.50951000  0.59718000  1.0 -0.0914425268
C  C99  1  0.50951000  0.91233000  0.24664000  1.0 -0.0914425268
C  C100  1  0.66569000  0.26287000  0.75336000  1.0 -0.0914425268
C  C101  1  0.58767000  0.99049000  0.75336000  1.0 -0.0914425268
C  C102  1  0.23713000  0.83431000  0.24664000  1.0 -0.0914425268
C  C103  1  0.99049000  0.23713000  0.40282000  1.0 -0.0914425268
C  C104  1  0.83431000  0.58767000  0.59718000  1.0 -0.0914425268
C  C105  1  0.08767000  0.33431000  0.59718000  1.0 -0.0914425268
C  C106  1  0.73713000  0.49049000  0.40282000  1.0 -0.0914425268
C  C107  1  0.49049000  0.08767000  0.75336000  1.0 -0.0914425268
C  C108  1  0.33431000  0.73713000  0.24664000  1.0 -0.0914425268
C  C109  1  0.41233000  0.00951000  0.24664000  1.0 -0.0914425268
C  C110  1  0.76287000  0.16569000  0.75336000  1.0 -0.0914425268
C  C111  1  0.00951000  0.76287000  0.59718000  1.0 -0.0914425268
C  C112  1  0.16569000  0.41233000  0.40282000  1.0 -0.0914425268
C  C113  1  0.97250000  0.69430000  0.33720000  1.0 -0.1522364487
C  C114  1  0.35710000  0.63530000  0.66280000  1.0 -0.1522364487
C  C115  1  0.63530000  0.97250000  0.27820000  1.0 -0.1522364487
C  C116  1  0.69430000  0.35710000  0.72180000  1.0 -0.1522364487
C  C117  1  0.52750000  0.86470000  0.72180000  1.0 -0.1522364487
C  C118  1  0.14290000  0.80570000  0.27820000  1.0 -0.1522364487
C  C119  1  0.86470000  0.14290000  0.33720000  1.0 -0.1522364487
C  C120  1  0.80570000  0.52750000  0.66280000  1.0 -0.1522364487
C  C121  1  0.02750000  0.30570000  0.66280000  1.0 -0.1522364487
C  C122  1  0.64290000  0.36470000  0.33720000  1.0 -0.1522364487
C  C123  1  0.36470000  0.02750000  0.72180000  1.0 -0.1522364487
C  C124  1  0.30570000  0.64290000  0.27820000  1.0 -0.1522364487
C  C125  1  0.47250000  0.13530000  0.27820000  1.0 -0.1522364487
C  C126  1  0.85710000  0.19430000  0.72180000  1.0 -0.1522364487
C  C127  1  0.13530000  0.85710000  0.66280000  1.0 -0.1522364487
C  C128  1  0.19430000  0.47250000  0.33720000  1.0 -0.1522364487
C  C129  1  0.98570000  0.71010000  0.31340000  1.0 -0.0688554824
C  C130  1  0.39670000  0.67230000  0.68660000  1.0 -0.0688554824
C  C131  1  0.67230000  0.98570000  0.27560000  1.0 -0.0688554824
C  C132  1  0.71010000  0.39670000  0.72440000  1.0 -0.0688554824
C  C133  1  0.51430000  0.82770000  0.72440000  1.0 -0.0688554824
C  C134  1  0.10330000  0.78990000  0.27560000  1.0 -0.0688554824
C  C135  1  0.82770000  0.10330000  0.31340000  1.0 -0.0688554824
C  C136  1  0.78990000  0.51430000  0.68660000  1.0 -0.0688554824
C  C137  1  0.01430000  0.28990000  0.68660000  1.0 -0.0688554824
C  C138  1  0.60330000  0.32770000  0.31340000  1.0 -0.0688554824
C  C139  1  0.32770000  0.01430000  0.72440000  1.0 -0.0688554824
C  C140  1  0.28990000  0.60330000  0.27560000  1.0 -0.0688554824
C  C141  1  0.48570000  0.17230000  0.27560000  1.0 -0.0688554824
C  C142  1  0.89670000  0.21010000  0.72440000  1.0 -0.0688554824
C  C143  1  0.17230000  0.89670000  0.68660000  1.0 -0.0688554824
C  C144  1  0.21010000  0.48570000  0.31340000  1.0 -0.0688554824
C  C145  1  0.00090000  0.72950000  0.28720000  1.0 0.1113865654
C  C146  1  0.44230000  0.71370000  0.71280000  1.0 0.1113865654
C  C147  1  0.71370000  0.00090000  0.27140000  1.0 0.1113865654
C  C148  1  0.72950000  0.44230000  0.72860000  1.0 0.1113865654
C  C149  1  0.49910000  0.78630000  0.72860000  1.0 0.1113865654
C  C150  1  0.05770000  0.77050000  0.27140000  1.0 0.1113865654
C  C151  1  0.78630000  0.05770000  0.28720000  1.0 0.1113865654
C  C152  1  0.77050000  0.49910000  0.71280000  1.0 0.1113865654
C  C153  1  0.99910000  0.27050000  0.71280000  1.0 0.1113865654
C  C154  1  0.55770000  0.28630000  0.28720000  1.0 0.1113865654
C  C155  1  0.28630000  0.99910000  0.72860000  1.0 0.1113865654
C  C156  1  0.27050000  0.55770000  0.27140000  1.0 0.1113865654
C  C157  1  0.50090000  0.21370000  0.27140000  1.0 0.1113865654
C  C158  1  0.94230000  0.22950000  0.72860000  1.0 0.1113865654
C  C159  1  0.21370000  0.94230000  0.71280000  1.0 0.1113865654
C  C160  1  0.22950000  0.50090000  0.28720000  1.0 0.1113865654
C  C161  1  0.96810000  0.72660000  0.25830000  1.0 -0.2093831539
C  C162  1  0.46830000  0.70980000  0.74170000  1.0 -0.2093831539
C  C163  1  0.70980000  0.96810000  0.24150000  1.0 -0.2093831539
C  C164  1  0.72660000  0.46830000  0.75850000  1.0 -0.2046701104
C  C165  1  0.53190000  0.79020000  0.75850000  1.0 -0.2093831539
C  C166  1  0.03170000  0.77340000  0.24150000  1.0 -0.2093831539
C  C167  1  0.79020000  0.03170000  0.25830000  1.0 -0.2093831539
C  C168  1  0.77340000  0.53190000  0.74170000  1.0 -0.2093831539
C  C169  1  0.03190000  0.27340000  0.74170000  1.0 -0.2093831539
C  C170  1  0.53170000  0.29020000  0.25830000  1.0 -0.2093831539
C  C171  1  0.29020000  0.03190000  0.75850000  1.0 -0.2093831539
C  C172  1  0.27340000  0.53170000  0.24150000  1.0 -0.2093831539
C  C173  1  0.46810000  0.20980000  0.24150000  1.0 -0.2093831539
C  C174  1  0.96830000  0.22660000  0.75850000  1.0 -0.2093831539
C  C175  1  0.20980000  0.96830000  0.74170000  1.0 -0.2093831539
C  C176  1  0.22660000  0.46810000  0.25830000  1.0 -0.2093831539
C  C177  1  0.98680000  0.75000000  0.23680000  1.0 0.1520711715
C  C178  1  0.51320000  0.75000000  0.76320000  1.0 0.1520711715
C  C179  1  0.75000000  0.98680000  0.23680000  1.0 0.1520711715
C  C180  1  0.75000000  0.51320000  0.76320000  1.0 0.1520711715
C  C181  1  0.01320000  0.25000000  0.76320000  1.0 0.1520711715
C  C182  1  0.48680000  0.25000000  0.23680000  1.0 0.1520711715
C  C183  1  0.25000000  0.01320000  0.76320000  1.0 0.1520711715
C  C184  1  0.25000000  0.48680000  0.23680000  1.0 0.1520711715
C  C185  1  0.04530000  0.75000000  0.29530000  1.0 -0.169513607
C  C186  1  0.45470000  0.75000000  0.70470000  1.0 -0.169513607
C  C187  1  0.75000000  0.04530000  0.29530000  1.0 -0.169513607
C  C188  1  0.75000000  0.45470000  0.70470000  1.0 -0.169513607
C  C189  1  0.95470000  0.25000000  0.70470000  1.0 -0.169513607
C  C190  1  0.54530000  0.25000000  0.29530000  1.0 -0.169513607
C  C191  1  0.25000000  0.95470000  0.70470000  1.0 -0.169513607
C  C192  1  0.25000000  0.54530000  0.29530000  1.0 -0.169513607
C  C193  1  0.95220000  0.75000000  0.20220000  1.0 -0.112466008
C  C194  1  0.54780000  0.75000000  0.79780000  1.0 -0.112466008
C  C195  1  0.75000000  0.95220000  0.20220000  1.0 -0.112466008
C  C196  1  0.75000000  0.54780000  0.79780000  1.0 -0.112466008
C  C197  1  0.04780000  0.25000000  0.79780000  1.0 -0.112466008
C  C198  1  0.45220000  0.25000000  0.20220000  1.0 -0.112466008
C  C199  1  0.25000000  0.04780000  0.79780000  1.0 -0.112466008
C  C200  1  0.25000000  0.45220000  0.20220000  1.0 -0.112466008
C  C201  1  0.92350000  0.75000000  0.17350000  1.0 -0.1412239554
C  C202  1  0.57650000  0.75000000  0.82650000  1.0 -0.1412239554
C  C203  1  0.75000000  0.92350000  0.17350000  1.0 -0.1412239554
C  C204  1  0.75000000  0.57650000  0.82650000  1.0 -0.1412239554
C  C205  1  0.07650000  0.25000000  0.82650000  1.0 -0.1412239554
C  C206  1  0.42350000  0.25000000  0.17350000  1.0 -0.1522364487
C  C207  1  0.25000000  0.07650000  0.82650000  1.0 -0.1412239554
C  C208  1  0.25000000  0.42350000  0.17350000  1.0 -0.1412239554
C  C209  1  0.89370000  0.75000000  0.14370000  1.0 0.1299086213
C  C210  1  0.60630000  0.75000000  0.85630000  1.0 0.1356088189
C  C211  1  0.75000000  0.89370000  0.14370000  1.0 0.1356088189
C  C212  1  0.75000000  0.60630000  0.85630000  1.0 0.1356088189
C  C213  1  0.10630000  0.25000000  0.85630000  1.0 0.1356088189
C  C214  1  0.39370000  0.25000000  0.14370000  1.0 0.1299086213
C  C215  1  0.25000000  0.10630000  0.85630000  1.0 0.1356088189
C  C216  1  0.25000000  0.39370000  0.14370000  1.0 0.1299086213
C  C217  1  0.84650000  0.71730000  0.13140000  1.0 -0.1155780271
C  C218  1  0.58590000  0.71510000  0.86860000  1.0 -0.1155780271
C  C219  1  0.71510000  0.84650000  0.12920000  1.0 -0.1155780271
C  C220  1  0.71730000  0.58590000  0.87080000  1.0 -0.112466008
C  C221  1  0.65350000  0.78490000  0.87080000  1.0 -0.1155780271
C  C222  1  0.91410000  0.78270000  0.12920000  1.0 -0.1155780271
C  C223  1  0.78490000  0.91410000  0.13140000  1.0 -0.1155780271
C  C224  1  0.78270000  0.65350000  0.86860000  1.0 -0.112466008
C  C225  1  0.15350000  0.28270000  0.86860000  1.0 -0.1155780271
C  C226  1  0.41410000  0.28490000  0.13140000  1.0 -0.112466008
C  C227  1  0.28490000  0.15350000  0.87080000  1.0 -0.1155780271
C  C228  1  0.28270000  0.41410000  0.12920000  1.0 -0.112466008
C  C229  1  0.34650000  0.21510000  0.12920000  1.0 -0.112466008
C  C230  1  0.08590000  0.21730000  0.87080000  1.0 -0.112466008
C  C231  1  0.21510000  0.08590000  0.86860000  1.0 -0.112466008
C  C232  1  0.21730000  0.34650000  0.13140000  1.0 -0.112466008
C  C233  1  0.81880000  0.71878000  0.10298000  1.0 -0.1008016313
C  C234  1  0.61580000  0.71582000  0.89702000  1.0 -0.1008016313
C  C235  1  0.71582000  0.81880000  0.10002000  1.0 -0.1008016313
C  C236  1  0.71878000  0.61580000  0.89998000  1.0 -0.1008016313
C  C237  1  0.68120000  0.78418000  0.89998000  1.0 -0.1008016313
C  C238  1  0.88420000  0.78122000  0.10002000  1.0 -0.1008016313
C  C239  1  0.78418000  0.88420000  0.10298000  1.0 -0.1008016313
C  C240  1  0.78122000  0.68120000  0.89702000  1.0 -0.1008016313
C  C241  1  0.18120000  0.28122000  0.89702000  1.0 -0.1008016313
C  C242  1  0.38420000  0.28418000  0.10298000  1.0 -0.1008016313
C  C243  1  0.28418000  0.18120000  0.89998000  1.0 -0.1008016313
C  C244  1  0.28122000  0.38420000  0.10002000  1.0 -0.1008016313
C  C245  1  0.31880000  0.21582000  0.10002000  1.0 -0.1008016313
C  C246  1  0.11580000  0.21878000  0.89998000  1.0 -0.1008016313
C  C247  1  0.21582000  0.11580000  0.89702000  1.0 -0.1008016313
C  C248  1  0.21878000  0.31880000  0.10298000  1.0 -0.1008016313
C  C249  1  0.83610000  0.75000000  0.08610000  1.0 0.0071672551
C  C250  1  0.66390000  0.75000000  0.91390000  1.0 0.0071672551
C  C251  1  0.75000000  0.83610000  0.08610000  1.0 0.0071672551
C  C252  1  0.75000000  0.66390000  0.91390000  1.0 0.0071672551
C  C253  1  0.16390000  0.25000000  0.91390000  1.0 0.0071672551
C  C254  1  0.33610000  0.25000000  0.08610000  1.0 0.0071672551
C  C255  1  0.25000000  0.16390000  0.91390000  1.0 0.0071672551
C  C256  1  0.25000000  0.33610000  0.08610000  1.0 0.0071672551
C  C257  1  0.80250000  0.75000000  0.05250000  1.0 0.5523326481
C  C258  1  0.69750000  0.75000000  0.94750000  1.0 0.5523326481
C  C259  1  0.75000000  0.80250000  0.05250000  1.0 0.5523326481
C  C260  1  0.75000000  0.69750000  0.94750000  1.0 0.5523326481
C  C261  1  0.19750000  0.25000000  0.94750000  1.0 0.5523326481
C  C262  1  0.30250000  0.25000000  0.05250000  1.0 0.5523326481
C  C263  1  0.25000000  0.19750000  0.94750000  1.0 0.5523326481
C  C264  1  0.25000000  0.30250000  0.05250000  1.0 0.5523326481
C  C265  1  0.97590000  0.56280000  0.53870000  1.0 -0.0176880698
C  C266  1  0.02410000  0.43720000  0.46130000  1.0 -0.0176880698
C  C267  1  0.43720000  0.97590000  0.41310000  1.0 -0.0176880698
C  C268  1  0.56280000  0.02410000  0.58690000  1.0 -0.0176880698
C  C269  1  0.52410000  0.06280000  0.58690000  1.0 -0.0176880698
C  C270  1  0.47590000  0.93720000  0.41310000  1.0 -0.0176880698
C  C271  1  0.06280000  0.47590000  0.53870000  1.0 -0.0176880698
C  C272  1  0.93720000  0.52410000  0.46130000  1.0 -0.0176880698
C  C273  1  0.99860000  0.54060000  0.53920000  1.0 -0.1008016313
C  C274  1  0.00140000  0.45940000  0.46080000  1.0 -0.1008016313
C  C275  1  0.45940000  0.99860000  0.45800000  1.0 -0.1008016313
C  C276  1  0.54060000  0.00140000  0.54200000  1.0 -0.1008016313
C  C277  1  0.50140000  0.04060000  0.54200000  1.0 -0.1008016313
C  C278  1  0.49860000  0.95940000  0.45800000  1.0 -0.1008016313
C  C279  1  0.04060000  0.49860000  0.53920000  1.0 -0.1008016313
C  C280  1  0.95940000  0.50140000  0.46080000  1.0 -0.1008016313
C  C281  1  0.98952000  0.51048000  0.50000000  1.0 0.0499546923
C  C282  1  0.01048000  0.48952000  0.50000000  1.0 0.0499546923
C  C283  1  0.48952000  0.98952000  0.47904000  1.0 0.0499546923
C  C284  1  0.51048000  0.01048000  0.52096000  1.0 0.0499546923
C  C285  1  0.92270000  0.50970000  0.50000000  1.0 -0.0176880698
C  C286  1  0.00970000  0.42270000  0.50000000  1.0 -0.0176880698
C  C287  1  0.42270000  0.92270000  0.41300000  1.0 -0.0176880698
C  C288  1  0.50970000  0.00970000  0.58700000  1.0 -0.0176880698
C  C289  1  0.57730000  0.07730000  0.58700000  1.0 -0.0176880698
C  C290  1  0.49030000  0.99030000  0.41300000  1.0 -0.0176880698
C  C291  1  0.07730000  0.49030000  0.50000000  1.0 -0.0176880698
C  C292  1  0.99030000  0.57730000  0.50000000  1.0 -0.0176880698
C  C293  1  0.94480000  0.48700000  0.50000000  1.0 -0.112466008
C  C294  1  0.98700000  0.44480000  0.50000000  1.0 -0.112466008
C  C295  1  0.44480000  0.94480000  0.45780000  1.0 -0.112466008
C  C296  1  0.48700000  0.98700000  0.54220000  1.0 -0.112466008
C  C297  1  0.55520000  0.05520000  0.54220000  1.0 -0.112466008
C  C298  1  0.51300000  0.01300000  0.45780000  1.0 -0.112466008
C  C299  1  0.05520000  0.51300000  0.50000000  1.0 -0.112466008
C  C300  1  0.01300000  0.55520000  0.50000000  1.0 -0.112466008
N  N1  1  0.94590000  0.55410000  0.50000000  1.0 -0.0688554824
N  N2  1  0.05410000  0.44590000  0.50000000  1.0 -0.0688554824
N  N3  1  0.44590000  0.94590000  0.39180000  1.0 -0.0688554824
N  N4  1  0.55410000  0.05410000  0.60820000  1.0 -0.0640043296
O  O1  1  0.89036000  0.64088000  0.45874000  1.0 -0.518250493
O  O2  1  0.18214000  0.43162000  0.54126000  1.0 -0.518250493
O  O3  1  0.43162000  0.89036000  0.24948000  1.0 -0.518250493
O  O4  1  0.64088000  0.18214000  0.75052000  1.0 -0.518250493
O  O5  1  0.60964000  0.06838000  0.75052000  1.0 -0.518250493
O  O6  1  0.31786000  0.85912000  0.24948000  1.0 -0.518250493
O  O7  1  0.06838000  0.31786000  0.45874000  1.0 -0.518250493
O  O8  1  0.85912000  0.60964000  0.54126000  1.0 -0.518250493
O  O9  1  0.10964000  0.35912000  0.54126000  1.0 -0.518250493
O  O10  1  0.81786000  0.56838000  0.45874000  1.0 -0.518250493
O  O11  1  0.56838000  0.10964000  0.75052000  1.0 -0.518250493
O  O12  1  0.35912000  0.81786000  0.24948000  1.0 -0.518250493
O  O13  1  0.39036000  0.93162000  0.24948000  1.0 -0.518250493
O  O14  1  0.68214000  0.14088000  0.75052000  1.0 -0.518250493
O  O15  1  0.93162000  0.68214000  0.54126000  1.0 -0.518250493
O  O16  1  0.14088000  0.39036000  0.45874000  1.0 -0.518250493
O  O17  1  0.92540000  0.60572000  0.45898000  1.0 -0.484643046
O  O18  1  0.14674000  0.46642000  0.54102000  1.0 -0.484643046
O  O19  1  0.46642000  0.92540000  0.31968000  1.0 -0.4911571682
O  O20  1  0.60572000  0.14674000  0.68032000  1.0 -0.484643046
O  O21  1  0.57460000  0.03358000  0.68032000  1.0 -0.484643046
O  O22  1  0.35326000  0.89428000  0.31968000  1.0 -0.4911571682
O  O23  1  0.03358000  0.35326000  0.45898000  1.0 -0.484643046
O  O24  1  0.89428000  0.57460000  0.54102000  1.0 -0.484643046
O  O25  1  0.07460000  0.39428000  0.54102000  1.0 -0.484643046
O  O26  1  0.85326000  0.53358000  0.45898000  1.0 -0.484643046
O  O27  1  0.53358000  0.07460000  0.68032000  1.0 -0.484643046
O  O28  1  0.39428000  0.85326000  0.31968000  1.0 -0.4911571682
O  O29  1  0.42540000  0.96642000  0.31968000  1.0 -0.4911571682
O  O30  1  0.64674000  0.10572000  0.68032000  1.0 -0.484643046
O  O31  1  0.96642000  0.64674000  0.54102000  1.0 -0.484643046
O  O32  1  0.10572000  0.42540000  0.45898000  1.0 -0.484643046
O  O33  1  0.76177000  0.72146000  0.04311000  1.0 -0.4911571682
O  O34  1  0.67835000  0.71866000  0.95689000  1.0 -0.4911571682
O  O35  1  0.71866000  0.76177000  0.04031000  1.0 -0.4911571682
O  O36  1  0.72146000  0.67835000  0.95969000  1.0 -0.4911571682
O  O37  1  0.73823000  0.78134000  0.95969000  1.0 -0.4911571682
O  O38  1  0.82165000  0.77854000  0.04031000  1.0 -0.4911571682
O  O39  1  0.78134000  0.82165000  0.04311000  1.0 -0.4911571682
O  O40  1  0.77854000  0.73823000  0.95689000  1.0 -0.4911571682
O  O41  1  0.23823000  0.27854000  0.95689000  1.0 -0.4911571682
O  O42  1  0.32165000  0.28134000  0.04311000  1.0 -0.4911571682
O  O43  1  0.28134000  0.23823000  0.95969000  1.0 -0.4911571682
O  O44  1  0.27854000  0.32165000  0.04031000  1.0 -0.4911571682
O  O45  1  0.26177000  0.21866000  0.04031000  1.0 -0.4911571682
O  O46  1  0.17835000  0.22146000  0.95969000  1.0 -0.4911571682
O  O47  1  0.21866000  0.17835000  0.95689000  1.0 -0.4911571682
O  O48  1  0.22146000  0.26177000  0.04311000  1.0 -0.4911571682
