# DDEC6 charges by PACMAN v1.1 (https://github.com/mtap-research/PACMAN-charge/)
data_QIYDIN01_ASR_pacman
_symmetry_space_group_name_H-M   'P 1'
_cell_length_a   35.12050000
_cell_length_b   35.12050000
_cell_length_c   32.96740000
_cell_angle_alpha   88.18150000
_cell_angle_beta   91.81850000
_cell_angle_gamma   85.08600000
_symmetry_Int_Tables_number   1
_chemical_formula_structural   CuH10(C11O2)2
_chemical_formula_sum   'Cu24 H240 C528 O96'
_cell_volume   40469.51516394
_cell_formula_units_Z   24
loop_
 _symmetry_equiv_pos_site_id
 _symmetry_equiv_pos_as_xyz
  1  'x, y, z'
loop_
 _atom_site_type_symbol
 _atom_site_label
 _atom_site_symmetry_multiplicity
 _atom_site_fract_x
 _atom_site_fract_y
 _atom_site_fract_z
 _atom_site_occupancy
 _atom_site_charge
Cu  Cu1  1  0.28629000  0.00613000  0.77209000  1.0 0.8788123673
Cu  Cu2  1  0.99387000  0.71371000  0.27209000  1.0 0.8851787394
Cu  Cu3  1  0.29527000  0.93103000  0.77657000  1.0 0.8687831259
Cu  Cu4  1  0.06897000  0.70473000  0.27657000  1.0 0.8687831259
Cu  Cu5  1  0.51199000  0.73527000  0.29145000  1.0 0.8603980339
Cu  Cu6  1  0.26473000  0.48801000  0.79145000  1.0 0.8603980339
Cu  Cu7  1  0.58683000  0.72255000  0.29568000  1.0 0.8687831259
Cu  Cu8  1  0.27745000  0.41317000  0.79568000  1.0 0.8687831259
Cu  Cu9  1  0.78081000  0.21305000  0.08515000  1.0 0.8603980339
Cu  Cu10  1  0.78695000  0.21919000  0.58515000  1.0 0.8603980339
Cu  Cu11  1  0.77710000  0.22052000  0.00545000  1.0 0.8788123673
Cu  Cu12  1  0.77948000  0.22290000  0.50545000  1.0 0.8788123673
Cu  Cu13  1  0.00613000  0.28629000  0.72791000  1.0 0.8788123673
Cu  Cu14  1  0.71371000  0.99387000  0.22791000  1.0 0.8851787394
Cu  Cu15  1  0.93103000  0.29527000  0.72343000  1.0 0.8687831259
Cu  Cu16  1  0.70473000  0.06897000  0.22343000  1.0 0.8687831259
Cu  Cu17  1  0.73527000  0.51199000  0.20855000  1.0 0.8603980339
Cu  Cu18  1  0.48801000  0.26473000  0.70855000  1.0 0.8603980339
Cu  Cu19  1  0.72255000  0.58683000  0.20432000  1.0 0.8687831259
Cu  Cu20  1  0.41317000  0.27745000  0.70432000  1.0 0.8687831259
Cu  Cu21  1  0.21305000  0.78081000  0.41485000  1.0 0.8603980339
Cu  Cu22  1  0.21919000  0.78695000  0.91485000  1.0 0.8603980339
Cu  Cu23  1  0.22052000  0.77710000  0.49455000  1.0 0.8788123673
Cu  Cu24  1  0.22290000  0.77948000  0.99455000  1.0 0.8788123673
H  H1  1  0.39330000  0.02450000  0.83500000  1.0 0.1290354154
H  H2  1  0.97550000  0.60670000  0.33500000  1.0 0.1290354154
H  H3  1  0.44840000  0.02460000  0.87640000  1.0 0.121482683
H  H4  1  0.97540000  0.55160000  0.37640000  1.0 0.121482683
H  H5  1  0.44070000  0.91350000  0.90750000  1.0 0.1290354154
H  H6  1  0.08650000  0.55930000  0.40750000  1.0 0.1290354154
H  H7  1  0.38560000  0.91340000  0.86610000  1.0 0.121482683
H  H8  1  0.08660000  0.61440000  0.36610000  1.0 0.121482683
H  H9  1  0.51910000  0.91750000  0.00760000  1.0 0.1290354154
H  H10  1  0.08250000  0.48090000  0.50760000  1.0 0.1290354154
H  H11  1  0.61250000  0.95470000  0.06280000  1.0 0.1290354154
H  H12  1  0.04530000  0.38750000  0.56280000  1.0 0.1290354154
H  H13  1  0.56400000  0.01160000  0.96340000  1.0 0.1401762924
H  H14  1  0.98840000  0.43600000  0.46340000  1.0 0.1401762924
H  H15  1  0.50480000  0.84960000  0.12850000  1.0 0.121482683
H  H16  1  0.15040000  0.49520000  0.62850000  1.0 0.121482683
H  H17  1  0.50020000  0.80700000  0.18340000  1.0 0.1290354154
H  H18  1  0.19300000  0.49980000  0.68340000  1.0 0.1290354154
H  H19  1  0.61460000  0.80200000  0.20280000  1.0 0.1290354154
H  H20  1  0.19800000  0.38540000  0.70280000  1.0 0.1290354154
H  H21  1  0.61920000  0.84460000  0.14800000  1.0 0.121482683
H  H22  1  0.15540000  0.38080000  0.64800000  1.0 0.121482683
H  H23  1  0.66530000  0.08490000  0.96850000  1.0 0.121482683
H  H24  1  0.91510000  0.33470000  0.46850000  1.0 0.121482683
H  H25  1  0.70450000  0.13470000  0.97530000  1.0 0.1290354154
H  H26  1  0.86530000  0.29550000  0.47530000  1.0 0.1290354154
H  H27  1  0.71420000  0.11260000  0.09620000  1.0 0.121482683
H  H28  1  0.88740000  0.28580000  0.59620000  1.0 0.121482683
H  H29  1  0.67500000  0.06280000  0.08940000  1.0 0.121482683
H  H30  1  0.93720000  0.32500000  0.58940000  1.0 0.121482683
H  H31  1  0.48450000  0.64970000  0.21230000  1.0 0.1290354154
H  H32  1  0.35030000  0.51550000  0.71230000  1.0 0.1290354154
H  H33  1  0.47690000  0.59930000  0.16930000  1.0 0.121482683
H  H34  1  0.40070000  0.52310000  0.66930000  1.0 0.121482683
H  H35  1  0.59120000  0.57300000  0.17360000  1.0 0.121482683
H  H36  1  0.42700000  0.40880000  0.67360000  1.0 0.121482683
H  H37  1  0.59870000  0.62350000  0.21660000  1.0 0.121482683
H  H38  1  0.37650000  0.40130000  0.71660000  1.0 0.121482683
H  H39  1  0.56760000  0.46480000  0.10710000  1.0 0.1290354154
H  H40  1  0.53520000  0.43240000  0.60710000  1.0 0.1290354154
H  H41  1  0.50880000  0.41640000  0.01810000  1.0 0.1290354154
H  H42  1  0.58360000  0.49120000  0.51810000  1.0 0.1290354154
H  H43  1  0.46660000  0.51600000  0.06380000  1.0 0.1290354154
H  H44  1  0.48400000  0.53340000  0.56380000  1.0 0.1290354154
H  H45  1  0.63940000  0.34040000  0.11900000  1.0 0.1290354154
H  H46  1  0.65960000  0.36060000  0.61900000  1.0 0.1290354154
H  H47  1  0.68980000  0.29340000  0.11340000  1.0 0.1290354154
H  H48  1  0.70660000  0.31020000  0.61340000  1.0 0.1290354154
H  H49  1  0.67490000  0.29950000  0.99140000  1.0 0.1290354154
H  H50  1  0.70050000  0.32510000  0.49140000  1.0 0.1290354154
H  H51  1  0.62460000  0.34660000  0.99700000  1.0 0.121482683
H  H52  1  0.65340000  0.37540000  0.49700000  1.0 0.121482683
H  H53  1  0.37390000  0.51970000  0.95140000  1.0 0.1290354154
H  H54  1  0.48030000  0.62610000  0.45140000  1.0 0.1290354154
H  H55  1  0.33010000  0.51450000  0.89780000  1.0 0.121482683
H  H56  1  0.48550000  0.66990000  0.39780000  1.0 0.121482683
H  H57  1  0.36500000  0.40240000  0.89140000  1.0 0.121482683
H  H58  1  0.59760000  0.63500000  0.39140000  1.0 0.121482683
H  H59  1  0.40890000  0.40770000  0.94500000  1.0 0.121482683
H  H60  1  0.59230000  0.59110000  0.44500000  1.0 0.121482683
H  H61  1  0.61270000  0.81310000  0.37670000  1.0 0.1290354154
H  H62  1  0.18690000  0.38730000  0.87670000  1.0 0.1290354154
H  H63  1  0.61470000  0.86290000  0.42150000  1.0 0.121482683
H  H64  1  0.13710000  0.38530000  0.92150000  1.0 0.1290354154
H  H65  1  0.50000000  0.88320000  0.41000000  1.0 0.1290354154
H  H66  1  0.11680000  0.50000000  0.91000000  1.0 0.1290354154
H  H67  1  0.49800000  0.83340000  0.36510000  1.0 0.1290354154
H  H68  1  0.16660000  0.50200000  0.86510000  1.0 0.1290354154
H  H69  1  0.59530000  0.99030000  0.48810000  1.0 0.1290354154
H  H70  1  0.00970000  0.40470000  0.98810000  1.0 0.1290354154
H  H71  1  0.53780000  0.03240000  0.58320000  1.0 0.1290354154
H  H72  1  0.96760000  0.46220000  0.08320000  1.0 0.1290354154
H  H73  1  0.50290000  0.94070000  0.52650000  1.0 0.1290354154
H  H74  1  0.05930000  0.49710000  0.02650000  1.0 0.1290354154
H  H75  1  0.64270000  0.11110000  0.48240000  1.0 0.1290354154
H  H76  1  0.88890000  0.35730000  0.98240000  1.0 0.1290354154
H  H77  1  0.68820000  0.15560000  0.48450000  1.0 0.121482683
H  H78  1  0.84440000  0.31180000  0.98450000  1.0 0.121482683
H  H79  1  0.69820000  0.14080000  0.60640000  1.0 0.1290354154
H  H80  1  0.85920000  0.30180000  0.10640000  1.0 0.1290354154
H  H81  1  0.65270000  0.09630000  0.60430000  1.0 0.121482683
H  H82  1  0.90370000  0.34730000  0.10430000  1.0 0.121482683
H  H83  1  0.40980000  0.03560000  0.63300000  1.0 0.121482683
H  H84  1  0.96440000  0.59020000  0.13300000  1.0 0.121482683
H  H85  1  0.36040000  0.03140000  0.67800000  1.0 0.121482683
H  H86  1  0.96860000  0.63960000  0.17800000  1.0 0.121482683
H  H87  1  0.38460000  0.91700000  0.68850000  1.0 0.1290354154
H  H88  1  0.08300000  0.61540000  0.18850000  1.0 0.1290354154
H  H89  1  0.43400000  0.92120000  0.64350000  1.0 0.121482683
H  H90  1  0.07880000  0.56600000  0.14350000  1.0 0.121482683
H  H91  1  0.88700000  0.15920000  0.98420000  1.0 0.1290354154
H  H92  1  0.84080000  0.11300000  0.48420000  1.0 0.1290354154
H  H93  1  0.94340000  0.11920000  0.98290000  1.0 0.121482683
H  H94  1  0.88080000  0.05660000  0.48290000  1.0 0.121482683
H  H95  1  0.93210000  0.08870000  0.10060000  1.0 0.1290354154
H  H96  1  0.91130000  0.06790000  0.60060000  1.0 0.1290354154
H  H97  1  0.87570000  0.12870000  0.10190000  1.0 0.1290354154
H  H98  1  0.87130000  0.12430000  0.60190000  1.0 0.1290354154
H  H99  1  0.06250000  0.03370000  0.99390000  1.0 0.1401762924
H  H100  1  0.96630000  0.93750000  0.49390000  1.0 0.1401762924
H  H101  1  0.10310000  0.93210000  0.04570000  1.0 0.1290354154
H  H102  1  0.06790000  0.89690000  0.54570000  1.0 0.1290354154
H  H103  1  0.00760000  0.98800000  0.08680000  1.0 0.1401762924
H  H104  1  0.01200000  0.99240000  0.58680000  1.0 0.1401762924
H  H105  1  0.16770000  0.03190000  0.91750000  1.0 0.121482683
H  H106  1  0.96810000  0.83230000  0.41750000  1.0 0.121482683
H  H107  1  0.21110000  0.02790000  0.86550000  1.0 0.1290354154
H  H108  1  0.97210000  0.78890000  0.36550000  1.0 0.1290354154
H  H109  1  0.22100000  0.91280000  0.87950000  1.0 0.121482683
H  H110  1  0.08720000  0.77900000  0.37950000  1.0 0.121482683
H  H111  1  0.17770000  0.91690000  0.93150000  1.0 0.121482683
H  H112  1  0.08310000  0.82230000  0.43150000  1.0 0.121482683
H  H113  1  0.10140000  0.84340000  0.14820000  1.0 0.121482683
H  H114  1  0.15660000  0.89860000  0.64820000  1.0 0.121482683
H  H115  1  0.09570000  0.79110000  0.19210000  1.0 0.121482683
H  H116  1  0.20890000  0.90430000  0.69210000  1.0 0.121482683
H  H117  1  0.98200000  0.81920000  0.19600000  1.0 0.1290354154
H  H118  1  0.18080000  0.01800000  0.69600000  1.0 0.1290354154
H  H119  1  0.98770000  0.87170000  0.15220000  1.0 0.121482683
H  H120  1  0.12830000  0.01230000  0.65220000  1.0 0.121482683
H  H121  1  0.02450000  0.39330000  0.66500000  1.0 0.121482683
H  H122  1  0.60670000  0.97550000  0.16500000  1.0 0.1290354154
H  H123  1  0.02460000  0.44840000  0.62360000  1.0 0.121482683
H  H124  1  0.55160000  0.97540000  0.12360000  1.0 0.121482683
H  H125  1  0.91350000  0.44070000  0.59250000  1.0 0.1290354154
H  H126  1  0.55930000  0.08650000  0.09250000  1.0 0.1290354154
H  H127  1  0.91340000  0.38560000  0.63390000  1.0 0.121482683
H  H128  1  0.61440000  0.08660000  0.13390000  1.0 0.121482683
H  H129  1  0.91750000  0.51910000  0.49240000  1.0 0.1290354154
H  H130  1  0.48090000  0.08250000  0.99240000  1.0 0.1290354154
H  H131  1  0.95470000  0.61250000  0.43720000  1.0 0.1290354154
H  H132  1  0.38750000  0.04530000  0.93720000  1.0 0.1290354154
H  H133  1  0.01160000  0.56400000  0.53660000  1.0 0.1401762924
H  H134  1  0.43600000  0.98840000  0.03660000  1.0 0.1401762924
H  H135  1  0.84960000  0.50480000  0.37150000  1.0 0.121482683
H  H136  1  0.49520000  0.15040000  0.87150000  1.0 0.121482683
H  H137  1  0.80700000  0.50020000  0.31660000  1.0 0.1290354154
H  H138  1  0.49980000  0.19300000  0.81660000  1.0 0.1290354154
H  H139  1  0.80200000  0.61460000  0.29720000  1.0 0.1290354154
H  H140  1  0.38540000  0.19800000  0.79720000  1.0 0.1290354154
H  H141  1  0.84460000  0.61920000  0.35200000  1.0 0.121482683
H  H142  1  0.38080000  0.15540000  0.85200000  1.0 0.121482683
H  H143  1  0.08490000  0.66530000  0.53150000  1.0 0.121482683
H  H144  1  0.33470000  0.91510000  0.03150000  1.0 0.121482683
H  H145  1  0.13470000  0.70450000  0.52470000  1.0 0.1290354154
H  H146  1  0.29550000  0.86530000  0.02470000  1.0 0.1290354154
H  H147  1  0.11260000  0.71420000  0.40380000  1.0 0.121482683
H  H148  1  0.28580000  0.88740000  0.90380000  1.0 0.121482683
H  H149  1  0.06280000  0.67500000  0.41060000  1.0 0.121482683
H  H150  1  0.32500000  0.93720000  0.91060000  1.0 0.121482683
H  H151  1  0.64970000  0.48450000  0.28770000  1.0 0.1290354154
H  H152  1  0.51550000  0.35030000  0.78770000  1.0 0.1290354154
H  H153  1  0.59930000  0.47690000  0.33070000  1.0 0.121482683
H  H154  1  0.52310000  0.40070000  0.83070000  1.0 0.121482683
H  H155  1  0.57300000  0.59120000  0.32640000  1.0 0.121482683
H  H156  1  0.40880000  0.42700000  0.82640000  1.0 0.121482683
H  H157  1  0.62350000  0.59870000  0.28340000  1.0 0.121482683
H  H158  1  0.40130000  0.37650000  0.78340000  1.0 0.121482683
H  H159  1  0.46480000  0.56760000  0.39290000  1.0 0.1290354154
H  H160  1  0.43240000  0.53520000  0.89290000  1.0 0.1290354154
H  H161  1  0.41640000  0.50880000  0.48190000  1.0 0.1290354154
H  H162  1  0.49120000  0.58360000  0.98190000  1.0 0.1290354154
H  H163  1  0.51600000  0.46660000  0.43620000  1.0 0.1290354154
H  H164  1  0.53340000  0.48400000  0.93620000  1.0 0.1290354154
H  H165  1  0.34040000  0.63940000  0.38100000  1.0 0.1290354154
H  H166  1  0.36060000  0.65960000  0.88100000  1.0 0.1290354154
H  H167  1  0.29340000  0.68980000  0.38660000  1.0 0.1290354154
H  H168  1  0.31020000  0.70660000  0.88660000  1.0 0.1290354154
H  H169  1  0.29950000  0.67490000  0.50860000  1.0 0.1290354154
H  H170  1  0.32510000  0.70050000  0.00860000  1.0 0.1290354154
H  H171  1  0.34660000  0.62460000  0.50300000  1.0 0.121482683
H  H172  1  0.37540000  0.65340000  0.00300000  1.0 0.121482683
H  H173  1  0.51970000  0.37390000  0.54860000  1.0 0.1290354154
H  H174  1  0.62610000  0.48030000  0.04860000  1.0 0.1290354154
H  H175  1  0.51450000  0.33010000  0.60220000  1.0 0.121482683
H  H176  1  0.66990000  0.48550000  0.10220000  1.0 0.121482683
H  H177  1  0.40240000  0.36500000  0.60860000  1.0 0.121482683
H  H178  1  0.63500000  0.59760000  0.10860000  1.0 0.121482683
H  H179  1  0.40770000  0.40890000  0.55500000  1.0 0.121482683
H  H180  1  0.59110000  0.59230000  0.05500000  1.0 0.121482683
H  H181  1  0.81310000  0.61270000  0.12330000  1.0 0.1290354154
H  H182  1  0.38730000  0.18690000  0.62330000  1.0 0.1290354154
H  H183  1  0.86290000  0.61470000  0.07850000  1.0 0.121482683
H  H184  1  0.38530000  0.13710000  0.57850000  1.0 0.1290354154
H  H185  1  0.88320000  0.50000000  0.09000000  1.0 0.1290354154
H  H186  1  0.50000000  0.11680000  0.59000000  1.0 0.1290354154
H  H187  1  0.83340000  0.49800000  0.13490000  1.0 0.1290354154
H  H188  1  0.50200000  0.16660000  0.63490000  1.0 0.1290354154
H  H189  1  0.99030000  0.59530000  0.01190000  1.0 0.1290354154
H  H190  1  0.40470000  0.00970000  0.51190000  1.0 0.1290354154
H  H191  1  0.03240000  0.53780000  0.91680000  1.0 0.1290354154
H  H192  1  0.46220000  0.96760000  0.41680000  1.0 0.1290354154
H  H193  1  0.94070000  0.50290000  0.97350000  1.0 0.1290354154
H  H194  1  0.49710000  0.05930000  0.47350000  1.0 0.1290354154
H  H195  1  0.11110000  0.64270000  0.01760000  1.0 0.1290354154
H  H196  1  0.35730000  0.88890000  0.51760000  1.0 0.1290354154
H  H197  1  0.15560000  0.68820000  0.01550000  1.0 0.121482683
H  H198  1  0.31180000  0.84440000  0.51550000  1.0 0.121482683
H  H199  1  0.14080000  0.69820000  0.89360000  1.0 0.1290354154
H  H200  1  0.30180000  0.85920000  0.39360000  1.0 0.1290354154
H  H201  1  0.09630000  0.65270000  0.89570000  1.0 0.121482683
H  H202  1  0.34730000  0.90370000  0.39570000  1.0 0.121482683
H  H203  1  0.03560000  0.40980000  0.86700000  1.0 0.121482683
H  H204  1  0.59020000  0.96440000  0.36700000  1.0 0.121482683
H  H205  1  0.03140000  0.36040000  0.82200000  1.0 0.121482683
H  H206  1  0.63960000  0.96860000  0.32200000  1.0 0.121482683
H  H207  1  0.91700000  0.38460000  0.81150000  1.0 0.1290354154
H  H208  1  0.61540000  0.08300000  0.31150000  1.0 0.1290354154
H  H209  1  0.92120000  0.43400000  0.85650000  1.0 0.121482683
H  H210  1  0.56600000  0.07880000  0.35650000  1.0 0.121482683
H  H211  1  0.15920000  0.88700000  0.51580000  1.0 0.1290354154
H  H212  1  0.11300000  0.84080000  0.01580000  1.0 0.1290354154
H  H213  1  0.11920000  0.94340000  0.51710000  1.0 0.121482683
H  H214  1  0.05660000  0.88080000  0.01710000  1.0 0.121482683
H  H215  1  0.08870000  0.93210000  0.39940000  1.0 0.1290354154
H  H216  1  0.06790000  0.91130000  0.89940000  1.0 0.1290354154
H  H217  1  0.12870000  0.87570000  0.39810000  1.0 0.1290354154
H  H218  1  0.12430000  0.87130000  0.89810000  1.0 0.1290354154
H  H219  1  0.03370000  0.06250000  0.50610000  1.0 0.1401762924
H  H220  1  0.93750000  0.96630000  0.00610000  1.0 0.1401762924
H  H221  1  0.93210000  0.10310000  0.45430000  1.0 0.1290354154
H  H222  1  0.89690000  0.06790000  0.95430000  1.0 0.1290354154
H  H223  1  0.98800000  0.00760000  0.41320000  1.0 0.1401762924
H  H224  1  0.99240000  0.01200000  0.91320000  1.0 0.1401762924
H  H225  1  0.03190000  0.16770000  0.58250000  1.0 0.121482683
H  H226  1  0.83230000  0.96810000  0.08250000  1.0 0.121482683
H  H227  1  0.02790000  0.21110000  0.63450000  1.0 0.1290354154
H  H228  1  0.78890000  0.97210000  0.13450000  1.0 0.1290354154
H  H229  1  0.91280000  0.22100000  0.62050000  1.0 0.121482683
H  H230  1  0.77900000  0.08720000  0.12050000  1.0 0.121482683
H  H231  1  0.91690000  0.17770000  0.56850000  1.0 0.121482683
H  H232  1  0.82230000  0.08310000  0.06850000  1.0 0.121482683
H  H233  1  0.84340000  0.10140000  0.35180000  1.0 0.121482683
H  H234  1  0.89860000  0.15660000  0.85180000  1.0 0.121482683
H  H235  1  0.79110000  0.09570000  0.30790000  1.0 0.121482683
H  H236  1  0.90430000  0.20890000  0.80790000  1.0 0.121482683
H  H237  1  0.81920000  0.98200000  0.30400000  1.0 0.1290354154
H  H238  1  0.01800000  0.18080000  0.80400000  1.0 0.1290354154
H  H239  1  0.87170000  0.98770000  0.34780000  1.0 0.121482683
H  H240  1  0.01230000  0.12830000  0.84780000  1.0 0.121482683
C  C1  1  0.34928000  0.97070000  0.82290000  1.0 0.5489497876
C  C2  1  0.02930000  0.65072000  0.32290000  1.0 0.5489497876
C  C3  1  0.38419000  0.96897000  0.84658000  1.0 -0.0723685303
C  C4  1  0.03103000  0.61581000  0.34658000  1.0 -0.0723685303
C  C5  1  0.40292000  0.00210000  0.84966000  1.0 -0.0799572942
C  C6  1  0.99790000  0.59708000  0.34966000  1.0 -0.0799572942
C  C7  1  0.43575000  0.00213000  0.87434000  1.0 -0.1600587943
C  C8  1  0.99787000  0.56425000  0.37434000  1.0 -0.1600587943
C  C9  1  0.44984000  0.96900000  0.89596000  1.0 0.1562314909
C  C10  1  0.03100000  0.55016000  0.39596000  1.0 0.1562314909
C  C11  1  0.43111000  0.93587000  0.89289000  1.0 -0.1487137729
C  C12  1  0.06413000  0.56889000  0.39289000  1.0 -0.1487137729
C  C13  1  0.39828000  0.93584000  0.86820000  1.0 -0.0896170624
C  C14  1  0.06416000  0.60172000  0.36820000  1.0 -0.0799572942
C  C15  1  0.48327000  0.96907000  0.92520000  1.0 -0.1009914904
C  C16  1  0.03093000  0.51673000  0.42520000  1.0 -0.1009914904
C  C17  1  0.50795000  0.96849000  0.95040000  1.0 -0.1009914904
C  C18  1  0.03151000  0.49205000  0.45040000  1.0 -0.1009914904
C  C19  1  0.53695000  0.96519000  0.98051000  1.0 0.1290354154
C  C20  1  0.03481000  0.46305000  0.48051000  1.0 0.1290354154
C  C21  1  0.53766000  0.93516000  0.00909000  1.0 -0.1776722085
C  C22  1  0.06484000  0.46234000  0.50909000  1.0 -0.1776722085
C  C23  1  0.56587000  0.93125000  0.03984000  1.0 0.1494331848
C  C24  1  0.06875000  0.43413000  0.53984000  1.0 0.1494331848
C  C25  1  0.59337000  0.95739000  0.04201000  1.0 -0.1776722085
C  C26  1  0.04261000  0.40663000  0.54201000  1.0 -0.1776722085
C  C27  1  0.59266000  0.98742000  0.01343000  1.0 0.1494331848
C  C28  1  0.01258000  0.40734000  0.51343000  1.0 0.1494331848
C  C29  1  0.56445000  0.99133000  0.98268000  1.0 -0.174543418
C  C30  1  0.00867000  0.43555000  0.48268000  1.0 -0.174543418
C  C31  1  0.56459000  0.90339000  0.07190000  1.0 -0.1088357275
C  C32  1  0.09661000  0.43541000  0.57190000  1.0 -0.1088357275
C  C33  1  0.56360000  0.87900000  0.10180000  1.0 -0.1201856064
C  C34  1  0.12100000  0.43640000  0.60180000  1.0 -0.1201856064
C  C35  1  0.56236000  0.85124000  0.13296000  1.0 0.1401762924
C  C36  1  0.14876000  0.43764000  0.63296000  1.0 0.1401762924
C  C37  1  0.52689000  0.84001000  0.14350000  1.0 -0.1410296085
C  C38  1  0.15999000  0.47311000  0.64350000  1.0 -0.1410296085
C  C39  1  0.52418000  0.81456000  0.17630000  1.0 -0.0799572942
C  C40  1  0.18544000  0.47582000  0.67630000  1.0 -0.0799572942
C  C41  1  0.55694000  0.80034000  0.19843000  1.0 -0.0580881284
C  C42  1  0.19966000  0.44306000  0.69843000  1.0 -0.0580881284
C  C43  1  0.59241000  0.81157000  0.18790000  1.0 -0.0799572942
C  C44  1  0.18843000  0.40759000  0.68790000  1.0 -0.0799572942
C  C45  1  0.59513000  0.83701000  0.15510000  1.0 -0.1487137729
C  C46  1  0.16299000  0.40487000  0.65510000  1.0 -0.1487137729
C  C47  1  0.55402000  0.77482000  0.23350000  1.0 0.5577710217
C  C48  1  0.22518000  0.44598000  0.73350000  1.0 0.5577710217
C  C49  1  0.61904000  0.01634000  0.01770000  1.0 -0.0896170624
C  C50  1  0.98366000  0.38096000  0.51770000  1.0 -0.0896170624
C  C51  1  0.64119000  0.04121000  0.02410000  1.0 -0.1088357275
C  C52  1  0.95879000  0.35881000  0.52410000  1.0 -0.1088357275
C  C53  1  0.66634000  0.06906000  0.02830000  1.0 0.1494331848
C  C54  1  0.93094000  0.33366000  0.52830000  1.0 0.1494331848
C  C55  1  0.67514000  0.09052000  0.99427000  1.0 -0.1201856064
C  C56  1  0.90948000  0.32486000  0.49427000  1.0 -0.1201856064
C  C57  1  0.69856000  0.12024000  0.99832000  1.0 -0.0896170624
C  C58  1  0.87976000  0.30144000  0.49832000  1.0 -0.0896170624
C  C59  1  0.71317000  0.12849000  0.03642000  1.0 -0.0580881284
C  C60  1  0.87151000  0.28683000  0.53642000  1.0 -0.0580881284
C  C61  1  0.70436000  0.10702000  0.07046000  1.0 -0.0896170624
C  C62  1  0.89298000  0.29564000  0.57046000  1.0 -0.0896170624
C  C63  1  0.68094000  0.07730000  0.06641000  1.0 -0.1410296085
C  C64  1  0.92270000  0.31906000  0.56641000  1.0 -0.1410296085
C  C65  1  0.73722000  0.15956000  0.04100000  1.0 0.5707408248
C  C66  1  0.84044000  0.26278000  0.54100000  1.0 0.5707408248
C  C67  1  0.54144000  0.67544000  0.24306000  1.0 0.5577710217
C  C68  1  0.32456000  0.45856000  0.74306000  1.0 0.5577710217
C  C69  1  0.54231000  0.64141000  0.21858000  1.0 -0.0313467158
C  C70  1  0.35859000  0.45769000  0.71858000  1.0 -0.0313467158
C  C71  1  0.50600000  0.63422000  0.20447000  1.0 -0.1009914904
C  C72  1  0.36578000  0.49400000  0.70447000  1.0 -0.1009914904
C  C73  1  0.50150000  0.60416000  0.17881000  1.0 -0.1201856064
C  C74  1  0.39584000  0.49850000  0.67881000  1.0 -0.1201856064
C  C75  1  0.53333000  0.58129000  0.16726000  1.0 0.1494331848
C  C76  1  0.41871000  0.46667000  0.66726000  1.0 0.1494331848
C  C77  1  0.56965000  0.58849000  0.18137000  1.0 -0.1291502222
C  C78  1  0.41151000  0.43035000  0.68137000  1.0 -0.1291502222
C  C79  1  0.57414000  0.61856000  0.20703000  1.0 -0.0896170624
C  C80  1  0.38144000  0.42586000  0.70703000  1.0 -0.0896170624
C  C81  1  0.52888000  0.55152000  0.14220000  1.0 -0.1088357275
C  C82  1  0.44848000  0.47112000  0.64220000  1.0 -0.1088357275
C  C83  1  0.52412000  0.52578000  0.11750000  1.0 -0.0896170624
C  C84  1  0.47422000  0.47588000  0.61750000  1.0 -0.0896170624
C  C85  1  0.51761000  0.49517000  0.08978000  1.0 0.1562314909
C  C86  1  0.50483000  0.48239000  0.58978000  1.0 0.1562314909
C  C87  1  0.54609000  0.46517000  0.08932000  1.0 -0.188770552
C  C88  1  0.53483000  0.45391000  0.58932000  1.0 -0.188770552
C  C89  1  0.54281000  0.43577000  0.06253000  1.0 0.1562314909
C  C90  1  0.56423000  0.45719000  0.56253000  1.0 0.1562314909
C  C91  1  0.51104000  0.43634000  0.03620000  1.0 -0.188770552
C  C92  1  0.56366000  0.48896000  0.53620000  1.0 -0.188770552
C  C93  1  0.48256000  0.46634000  0.03666000  1.0 0.1290354154
C  C94  1  0.53366000  0.51744000  0.53666000  1.0 0.1290354154
C  C95  1  0.48583000  0.49575000  0.06345000  1.0 -0.1776722085
C  C96  1  0.50425000  0.51417000  0.56345000  1.0 -0.1776722085
C  C97  1  0.57245000  0.40425000  0.06090000  1.0 -0.1009914904
C  C98  1  0.59575000  0.42755000  0.56090000  1.0 -0.1009914904
C  C99  1  0.59794000  0.37854000  0.05990000  1.0 -0.1088357275
C  C100  1  0.62146000  0.40206000  0.55990000  1.0 -0.1088357275
C  C101  1  0.62714000  0.34802000  0.05850000  1.0 0.1290354154
C  C102  1  0.65198000  0.37286000  0.55850000  1.0 0.1290354154
C  C103  1  0.64660000  0.33216000  0.09326000  1.0 -0.1487137729
C  C104  1  0.66784000  0.35340000  0.59326000  1.0 -0.1487137729
C  C105  1  0.67665000  0.30413000  0.08990000  1.0 -0.0896170624
C  C106  1  0.69587000  0.32335000  0.58990000  1.0 -0.0896170624
C  C107  1  0.68725000  0.29193000  0.05190000  1.0 -0.041002169
C  C108  1  0.70807000  0.31275000  0.55190000  1.0 -0.041002169
C  C109  1  0.66779000  0.30779000  0.01715000  1.0 -0.0799572942
C  C110  1  0.69221000  0.33221000  0.51715000  1.0 -0.0799572942
C  C111  1  0.63773000  0.33583000  0.02050000  1.0 -0.1410296085
C  C112  1  0.66417000  0.36227000  0.52050000  1.0 -0.1291502222
C  C113  1  0.72014000  0.26296000  0.05190000  1.0 0.5767036921
C  C114  1  0.73704000  0.27986000  0.55190000  1.0 0.5767036921
C  C115  1  0.45140000  0.46834000  0.00920000  1.0 -0.0896170624
C  C116  1  0.53166000  0.54860000  0.50920000  1.0 -0.0896170624
C  C117  1  0.42602000  0.46584000  0.98610000  1.0 -0.1009914904
C  C118  1  0.53416000  0.57398000  0.48610000  1.0 -0.1009914904
C  C119  1  0.39562000  0.46426000  0.95337000  1.0 0.1494331848
C  C120  1  0.53574000  0.60438000  0.45337000  1.0 0.1494331848
C  C121  1  0.37212000  0.49610000  0.93930000  1.0 -0.1600587943
C  C122  1  0.50390000  0.62788000  0.43930000  1.0 -0.1600587943
C  C123  1  0.34596000  0.49292000  0.90730000  1.0 -0.0799572942
C  C124  1  0.50708000  0.65404000  0.40730000  1.0 -0.0799572942
C  C125  1  0.34330000  0.45790000  0.88940000  1.0 -0.0580881284
C  C126  1  0.54210000  0.65670000  0.38940000  1.0 -0.0580881284
C  C127  1  0.36680000  0.42606000  0.90347000  1.0 -0.0896170624
C  C128  1  0.57394000  0.63320000  0.40347000  1.0 -0.0896170624
C  C129  1  0.39296000  0.42924000  0.93550000  1.0 -0.1487137729
C  C130  1  0.57076000  0.60704000  0.43550000  1.0 -0.1487137729
C  C131  1  0.31648000  0.45622000  0.85530000  1.0 0.5707408248
C  C132  1  0.54378000  0.68352000  0.35530000  1.0 0.5707408248
C  C133  1  0.55044000  0.78564000  0.33980000  1.0 0.5707408248
C  C134  1  0.21436000  0.44956000  0.83980000  1.0 0.5707408248
C  C135  1  0.55512000  0.81846000  0.36660000  1.0 -0.024380254
C  C136  1  0.18154000  0.44488000  0.86660000  1.0 -0.024380254
C  C137  1  0.58996000  0.82724000  0.38340000  1.0 -0.0896170624
C  C138  1  0.17276000  0.41004000  0.88340000  1.0 -0.0799572942
C  C139  1  0.59119000  0.85697000  0.41010000  1.0 -0.1487137729
C  C140  1  0.14303000  0.40881000  0.91010000  1.0 -0.1487137729
C  C141  1  0.55757000  0.87791000  0.42006000  1.0 0.1290354154
C  C142  1  0.12209000  0.44243000  0.92006000  1.0 0.1290354154
C  C143  1  0.52273000  0.86911000  0.40320000  1.0 -0.1410296085
C  C144  1  0.13089000  0.47727000  0.90320000  1.0 -0.1410296085
C  C145  1  0.52151000  0.83939000  0.37650000  1.0 -0.0896170624
C  C146  1  0.16061000  0.47849000  0.87650000  1.0 -0.0896170624
C  C147  1  0.55570000  0.90928000  0.44660000  1.0 -0.1201856064
C  C148  1  0.09072000  0.44430000  0.94660000  1.0 -0.1201856064
C  C149  1  0.55447000  0.93237000  0.47150000  1.0 -0.0799572942
C  C150  1  0.06763000  0.44553000  0.97150000  1.0 -0.0799572942
C  C151  1  0.54986000  0.96118000  0.50241000  1.0 0.1401762924
C  C152  1  0.03882000  0.45014000  0.00241000  1.0 0.1494331848
C  C153  1  0.57519000  0.98931000  0.50602000  1.0 -0.1776722085
C  C154  1  0.01069000  0.42481000  0.00602000  1.0 -0.1776722085
C  C155  1  0.57068000  0.01592000  0.53619000  1.0 0.1290354154
C  C156  1  0.98408000  0.42932000  0.03619000  1.0 0.1290354154
C  C157  1  0.54084000  0.01442000  0.56275000  1.0 -0.174543418
C  C158  1  0.98558000  0.45916000  0.06275000  1.0 -0.174543418
C  C159  1  0.51551000  0.98629000  0.55914000  1.0 0.1401762924
C  C160  1  0.01371000  0.48449000  0.05914000  1.0 0.1401762924
C  C161  1  0.52003000  0.95967000  0.52897000  1.0 -0.1776722085
C  C162  1  0.04033000  0.47997000  0.02897000  1.0 -0.1776722085
C  C163  1  0.59421000  0.04429000  0.53940000  1.0 -0.1088357275
C  C164  1  0.95571000  0.40579000  0.03940000  1.0 -0.1088357275
C  C165  1  0.61755000  0.07117000  0.54210000  1.0 -0.1009914904
C  C166  1  0.92883000  0.38245000  0.04210000  1.0 -0.1009914904
C  C167  1  0.64326000  0.09940000  0.54320000  1.0 0.1290354154
C  C168  1  0.90060000  0.35674000  0.04320000  1.0 0.1290354154
C  C169  1  0.65386000  0.11706000  0.50745000  1.0 -0.1410296085
C  C170  1  0.88294000  0.34614000  0.00745000  1.0 -0.1410296085
C  C171  1  0.68102000  0.14360000  0.50870000  1.0 -0.0723685303
C  C172  1  0.85640000  0.31898000  0.00870000  1.0 -0.0723685303
C  C173  1  0.69758000  0.15246000  0.54570000  1.0 -0.0723685303
C  C174  1  0.84754000  0.30242000  0.04570000  1.0 -0.0723685303
C  C175  1  0.68698000  0.13480000  0.58142000  1.0 -0.0723685303
C  C176  1  0.86520000  0.31302000  0.08142000  1.0 -0.0723685303
C  C177  1  0.65982000  0.10826000  0.58016000  1.0 -0.1410296085
C  C178  1  0.89174000  0.34018000  0.08016000  1.0 -0.1410296085
C  C179  1  0.72858000  0.17594000  0.54670000  1.0 0.5577710217
C  C180  1  0.82406000  0.27142000  0.04670000  1.0 0.5577710217
C  C181  1  0.48396000  0.98420000  0.58440000  1.0 -0.0799572942
C  C182  1  0.01580000  0.51604000  0.08440000  1.0 -0.0799572942
C  C183  1  0.45832000  0.98134000  0.60730000  1.0 -0.1201856064
C  C184  1  0.01866000  0.54168000  0.10730000  1.0 -0.1291502222
C  C185  1  0.42665000  0.97877000  0.63389000  1.0 0.1494331848
C  C186  1  0.02123000  0.57335000  0.13389000  1.0 0.1494331848
C  C187  1  0.40470000  0.01164000  0.64420000  1.0 -0.1487137729
C  C188  1  0.98836000  0.59530000  0.14420000  1.0 -0.1487137729
C  C189  1  0.37524000  0.00916000  0.67110000  1.0 -0.0799572942
C  C190  1  0.99084000  0.62476000  0.17110000  1.0 -0.0799572942
C  C191  1  0.36772000  0.97380000  0.68764000  1.0 -0.0580881284
C  C192  1  0.02620000  0.63228000  0.18764000  1.0 -0.0580881284
C  C193  1  0.38968000  0.94092000  0.67730000  1.0 -0.0799572942
C  C194  1  0.05908000  0.61032000  0.17730000  1.0 -0.0799572942
C  C195  1  0.41914000  0.94340000  0.65050000  1.0 -0.1410296085
C  C196  1  0.05660000  0.58086000  0.15050000  1.0 -0.1410296085
C  C197  1  0.33728000  0.97168000  0.71660000  1.0 0.5767036921
C  C198  1  0.02832000  0.66272000  0.21660000  1.0 0.5767036921
C  C199  1  0.84089000  0.17165000  0.04540000  1.0 0.5577710217
C  C200  1  0.82835000  0.15911000  0.54540000  1.0 0.5577710217
C  C201  1  0.87591000  0.14777000  0.04320000  1.0 -0.0580881284
C  C202  1  0.85223000  0.12409000  0.54320000  1.0 -0.0580881284
C  C203  1  0.89612000  0.14494000  0.00766000  1.0 -0.0799572942
C  C204  1  0.85506000  0.10388000  0.50766000  1.0 -0.0799572942
C  C205  1  0.92976000  0.12110000  0.00689000  1.0 -0.1487137729
C  C206  1  0.87890000  0.07024000  0.50689000  1.0 -0.1487137729
C  C207  1  0.94321000  0.10009000  0.04160000  1.0 0.1401762924
C  C208  1  0.89991000  0.05679000  0.54160000  1.0 0.1401762924
C  C209  1  0.92300000  0.10292000  0.07715000  1.0 -0.1487137729
C  C210  1  0.89708000  0.07700000  0.57715000  1.0 -0.1410296085
C  C211  1  0.88936000  0.12676000  0.07792000  1.0 -0.0896170624
C  C212  1  0.87324000  0.11064000  0.57792000  1.0 -0.0896170624
C  C213  1  0.97553000  0.07149000  0.03870000  1.0 -0.1009914904
C  C214  1  0.92851000  0.02447000  0.53870000  1.0 -0.1009914904
C  C215  1  0.00046000  0.04834000  0.03870000  1.0 -0.0799572942
C  C216  1  0.95166000  0.99954000  0.53870000  1.0 -0.0799572942
C  C217  1  0.03063000  0.01595000  0.04000000  1.0 0.1401762924
C  C218  1  0.98405000  0.96937000  0.54000000  1.0 0.1494331848
C  C219  1  0.06056000  0.01394000  0.01334000  1.0 -0.1776722085
C  C220  1  0.98606000  0.93944000  0.51334000  1.0 -0.1776722085
C  C221  1  0.08764000  0.98260000  0.01547000  1.0 0.1290354154
C  C222  1  0.01740000  0.91236000  0.51547000  1.0 0.1290354154
C  C223  1  0.08479000  0.95329000  0.04425000  1.0 -0.188770552
C  C224  1  0.04671000  0.91521000  0.54425000  1.0 -0.188770552
C  C225  1  0.05486000  0.95530000  0.07091000  1.0 0.1562314909
C  C226  1  0.04470000  0.94514000  0.57091000  1.0 0.1494331848
C  C227  1  0.02777000  0.98663000  0.06878000  1.0 -0.188770552
C  C228  1  0.01337000  0.97223000  0.56878000  1.0 -0.188770552
C  C229  1  0.11582000  0.98074000  0.98610000  1.0 -0.0896170624
C  C230  1  0.01926000  0.88418000  0.48610000  1.0 -0.0896170624
C  C231  1  0.13930000  0.97742000  0.96140000  1.0 -0.1009914904
C  C232  1  0.02258000  0.86070000  0.46140000  1.0 -0.1009914904
C  C233  1  0.16850000  0.97476000  0.92952000  1.0 0.1562314909
C  C234  1  0.02524000  0.83150000  0.42952000  1.0 0.1562314909
C  C235  1  0.17847000  0.00787000  0.90983000  1.0 -0.1410296085
C  C236  1  0.99213000  0.82153000  0.40983000  1.0 -0.1410296085
C  C237  1  0.20437000  0.00545000  0.87880000  1.0 -0.0896170624
C  C238  1  0.99455000  0.79563000  0.37880000  1.0 -0.0896170624
C  C239  1  0.22030000  0.96992000  0.86747000  1.0 -0.0313467158
C  C240  1  0.03008000  0.77970000  0.36747000  1.0 -0.0313467158
C  C241  1  0.21032000  0.93682000  0.88717000  1.0 -0.0896170624
C  C242  1  0.06318000  0.78968000  0.38717000  1.0 -0.0896170624
C  C243  1  0.18442000  0.93924000  0.91819000  1.0 -0.1487137729
C  C244  1  0.06076000  0.81558000  0.41819000  1.0 -0.1487137729
C  C245  1  0.24688000  0.96648000  0.83346000  1.0 0.5707408248
C  C246  1  0.03352000  0.75312000  0.33346000  1.0 0.5707408248
C  C247  1  0.05154000  0.92296000  0.09840000  1.0 -0.0896170624
C  C248  1  0.07704000  0.94846000  0.59840000  1.0 -0.0896170624
C  C249  1  0.04720000  0.89570000  0.12030000  1.0 -0.1088357275
C  C250  1  0.10430000  0.95280000  0.62030000  1.0 -0.1088357275
C  C251  1  0.04511000  0.86261000  0.14598000  1.0 0.1290354154
C  C252  1  0.13739000  0.95489000  0.64598000  1.0 0.1290354154
C  C253  1  0.07729000  0.83857000  0.15787000  1.0 -0.1487137729
C  C254  1  0.16143000  0.92271000  0.65787000  1.0 -0.1487137729
C  C255  1  0.07390000  0.80730000  0.18402000  1.0 -0.0896170624
C  C256  1  0.19270000  0.92610000  0.68402000  1.0 -0.0896170624
C  C257  1  0.03830000  0.80008000  0.19828000  1.0 -0.0580881284
C  C258  1  0.19992000  0.96170000  0.69828000  1.0 -0.0580881284
C  C259  1  0.00611000  0.82413000  0.18639000  1.0 -0.0723685303
C  C260  1  0.17587000  0.99389000  0.68639000  1.0 -0.0723685303
C  C261  1  0.00951000  0.85539000  0.16024000  1.0 -0.1410296085
C  C262  1  0.14461000  0.99049000  0.66024000  1.0 -0.1410296085
C  C263  1  0.03868000  0.76568000  0.22340000  1.0 0.5577710217
C  C264  1  0.23432000  0.96132000  0.72340000  1.0 0.5577710217
C  C265  1  0.97070000  0.34928000  0.67710000  1.0 0.5489497876
C  C266  1  0.65072000  0.02930000  0.17710000  1.0 0.5489497876
C  C267  1  0.96897000  0.38419000  0.65342000  1.0 -0.0723685303
C  C268  1  0.61581000  0.03103000  0.15342000  1.0 -0.0723685303
C  C269  1  0.00210000  0.40292000  0.65034000  1.0 -0.0799572942
C  C270  1  0.59708000  0.99790000  0.15034000  1.0 -0.0799572942
C  C271  1  0.00213000  0.43575000  0.62566000  1.0 -0.1600587943
C  C272  1  0.56425000  0.99787000  0.12566000  1.0 -0.1600587943
C  C273  1  0.96900000  0.44984000  0.60404000  1.0 0.1562314909
C  C274  1  0.55016000  0.03100000  0.10404000  1.0 0.1562314909
C  C275  1  0.93587000  0.43111000  0.60711000  1.0 -0.1487137729
C  C276  1  0.56889000  0.06413000  0.10711000  1.0 -0.1487137729
C  C277  1  0.93584000  0.39828000  0.63180000  1.0 -0.0799572942
C  C278  1  0.60172000  0.06416000  0.13180000  1.0 -0.0799572942
C  C279  1  0.96907000  0.48327000  0.57480000  1.0 -0.1009914904
C  C280  1  0.51673000  0.03093000  0.07480000  1.0 -0.1009914904
C  C281  1  0.96849000  0.50795000  0.54960000  1.0 -0.1009914904
C  C282  1  0.49205000  0.03151000  0.04960000  1.0 -0.1009914904
C  C283  1  0.96519000  0.53695000  0.51949000  1.0 0.1290354154
C  C284  1  0.46305000  0.03481000  0.01949000  1.0 0.1290354154
C  C285  1  0.93516000  0.53766000  0.49091000  1.0 -0.1776722085
C  C286  1  0.46234000  0.06484000  0.99091000  1.0 -0.1776722085
C  C287  1  0.93125000  0.56587000  0.46016000  1.0 0.1494331848
C  C288  1  0.43413000  0.06875000  0.96016000  1.0 0.1494331848
C  C289  1  0.95739000  0.59337000  0.45799000  1.0 -0.1776722085
C  C290  1  0.40663000  0.04261000  0.95799000  1.0 -0.1776722085
C  C291  1  0.98742000  0.59266000  0.48657000  1.0 0.1494331848
C  C292  1  0.40734000  0.01258000  0.98657000  1.0 0.1494331848
C  C293  1  0.99133000  0.56445000  0.51732000  1.0 -0.1776722085
C  C294  1  0.43555000  0.00867000  0.01732000  1.0 -0.174543418
C  C295  1  0.90339000  0.56459000  0.42810000  1.0 -0.1088357275
C  C296  1  0.43541000  0.09661000  0.92810000  1.0 -0.1088357275
C  C297  1  0.87900000  0.56360000  0.39820000  1.0 -0.1201856064
C  C298  1  0.43640000  0.12100000  0.89820000  1.0 -0.1201856064
C  C299  1  0.85124000  0.56236000  0.36704000  1.0 0.1401762924
C  C300  1  0.43764000  0.14876000  0.86704000  1.0 0.1401762924
C  C301  1  0.84001000  0.52689000  0.35650000  1.0 -0.1410296085
C  C302  1  0.47311000  0.15999000  0.85650000  1.0 -0.1410296085
C  C303  1  0.81456000  0.52418000  0.32370000  1.0 -0.0799572942
C  C304  1  0.47582000  0.18544000  0.82370000  1.0 -0.0799572942
C  C305  1  0.80034000  0.55694000  0.30157000  1.0 -0.0580881284
C  C306  1  0.44306000  0.19966000  0.80157000  1.0 -0.0580881284
C  C307  1  0.81157000  0.59241000  0.31210000  1.0 -0.0799572942
C  C308  1  0.40759000  0.18843000  0.81210000  1.0 -0.0799572942
C  C309  1  0.83701000  0.59513000  0.34490000  1.0 -0.1487137729
C  C310  1  0.40487000  0.16299000  0.84490000  1.0 -0.1487137729
C  C311  1  0.77482000  0.55402000  0.26650000  1.0 0.5577710217
C  C312  1  0.44598000  0.22518000  0.76650000  1.0 0.5577710217
C  C313  1  0.01634000  0.61904000  0.48230000  1.0 -0.0896170624
C  C314  1  0.38096000  0.98366000  0.98230000  1.0 -0.0896170624
C  C315  1  0.04121000  0.64119000  0.47590000  1.0 -0.1088357275
C  C316  1  0.35881000  0.95879000  0.97590000  1.0 -0.1088357275
C  C317  1  0.06906000  0.66634000  0.47170000  1.0 0.1494331848
C  C318  1  0.33366000  0.93094000  0.97170000  1.0 0.1494331848
C  C319  1  0.09052000  0.67514000  0.50573000  1.0 -0.1291502222
C  C320  1  0.32486000  0.90948000  0.00573000  1.0 -0.1291502222
C  C321  1  0.12024000  0.69856000  0.50168000  1.0 -0.0896170624
C  C322  1  0.30144000  0.87976000  0.00168000  1.0 -0.0896170624
C  C323  1  0.12849000  0.71317000  0.46358000  1.0 -0.0580881284
C  C324  1  0.28683000  0.87151000  0.96358000  1.0 -0.0580881284
C  C325  1  0.10702000  0.70436000  0.42954000  1.0 -0.0896170624
C  C326  1  0.29564000  0.89298000  0.92954000  1.0 -0.0896170624
C  C327  1  0.07730000  0.68094000  0.43359000  1.0 -0.1410296085
C  C328  1  0.31906000  0.92270000  0.93359000  1.0 -0.1410296085
C  C329  1  0.15956000  0.73722000  0.45900000  1.0 0.5707408248
C  C330  1  0.26278000  0.84044000  0.95900000  1.0 0.5707408248
C  C331  1  0.67544000  0.54144000  0.25694000  1.0 0.5577710217
C  C332  1  0.45856000  0.32456000  0.75694000  1.0 0.5577710217
C  C333  1  0.64141000  0.54231000  0.28142000  1.0 -0.0313467158
C  C334  1  0.45769000  0.35859000  0.78142000  1.0 -0.0313467158
C  C335  1  0.63422000  0.50600000  0.29553000  1.0 -0.1009914904
C  C336  1  0.49400000  0.36578000  0.79553000  1.0 -0.1009914904
C  C337  1  0.60416000  0.50150000  0.32119000  1.0 -0.1201856064
C  C338  1  0.49850000  0.39584000  0.82119000  1.0 -0.1201856064
C  C339  1  0.58129000  0.53333000  0.33274000  1.0 0.1494331848
C  C340  1  0.46667000  0.41871000  0.83274000  1.0 0.1494331848
C  C341  1  0.58849000  0.56965000  0.31863000  1.0 -0.1291502222
C  C342  1  0.43035000  0.41151000  0.81863000  1.0 -0.1291502222
C  C343  1  0.61856000  0.57414000  0.29297000  1.0 -0.0896170624
C  C344  1  0.42586000  0.38144000  0.79297000  1.0 -0.0896170624
C  C345  1  0.55152000  0.52888000  0.35780000  1.0 -0.1088357275
C  C346  1  0.47112000  0.44848000  0.85780000  1.0 -0.1088357275
C  C347  1  0.52578000  0.52412000  0.38250000  1.0 -0.0896170624
C  C348  1  0.47588000  0.47422000  0.88250000  1.0 -0.0896170624
C  C349  1  0.49517000  0.51761000  0.41022000  1.0 0.1562314909
C  C350  1  0.48239000  0.50483000  0.91022000  1.0 0.1562314909
C  C351  1  0.46517000  0.54609000  0.41068000  1.0 -0.188770552
C  C352  1  0.45391000  0.53483000  0.91068000  1.0 -0.188770552
C  C353  1  0.43577000  0.54281000  0.43747000  1.0 0.1562314909
C  C354  1  0.45719000  0.56423000  0.93747000  1.0 0.1562314909
C  C355  1  0.43634000  0.51104000  0.46380000  1.0 -0.188770552
C  C356  1  0.48896000  0.56366000  0.96380000  1.0 -0.188770552
C  C357  1  0.46634000  0.48256000  0.46334000  1.0 0.1290354154
C  C358  1  0.51744000  0.53366000  0.96334000  1.0 0.1290354154
C  C359  1  0.49575000  0.48583000  0.43655000  1.0 -0.1776722085
C  C360  1  0.51417000  0.50425000  0.93655000  1.0 -0.1776722085
C  C361  1  0.40425000  0.57245000  0.43910000  1.0 -0.1009914904
C  C362  1  0.42755000  0.59575000  0.93910000  1.0 -0.1009914904
C  C363  1  0.37854000  0.59794000  0.44010000  1.0 -0.1088357275
C  C364  1  0.40206000  0.62146000  0.94010000  1.0 -0.1088357275
C  C365  1  0.34802000  0.62714000  0.44150000  1.0 0.1290354154
C  C366  1  0.37286000  0.65198000  0.94150000  1.0 0.1290354154
C  C367  1  0.33216000  0.64660000  0.40674000  1.0 -0.1487137729
C  C368  1  0.35340000  0.66784000  0.90674000  1.0 -0.1487137729
C  C369  1  0.30413000  0.67665000  0.41010000  1.0 -0.0896170624
C  C370  1  0.32335000  0.69587000  0.91010000  1.0 -0.0896170624
C  C371  1  0.29193000  0.68725000  0.44810000  1.0 -0.041002169
C  C372  1  0.31275000  0.70807000  0.94810000  1.0 -0.041002169
C  C373  1  0.30779000  0.66779000  0.48285000  1.0 -0.0799572942
C  C374  1  0.33221000  0.69221000  0.98285000  1.0 -0.0799572942
C  C375  1  0.33583000  0.63773000  0.47950000  1.0 -0.1410296085
C  C376  1  0.36227000  0.66417000  0.97950000  1.0 -0.1410296085
C  C377  1  0.26296000  0.72014000  0.44810000  1.0 0.5767036921
C  C378  1  0.27986000  0.73704000  0.94810000  1.0 0.5767036921
C  C379  1  0.46834000  0.45140000  0.49080000  1.0 -0.0896170624
C  C380  1  0.54860000  0.53166000  0.99080000  1.0 -0.0896170624
C  C381  1  0.46584000  0.42602000  0.51390000  1.0 -0.1009914904
C  C382  1  0.57398000  0.53416000  0.01390000  1.0 -0.1009914904
C  C383  1  0.46426000  0.39562000  0.54663000  1.0 0.1494331848
C  C384  1  0.60438000  0.53574000  0.04663000  1.0 0.1494331848
C  C385  1  0.49610000  0.37212000  0.56070000  1.0 -0.1600587943
C  C386  1  0.62788000  0.50390000  0.06070000  1.0 -0.1600587943
C  C387  1  0.49292000  0.34596000  0.59270000  1.0 -0.0799572942
C  C388  1  0.65404000  0.50708000  0.09270000  1.0 -0.0799572942
C  C389  1  0.45790000  0.34330000  0.61060000  1.0 -0.0580881284
C  C390  1  0.65670000  0.54210000  0.11060000  1.0 -0.0580881284
C  C391  1  0.42606000  0.36680000  0.59653000  1.0 -0.0896170624
C  C392  1  0.63320000  0.57394000  0.09653000  1.0 -0.0896170624
C  C393  1  0.42924000  0.39296000  0.56450000  1.0 -0.1487137729
C  C394  1  0.60704000  0.57076000  0.06450000  1.0 -0.1487137729
C  C395  1  0.45622000  0.31648000  0.64470000  1.0 0.5707408248
C  C396  1  0.68352000  0.54378000  0.14470000  1.0 0.5707408248
C  C397  1  0.78564000  0.55044000  0.16020000  1.0 0.5707408248
C  C398  1  0.44956000  0.21436000  0.66020000  1.0 0.5707408248
C  C399  1  0.81846000  0.55512000  0.13340000  1.0 -0.024380254
C  C400  1  0.44488000  0.18154000  0.63340000  1.0 -0.024380254
C  C401  1  0.82724000  0.58996000  0.11660000  1.0 -0.0896170624
C  C402  1  0.41004000  0.17276000  0.61660000  1.0 -0.0799572942
C  C403  1  0.85697000  0.59119000  0.08990000  1.0 -0.1487137729
C  C404  1  0.40881000  0.14303000  0.58990000  1.0 -0.1487137729
C  C405  1  0.87791000  0.55757000  0.07994000  1.0 0.1290354154
C  C406  1  0.44243000  0.12209000  0.57994000  1.0 0.1290354154
C  C407  1  0.86911000  0.52273000  0.09680000  1.0 -0.1410296085
C  C408  1  0.47727000  0.13089000  0.59680000  1.0 -0.1487137729
C  C409  1  0.83939000  0.52151000  0.12350000  1.0 -0.0896170624
C  C410  1  0.47849000  0.16061000  0.62350000  1.0 -0.0896170624
C  C411  1  0.90928000  0.55570000  0.05340000  1.0 -0.1201856064
C  C412  1  0.44430000  0.09072000  0.55340000  1.0 -0.1201856064
C  C413  1  0.93237000  0.55447000  0.02850000  1.0 -0.0799572942
C  C414  1  0.44553000  0.06763000  0.52850000  1.0 -0.0799572942
C  C415  1  0.96118000  0.54986000  0.99759000  1.0 0.1401762924
C  C416  1  0.45014000  0.03882000  0.49759000  1.0 0.1401762924
C  C417  1  0.98931000  0.57519000  0.99398000  1.0 -0.1776722085
C  C418  1  0.42481000  0.01069000  0.49398000  1.0 -0.1776722085
C  C419  1  0.01592000  0.57068000  0.96381000  1.0 0.1290354154
C  C420  1  0.42932000  0.98408000  0.46381000  1.0 0.1290354154
C  C421  1  0.01442000  0.54084000  0.93725000  1.0 -0.174543418
C  C422  1  0.45916000  0.98558000  0.43725000  1.0 -0.174543418
C  C423  1  0.98629000  0.51551000  0.94086000  1.0 0.1401762924
C  C424  1  0.48449000  0.01371000  0.44086000  1.0 0.1401762924
C  C425  1  0.95967000  0.52003000  0.97103000  1.0 -0.1776722085
C  C426  1  0.47997000  0.04033000  0.47103000  1.0 -0.1776722085
C  C427  1  0.04429000  0.59421000  0.96060000  1.0 -0.1088357275
C  C428  1  0.40579000  0.95571000  0.46060000  1.0 -0.1088357275
C  C429  1  0.07117000  0.61755000  0.95790000  1.0 -0.1009914904
C  C430  1  0.38245000  0.92883000  0.45790000  1.0 -0.1009914904
C  C431  1  0.09940000  0.64326000  0.95680000  1.0 0.1290354154
C  C432  1  0.35674000  0.90060000  0.45680000  1.0 0.1290354154
C  C433  1  0.11706000  0.65386000  0.99255000  1.0 -0.1410296085
C  C434  1  0.34614000  0.88294000  0.49255000  1.0 -0.1410296085
C  C435  1  0.14360000  0.68102000  0.99130000  1.0 -0.0723685303
C  C436  1  0.31898000  0.85640000  0.49130000  1.0 -0.0723685303
C  C437  1  0.15246000  0.69758000  0.95430000  1.0 -0.0723685303
C  C438  1  0.30242000  0.84754000  0.45430000  1.0 -0.0723685303
C  C439  1  0.13480000  0.68698000  0.91858000  1.0 -0.0723685303
C  C440  1  0.31302000  0.86520000  0.41858000  1.0 -0.0723685303
C  C441  1  0.10826000  0.65982000  0.91984000  1.0 -0.1410296085
C  C442  1  0.34018000  0.89174000  0.41984000  1.0 -0.1410296085
C  C443  1  0.17594000  0.72858000  0.95330000  1.0 0.5577710217
C  C444  1  0.27142000  0.82406000  0.45330000  1.0 0.5577710217
C  C445  1  0.98420000  0.48396000  0.91560000  1.0 -0.0799572942
C  C446  1  0.51604000  0.01580000  0.41560000  1.0 -0.0799572942
C  C447  1  0.98134000  0.45832000  0.89270000  1.0 -0.1201856064
C  C448  1  0.54168000  0.01866000  0.39270000  1.0 -0.1291502222
C  C449  1  0.97877000  0.42665000  0.86611000  1.0 0.1494331848
C  C450  1  0.57335000  0.02123000  0.36611000  1.0 0.1494331848
C  C451  1  0.01164000  0.40470000  0.85580000  1.0 -0.1487137729
C  C452  1  0.59530000  0.98836000  0.35580000  1.0 -0.1487137729
C  C453  1  0.00916000  0.37524000  0.82890000  1.0 -0.0799572942
C  C454  1  0.62476000  0.99084000  0.32890000  1.0 -0.0799572942
C  C455  1  0.97380000  0.36772000  0.81236000  1.0 -0.0580881284
C  C456  1  0.63228000  0.02620000  0.31236000  1.0 -0.0580881284
C  C457  1  0.94092000  0.38968000  0.82270000  1.0 -0.0799572942
C  C458  1  0.61032000  0.05908000  0.32270000  1.0 -0.0799572942
C  C459  1  0.94340000  0.41914000  0.84950000  1.0 -0.1410296085
C  C460  1  0.58086000  0.05660000  0.34950000  1.0 -0.1410296085
C  C461  1  0.97168000  0.33728000  0.78340000  1.0 0.5767036921
C  C462  1  0.66272000  0.02832000  0.28340000  1.0 0.5767036921
C  C463  1  0.17165000  0.84089000  0.45460000  1.0 0.5577710217
C  C464  1  0.15911000  0.82835000  0.95460000  1.0 0.5577710217
C  C465  1  0.14777000  0.87591000  0.45680000  1.0 -0.0580881284
C  C466  1  0.12409000  0.85223000  0.95680000  1.0 -0.0580881284
C  C467  1  0.14494000  0.89612000  0.49234000  1.0 -0.0799572942
C  C468  1  0.10388000  0.85506000  0.99234000  1.0 -0.0799572942
C  C469  1  0.12110000  0.92976000  0.49311000  1.0 -0.1487137729
C  C470  1  0.07024000  0.87890000  0.99311000  1.0 -0.1487137729
C  C471  1  0.10009000  0.94321000  0.45840000  1.0 0.1401762924
C  C472  1  0.05679000  0.89991000  0.95840000  1.0 0.1401762924
C  C473  1  0.10292000  0.92300000  0.42285000  1.0 -0.1487137729
C  C474  1  0.07700000  0.89708000  0.92285000  1.0 -0.1487137729
C  C475  1  0.12676000  0.88936000  0.42208000  1.0 -0.0896170624
C  C476  1  0.11064000  0.87324000  0.92208000  1.0 -0.0896170624
C  C477  1  0.07149000  0.97553000  0.46130000  1.0 -0.1009914904
C  C478  1  0.02447000  0.92851000  0.96130000  1.0 -0.1009914904
C  C479  1  0.04834000  0.00046000  0.46130000  1.0 -0.0723685303
C  C480  1  0.99954000  0.95166000  0.96130000  1.0 -0.0723685303
C  C481  1  0.01595000  0.03063000  0.46000000  1.0 0.1401762924
C  C482  1  0.96937000  0.98405000  0.96000000  1.0 0.1494331848
C  C483  1  0.01394000  0.06056000  0.48666000  1.0 -0.1776722085
C  C484  1  0.93944000  0.98606000  0.98666000  1.0 -0.1776722085
C  C485  1  0.98260000  0.08764000  0.48453000  1.0 0.1290354154
C  C486  1  0.91236000  0.01740000  0.98453000  1.0 0.1290354154
C  C487  1  0.95329000  0.08479000  0.45575000  1.0 -0.188770552
C  C488  1  0.91521000  0.04671000  0.95575000  1.0 -0.188770552
C  C489  1  0.95530000  0.05486000  0.42909000  1.0 0.1494331848
C  C490  1  0.94514000  0.04470000  0.92909000  1.0 0.1494331848
C  C491  1  0.98663000  0.02777000  0.43122000  1.0 -0.188770552
C  C492  1  0.97223000  0.01337000  0.93122000  1.0 -0.188770552
C  C493  1  0.98074000  0.11582000  0.51390000  1.0 -0.0896170624
C  C494  1  0.88418000  0.01926000  0.01390000  1.0 -0.0896170624
C  C495  1  0.97742000  0.13930000  0.53860000  1.0 -0.1009914904
C  C496  1  0.86070000  0.02258000  0.03860000  1.0 -0.1009914904
C  C497  1  0.97476000  0.16850000  0.57048000  1.0 0.1562314909
C  C498  1  0.83150000  0.02524000  0.07048000  1.0 0.1562314909
C  C499  1  0.00787000  0.17847000  0.59017000  1.0 -0.1410296085
C  C500  1  0.82153000  0.99213000  0.09017000  1.0 -0.1410296085
C  C501  1  0.00545000  0.20437000  0.62120000  1.0 -0.0896170624
C  C502  1  0.79563000  0.99455000  0.12120000  1.0 -0.0896170624
C  C503  1  0.96992000  0.22030000  0.63253000  1.0 -0.024380254
C  C504  1  0.77970000  0.03008000  0.13253000  1.0 -0.024380254
C  C505  1  0.93682000  0.21032000  0.61283000  1.0 -0.0896170624
C  C506  1  0.78968000  0.06318000  0.11283000  1.0 -0.0896170624
C  C507  1  0.93924000  0.18442000  0.58181000  1.0 -0.1487137729
C  C508  1  0.81558000  0.06076000  0.08181000  1.0 -0.1487137729
C  C509  1  0.96648000  0.24688000  0.66654000  1.0 0.5707408248
C  C510  1  0.75312000  0.03352000  0.16654000  1.0 0.5707408248
C  C511  1  0.92296000  0.05154000  0.40160000  1.0 -0.0896170624
C  C512  1  0.94846000  0.07704000  0.90160000  1.0 -0.0896170624
C  C513  1  0.89570000  0.04720000  0.37970000  1.0 -0.1088357275
C  C514  1  0.95280000  0.10430000  0.87970000  1.0 -0.1009914904
C  C515  1  0.86261000  0.04511000  0.35402000  1.0 0.1290354154
C  C516  1  0.95489000  0.13739000  0.85402000  1.0 0.1290354154
C  C517  1  0.83857000  0.07729000  0.34213000  1.0 -0.1487137729
C  C518  1  0.92271000  0.16143000  0.84213000  1.0 -0.1487137729
C  C519  1  0.80730000  0.07390000  0.31598000  1.0 -0.0896170624
C  C520  1  0.92610000  0.19270000  0.81598000  1.0 -0.0799572942
C  C521  1  0.80008000  0.03830000  0.30172000  1.0 -0.0580881284
C  C522  1  0.96170000  0.19992000  0.80172000  1.0 -0.0534986386
C  C523  1  0.82413000  0.00611000  0.31361000  1.0 -0.0723685303
C  C524  1  0.99389000  0.17587000  0.81361000  1.0 -0.0723685303
C  C525  1  0.85539000  0.00951000  0.33976000  1.0 -0.1410296085
C  C526  1  0.99049000  0.14461000  0.83976000  1.0 -0.1410296085
C  C527  1  0.76568000  0.03868000  0.27660000  1.0 0.5577710217
C  C528  1  0.96132000  0.23432000  0.77660000  1.0 0.5577710217
O  O1  1  0.33373000  0.00039000  0.80682000  1.0 -0.4778995866
O  O2  1  0.99961000  0.66627000  0.30682000  1.0 -0.4778995866
O  O3  1  0.33568000  0.93704000  0.81654000  1.0 -0.5470733473
O  O4  1  0.06296000  0.66432000  0.31654000  1.0 -0.5470733473
O  O5  1  0.00331000  0.75825000  0.23723000  1.0 -0.5751982385
O  O6  1  0.24175000  0.99669000  0.73723000  1.0 -0.5702374035
O  O7  1  0.06748000  0.74584000  0.23774000  1.0 -0.4903382713
O  O8  1  0.25416000  0.93252000  0.73774000  1.0 -0.4903382713
O  O9  1  0.31900000  0.00296000  0.72613000  1.0 -0.5099131941
O  O10  1  0.99704000  0.68100000  0.22613000  1.0 -0.5099131941
O  O11  1  0.33232000  0.94040000  0.73463000  1.0 -0.5099131941
O  O12  1  0.05960000  0.66768000  0.23463000  1.0 -0.5099131941
O  O13  1  0.25594000  0.00112000  0.81849000  1.0 -0.5702374035
O  O14  1  0.99888000  0.74406000  0.31849000  1.0 -0.5702374035
O  O15  1  0.25741000  0.93655000  0.81894000  1.0 -0.4375525171
O  O16  1  0.06345000  0.74259000  0.31894000  1.0 -0.4375525171
O  O17  1  0.52144000  0.76720000  0.24381000  1.0 -0.5099131941
O  O18  1  0.23280000  0.47856000  0.74381000  1.0 -0.5099131941
O  O19  1  0.58630000  0.75898000  0.24980000  1.0 -0.528052544
O  O20  1  0.24102000  0.41370000  0.74980000  1.0 -0.528052544
O  O21  1  0.29801000  0.48599000  0.84016000  1.0 -0.5099131941
O  O22  1  0.51401000  0.70199000  0.34016000  1.0 -0.5099131941
O  O23  1  0.31279000  0.42313000  0.84024000  1.0 -0.528052544
O  O24  1  0.57687000  0.68721000  0.34024000  1.0 -0.528052544
O  O25  1  0.51456000  0.69088000  0.25851000  1.0 -0.4207517707
O  O26  1  0.30912000  0.48544000  0.75851000  1.0 -0.4207517707
O  O27  1  0.57810000  0.68152000  0.25814000  1.0 -0.5878694707
O  O28  1  0.31848000  0.42190000  0.75814000  1.0 -0.5878694707
O  O29  1  0.52065000  0.77743000  0.32529000  1.0 -0.4616243893
O  O30  1  0.22257000  0.47935000  0.82529000  1.0 -0.4616243893
O  O31  1  0.58330000  0.76622000  0.33317000  1.0 -0.5379778349
O  O32  1  0.23378000  0.41670000  0.83317000  1.0 -0.5379778349
O  O33  1  0.73757000  0.24921000  0.08384000  1.0 -0.5099131941
O  O34  1  0.75079000  0.26243000  0.58384000  1.0 -0.5099131941
O  O35  1  0.73068000  0.25328000  0.01578000  1.0 -0.5379778349
O  O36  1  0.74672000  0.26932000  0.51578000  1.0 -0.5379778349
O  O37  1  0.82532000  0.17772000  0.07772000  1.0 -0.4778995866
O  O38  1  0.82228000  0.17468000  0.57772000  1.0 -0.4778995866
O  O39  1  0.82573000  0.18745000  0.01112000  1.0 -0.5470733473
O  O40  1  0.81255000  0.17427000  0.51112000  1.0 -0.5470733473
O  O41  1  0.74797000  0.17053000  0.07471000  1.0 -0.5009733492
O  O42  1  0.82947000  0.25203000  0.57471000  1.0 -0.5009733492
O  O43  1  0.74828000  0.17598000  0.00864000  1.0 -0.5099131941
O  O44  1  0.82402000  0.25172000  0.50864000  1.0 -0.5099131941
O  O45  1  0.74484000  0.18562000  0.57987000  1.0 -0.5180975103
O  O46  1  0.81438000  0.25516000  0.07987000  1.0 -0.5180975103
O  O47  1  0.73610000  0.19316000  0.51305000  1.0 -0.5180975103
O  O48  1  0.80684000  0.26390000  0.01305000  1.0 -0.5180975103
O  O49  1  0.00039000  0.33373000  0.69318000  1.0 -0.4778995866
O  O50  1  0.66627000  0.99961000  0.19318000  1.0 -0.4778995866
O  O51  1  0.93704000  0.33568000  0.68346000  1.0 -0.5470733473
O  O52  1  0.66432000  0.06296000  0.18346000  1.0 -0.5470733473
O  O53  1  0.75825000  0.00331000  0.26277000  1.0 -0.5702374035
O  O54  1  0.99669000  0.24175000  0.76277000  1.0 -0.5702374035
O  O55  1  0.74584000  0.06748000  0.26226000  1.0 -0.4903382713
O  O56  1  0.93252000  0.25416000  0.76226000  1.0 -0.4903382713
O  O57  1  0.00296000  0.31900000  0.77387000  1.0 -0.5099131941
O  O58  1  0.68100000  0.99704000  0.27387000  1.0 -0.5099131941
O  O59  1  0.94040000  0.33232000  0.76537000  1.0 -0.5099131941
O  O60  1  0.66768000  0.05960000  0.26537000  1.0 -0.5099131941
O  O61  1  0.00112000  0.25594000  0.68151000  1.0 -0.5702374035
O  O62  1  0.74406000  0.99888000  0.18151000  1.0 -0.5702374035
O  O63  1  0.93655000  0.25741000  0.68106000  1.0 -0.4375525171
O  O64  1  0.74259000  0.06345000  0.18106000  1.0 -0.4375525171
O  O65  1  0.76720000  0.52144000  0.25619000  1.0 -0.5099131941
O  O66  1  0.47856000  0.23280000  0.75619000  1.0 -0.5099131941
O  O67  1  0.75898000  0.58630000  0.25020000  1.0 -0.528052544
O  O68  1  0.41370000  0.24102000  0.75020000  1.0 -0.528052544
O  O69  1  0.48599000  0.29801000  0.65984000  1.0 -0.5099131941
O  O70  1  0.70199000  0.51401000  0.15984000  1.0 -0.5099131941
O  O71  1  0.42313000  0.31279000  0.65976000  1.0 -0.528052544
O  O72  1  0.68721000  0.57687000  0.15976000  1.0 -0.528052544
O  O73  1  0.69088000  0.51456000  0.24149000  1.0 -0.4207517707
O  O74  1  0.48544000  0.30912000  0.74149000  1.0 -0.4207517707
O  O75  1  0.68152000  0.57810000  0.24186000  1.0 -0.5878694707
O  O76  1  0.42190000  0.31848000  0.74186000  1.0 -0.5878694707
O  O77  1  0.77743000  0.52065000  0.17471000  1.0 -0.4616243893
O  O78  1  0.47935000  0.22257000  0.67471000  1.0 -0.4616243893
O  O79  1  0.76622000  0.58330000  0.16683000  1.0 -0.5379778349
O  O80  1  0.41670000  0.23378000  0.66683000  1.0 -0.5379778349
O  O81  1  0.24921000  0.73757000  0.41616000  1.0 -0.5099131941
O  O82  1  0.26243000  0.75079000  0.91616000  1.0 -0.5099131941
O  O83  1  0.25328000  0.73068000  0.48422000  1.0 -0.5379778349
O  O84  1  0.26932000  0.74672000  0.98422000  1.0 -0.5379778349
O  O85  1  0.17772000  0.82532000  0.42228000  1.0 -0.4778995866
O  O86  1  0.17468000  0.82228000  0.92228000  1.0 -0.4778995866
O  O87  1  0.18745000  0.82573000  0.48888000  1.0 -0.5470733473
O  O88  1  0.17427000  0.81255000  0.98888000  1.0 -0.5470733473
O  O89  1  0.17053000  0.74797000  0.42529000  1.0 -0.5009733492
O  O90  1  0.25203000  0.82947000  0.92529000  1.0 -0.5009733492
O  O91  1  0.17598000  0.74828000  0.49136000  1.0 -0.5099131941
O  O92  1  0.25172000  0.82402000  0.99136000  1.0 -0.5099131941
O  O93  1  0.18562000  0.74484000  0.92013000  1.0 -0.5180975103
O  O94  1  0.25516000  0.81438000  0.42013000  1.0 -0.5180975103
O  O95  1  0.19316000  0.73610000  0.98695000  1.0 -0.5180975103
O  O96  1  0.26390000  0.80684000  0.48695000  1.0 -0.5180975103
