# DDEC6 charges by PACMAN v1.1 (https://github.com/mtap-research/PACMAN-charge/)
data_QIYFAI_ASR_pacman
_symmetry_space_group_name_H-M   'P 1'
_cell_length_a   14.01640000
_cell_length_b   19.12500000
_cell_length_c   30.31820000
_cell_angle_alpha   90.00000000
_cell_angle_beta   90.00000000
_cell_angle_gamma   90.00000000
_symmetry_Int_Tables_number   1
_chemical_formula_structural   Dy2H42(C23O6)3
_chemical_formula_sum   'Dy8 H168 C276 O72'
_cell_volume   8127.20735343
_cell_formula_units_Z   4
loop_
 _symmetry_equiv_pos_site_id
 _symmetry_equiv_pos_as_xyz
  1  'x, y, z'
loop_
 _atom_site_type_symbol
 _atom_site_label
 _atom_site_symmetry_multiplicity
 _atom_site_fract_x
 _atom_site_fract_y
 _atom_site_fract_z
 _atom_site_occupancy
 _atom_site_charge
Dy  Dy1  1  0.54519000  0.35933000  0.87434000  1.0 2.0307995587
Dy  Dy2  1  0.47150000  0.32150000  0.75128000  1.0 2.0483195096
Dy  Dy3  1  0.45481000  0.64067000  0.37434000  1.0 2.0307995587
Dy  Dy4  1  0.52850000  0.67850000  0.25128000  1.0 2.0483195096
Dy  Dy5  1  0.95481000  0.85933000  0.87434000  1.0 2.0307995587
Dy  Dy6  1  0.02850000  0.82150000  0.75128000  1.0 2.0483195096
Dy  Dy7  1  0.04519000  0.14067000  0.37434000  1.0 2.0307995587
Dy  Dy8  1  0.97150000  0.17850000  0.25128000  1.0 2.0483195096
H  H1  1  0.18990000  0.30670000  0.77060000  1.0 0.3626298815
H  H2  1  0.97600000  0.07440000  0.85970000  1.0 0.3438748968
H  H3  1  0.80040000  0.38640000  0.84870000  1.0 0.3490547586
H  H4  1  0.02750000  0.60600000  0.76050000  1.0 0.3490547586
H  H5  1  0.63480000  0.30480000  0.66666667  1.0 0.3438748968
H  H6  1  0.99080000  0.24480000  0.50300000  1.0 0.3490547586
H  H7  1  0.14410000  0.30070000  0.97810000  1.0 0.1193080664
H  H8  1  0.99700000  0.27950000  0.00540000  1.0 0.1193080664
H  H9  1  0.87120000  0.25050000  0.95600000  1.0 0.1101803626
H  H10  1  0.90020000  0.23150000  0.88580000  1.0 0.1101803626
H  H11  1  0.25610000  0.31030000  0.91460000  1.0 0.1273915305
H  H12  1  0.98230000  0.27460000  0.78090000  1.0 0.0994672343
H  H13  1  0.92080000  0.23800000  0.81730000  1.0 0.0994672343
H  H14  1  0.99270000  0.99180000  0.72720000  1.0 0.1273915305
H  H15  1  0.00260000  0.26530000  0.71360000  1.0 0.1101803626
H  H16  1  0.98470000  0.25060000  0.64240000  1.0 0.1101803626
H  H17  1  0.98120000  0.14120000  0.60950000  1.0 0.1101803626
H  H18  1  0.98990000  0.04410000  0.65490000  1.0 0.1193080664
H  H19  1  0.87210000  0.38590000  0.64280000  1.0 0.1193080664
H  H20  1  0.02470000  0.40620000  0.61700000  1.0 0.1101803626
H  H21  1  0.14450000  0.43860000  0.66510000  1.0 0.1193080664
H  H22  1  0.11740000  0.44300000  0.73840000  1.0 0.1101803626
H  H23  1  0.76340000  0.37000000  0.70450000  1.0 0.1193080664
H  H24  1  0.03070000  0.40800000  0.83980000  1.0 0.0994672343
H  H25  1  0.08940000  0.44550000  0.80300000  1.0 0.0994672343
H  H26  1  0.98630000  0.69020000  0.89230000  1.0 0.1193080664
H  H27  1  0.02900000  0.41690000  0.90540000  1.0 0.1101803626
H  H28  1  0.04090000  0.43380000  0.97860000  1.0 0.1101803626
H  H29  1  0.02500000  0.54220000  0.01050000  1.0 0.1101803626
H  H30  1  0.99490000  0.63860000  0.96640000  1.0 0.1101803626
H  H31  1  0.51210000  0.43830000  0.48540000  1.0 0.1193080664
H  H32  1  0.60260000  0.42340000  0.42500000  1.0 0.1193080664
H  H33  1  0.74920000  0.37780000  0.43140000  1.0 0.1193080664
H  H34  1  0.80090000  0.32530000  0.49690000  1.0 0.1101803626
H  H35  1  0.47230000  0.41020000  0.56310000  1.0 0.1193080664
H  H36  1  0.85730000  0.31040000  0.57060000  1.0 0.1101803626
H  H37  1  0.81530000  0.26880000  0.61060000  1.0 0.1101803626
H  H38  1  0.83740000  0.04720000  0.48500000  1.0 0.1193080664
H  H39  1  0.68810000  0.18730000  0.61950000  1.0 0.1101803626
H  H40  1  0.59660000  0.09260000  0.63020000  1.0 0.1193080664
H  H41  1  0.62490000  0.98900000  0.59580000  1.0 0.0994672343
H  H42  1  0.71190000  0.98950000  0.52630000  1.0 0.1101803626
H  H43  1  0.81010000  0.69330000  0.27060000  1.0 0.3626298815
H  H44  1  0.02400000  0.92560000  0.35970000  1.0 0.3438748968
H  H45  1  0.19960000  0.61360000  0.34870000  1.0 0.3490547586
H  H46  1  0.97250000  0.39400000  0.26050000  1.0 0.3490547586
H  H47  1  0.36520000  0.69520000  0.16667000  1.0 0.3438748968
H  H48  1  0.00920000  0.75520000  0.00300000  1.0 0.3490547586
H  H49  1  0.85590000  0.69930000  0.47810000  1.0 0.1193080664
H  H50  1  0.00300000  0.72050000  0.50540000  1.0 0.1193080664
H  H51  1  0.12880000  0.74950000  0.45600000  1.0 0.1101803626
H  H52  1  0.09980000  0.76850000  0.38580000  1.0 0.1101803626
H  H53  1  0.74390000  0.68970000  0.41460000  1.0 0.1273915305
H  H54  1  0.01770000  0.72540000  0.28090000  1.0 0.0994672343
H  H55  1  0.07920000  0.76200000  0.31730000  1.0 0.0994672343
H  H56  1  0.00730000  0.00820000  0.22720000  1.0 0.1273915305
H  H57  1  0.99740000  0.73470000  0.21360000  1.0 0.1101803626
H  H58  1  0.01530000  0.74940000  0.14240000  1.0 0.1101803626
H  H59  1  0.01880000  0.85880000  0.10950000  1.0 0.1101803626
H  H60  1  0.01010000  0.95590000  0.15490000  1.0 0.1193080664
H  H61  1  0.12790000  0.61410000  0.14280000  1.0 0.1193080664
H  H62  1  0.97530000  0.59380000  0.11700000  1.0 0.1101803626
H  H63  1  0.85550000  0.56140000  0.16510000  1.0 0.1193080664
H  H64  1  0.88260000  0.55700000  0.23840000  1.0 0.1101803626
H  H65  1  0.23660000  0.63000000  0.20450000  1.0 0.1193080664
H  H66  1  0.96930000  0.59200000  0.33980000  1.0 0.0994672343
H  H67  1  0.91060000  0.55450000  0.30300000  1.0 0.0994672343
H  H68  1  0.01370000  0.30980000  0.39230000  1.0 0.1193080664
H  H69  1  0.97100000  0.58310000  0.40540000  1.0 0.1101803626
H  H70  1  0.95910000  0.56620000  0.47860000  1.0 0.1101803626
H  H71  1  0.97500000  0.45780000  0.51050000  1.0 0.1101803626
H  H72  1  0.00510000  0.36140000  0.46640000  1.0 0.1101803626
H  H73  1  0.48790000  0.56170000  0.98540000  1.0 0.1193080664
H  H74  1  0.39740000  0.57660000  0.92500000  1.0 0.1193080664
H  H75  1  0.25080000  0.62220000  0.93140000  1.0 0.1193080664
H  H76  1  0.19910000  0.67470000  0.99690000  1.0 0.1101803626
H  H77  1  0.52770000  0.58980000  0.06310000  1.0 0.1193080664
H  H78  1  0.14270000  0.68960000  0.07060000  1.0 0.1101803626
H  H79  1  0.18470000  0.73120000  0.11060000  1.0 0.1101803626
H  H80  1  0.16260000  0.95280000  0.98500000  1.0 0.1193080664
H  H81  1  0.31190000  0.81270000  0.11950000  1.0 0.1193080664
H  H82  1  0.40340000  0.90740000  0.13020000  1.0 0.1193080664
H  H83  1  0.37510000  0.01100000  0.09580000  1.0 0.0994672343
H  H84  1  0.28810000  0.01050000  0.02630000  1.0 0.1101803626
H  H85  1  0.31010000  0.80670000  0.77060000  1.0 0.3626298815
H  H86  1  0.52400000  0.57440000  0.85970000  1.0 0.3438748968
H  H87  1  0.69960000  0.88640000  0.84870000  1.0 0.3490547586
H  H88  1  0.47250000  0.10600000  0.76050000  1.0 0.3490547586
H  H89  1  0.86520000  0.80480000  0.66666667  1.0 0.3438748968
H  H90  1  0.50920000  0.74480000  0.50300000  1.0 0.3490547586
H  H91  1  0.35590000  0.80070000  0.97810000  1.0 0.1193080664
H  H92  1  0.50300000  0.77950000  0.00540000  1.0 0.1193080664
H  H93  1  0.62880000  0.75050000  0.95600000  1.0 0.1101803626
H  H94  1  0.59980000  0.73150000  0.88580000  1.0 0.1101803626
H  H95  1  0.24390000  0.81030000  0.91460000  1.0 0.1273915305
H  H96  1  0.51770000  0.77460000  0.78090000  1.0 0.0994672343
H  H97  1  0.57920000  0.73800000  0.81730000  1.0 0.0994672343
H  H98  1  0.50730000  0.49180000  0.72720000  1.0 0.1273915305
H  H99  1  0.49740000  0.76530000  0.71360000  1.0 0.1101803626
H  H100  1  0.51530000  0.75060000  0.64240000  1.0 0.1101803626
H  H101  1  0.51880000  0.64120000  0.60950000  1.0 0.1101803626
H  H102  1  0.51010000  0.54410000  0.65490000  1.0 0.1193080664
H  H103  1  0.62790000  0.88590000  0.64280000  1.0 0.1193080664
H  H104  1  0.47530000  0.90620000  0.61700000  1.0 0.1101803626
H  H105  1  0.35550000  0.93860000  0.66510000  1.0 0.1193080664
H  H106  1  0.38260000  0.94300000  0.73840000  1.0 0.1101803626
H  H107  1  0.73660000  0.87000000  0.70450000  1.0 0.1193080664
H  H108  1  0.46930000  0.90800000  0.83980000  1.0 0.0994672343
H  H109  1  0.41060000  0.94550000  0.80300000  1.0 0.0994672343
H  H110  1  0.51370000  0.19020000  0.89230000  1.0 0.1193080664
H  H111  1  0.47100000  0.91690000  0.90540000  1.0 0.1101803626
H  H112  1  0.45910000  0.93380000  0.97860000  1.0 0.1101803626
H  H113  1  0.47500000  0.04220000  0.01050000  1.0 0.1101803626
H  H114  1  0.50510000  0.13860000  0.96640000  1.0 0.1101803626
H  H115  1  0.98790000  0.93830000  0.48540000  1.0 0.1193080664
H  H116  1  0.89740000  0.92340000  0.42500000  1.0 0.1193080664
H  H117  1  0.75080000  0.87780000  0.43140000  1.0 0.1193080664
H  H118  1  0.69910000  0.82530000  0.49690000  1.0 0.1101803626
H  H119  1  0.02770000  0.91020000  0.56310000  1.0 0.1193080664
H  H120  1  0.64270000  0.81040000  0.57060000  1.0 0.1101803626
H  H121  1  0.68470000  0.76880000  0.61060000  1.0 0.1101803626
H  H122  1  0.66260000  0.54720000  0.48500000  1.0 0.1193080664
H  H123  1  0.81190000  0.68730000  0.61950000  1.0 0.1193080664
H  H124  1  0.90340000  0.59260000  0.63020000  1.0 0.1193080664
H  H125  1  0.87510000  0.48900000  0.59580000  1.0 0.0994672343
H  H126  1  0.78810000  0.48950000  0.52630000  1.0 0.1101803626
H  H127  1  0.68990000  0.19330000  0.27060000  1.0 0.3626298815
H  H128  1  0.47600000  0.42560000  0.35970000  1.0 0.3490547586
H  H129  1  0.30040000  0.11360000  0.34870000  1.0 0.3490547586
H  H130  1  0.52750000  0.89400000  0.26050000  1.0 0.3490547586
H  H131  1  0.13480000  0.19520000  0.16667000  1.0 0.3438748968
H  H132  1  0.49080000  0.25520000  0.00300000  1.0 0.3490547586
H  H133  1  0.64410000  0.19930000  0.47810000  1.0 0.1193080664
H  H134  1  0.49700000  0.22050000  0.50540000  1.0 0.1193080664
H  H135  1  0.37120000  0.24950000  0.45600000  1.0 0.1101803626
H  H136  1  0.40020000  0.26850000  0.38580000  1.0 0.1101803626
H  H137  1  0.75610000  0.18970000  0.41460000  1.0 0.1273915305
H  H138  1  0.48230000  0.22540000  0.28090000  1.0 0.0994672343
H  H139  1  0.42080000  0.26200000  0.31730000  1.0 0.0994672343
H  H140  1  0.49270000  0.50820000  0.22720000  1.0 0.1273915305
H  H141  1  0.50260000  0.23470000  0.21360000  1.0 0.1101803626
H  H142  1  0.48470000  0.24940000  0.14240000  1.0 0.1101803626
H  H143  1  0.48120000  0.35880000  0.10950000  1.0 0.1101803626
H  H144  1  0.48990000  0.45590000  0.15490000  1.0 0.1193080664
H  H145  1  0.37210000  0.11410000  0.14280000  1.0 0.1193080664
H  H146  1  0.52470000  0.09380000  0.11700000  1.0 0.1101803626
H  H147  1  0.64450000  0.06140000  0.16510000  1.0 0.1193080664
H  H148  1  0.61740000  0.05700000  0.23840000  1.0 0.1101803626
H  H149  1  0.26340000  0.13000000  0.20450000  1.0 0.1193080664
H  H150  1  0.53070000  0.09200000  0.33980000  1.0 0.0994672343
H  H151  1  0.58940000  0.05450000  0.30300000  1.0 0.0994672343
H  H152  1  0.48630000  0.80980000  0.39230000  1.0 0.1193080664
H  H153  1  0.52900000  0.08310000  0.40540000  1.0 0.1101803626
H  H154  1  0.54090000  0.06620000  0.47860000  1.0 0.1101803626
H  H155  1  0.52500000  0.95780000  0.51050000  1.0 0.1101803626
H  H156  1  0.49490000  0.86140000  0.46640000  1.0 0.1101803626
H  H157  1  0.01210000  0.06170000  0.98540000  1.0 0.1193080664
H  H158  1  0.10260000  0.07660000  0.92500000  1.0 0.1193080664
H  H159  1  0.24920000  0.12220000  0.93140000  1.0 0.1193080664
H  H160  1  0.30090000  0.17470000  0.99690000  1.0 0.1101803626
H  H161  1  0.97230000  0.08980000  0.06310000  1.0 0.1193080664
H  H162  1  0.35730000  0.18960000  0.07060000  1.0 0.1101803626
H  H163  1  0.31530000  0.23120000  0.11060000  1.0 0.1101803626
H  H164  1  0.33740000  0.45280000  0.98500000  1.0 0.1193080664
H  H165  1  0.18810000  0.31270000  0.11950000  1.0 0.1101803626
H  H166  1  0.09660000  0.40740000  0.13020000  1.0 0.1193080664
H  H167  1  0.12490000  0.51100000  0.09580000  1.0 0.0994672343
H  H168  1  0.21190000  0.51050000  0.02630000  1.0 0.1101803626
C  C1  1  0.09510000  0.28830000  0.95900000  1.0 -0.1407333
C  C2  1  0.00850000  0.27580000  0.97530000  1.0 -0.0903158456
C  C3  1  0.93290000  0.25650000  0.94520000  1.0 -0.0990847122
C  C4  1  0.94960000  0.24750000  0.90360000  1.0 -0.1201910802
C  C5  1  0.04180000  0.26120000  0.88330000  1.0 0.0396856037
C  C6  1  0.11460000  0.28310000  0.91370000  1.0 0.0502256568
C  C7  1  0.20680000  0.29770000  0.89570000  1.0 -0.1407333
C  C8  1  0.22410000  0.29400000  0.85272000  1.0 -0.1328032612
C  C9  1  0.15180000  0.27210000  0.82310000  1.0 0.2077403277
C  C10  1  0.06280000  0.25570000  0.83900000  1.0 -0.0421526238
C  C11  1  0.98260000  0.23780000  0.80290000  1.0 -0.2447127492
C  C12  1  0.99560000  0.16830000  0.77980000  1.0 -0.0421526238
C  C13  1  0.99300000  0.10780000  0.80500000  1.0 0.2300552338
C  C14  1  0.99710000  0.03960000  0.78455000  1.0 -0.1467828542
C  C15  1  0.99420000  0.03570000  0.74040000  1.0 -0.1328032612
C  C16  1  0.99340000  0.09490000  0.71330000  1.0 0.0638780892
C  C17  1  0.99710000  0.16270000  0.73300000  1.0 0.0502256568
C  C18  1  0.99680000  0.22000000  0.70270000  1.0 -0.1407333
C  C19  1  0.98870000  0.21110000  0.66020000  1.0 -0.0903158456
C  C20  1  0.98570000  0.14590000  0.64000000  1.0 -0.0990847122
C  C21  1  0.98970000  0.08860000  0.66740000  1.0 -0.1328032612
C  C22  1  0.32450000  0.31120000  0.83695000  1.0 0.6605564266
C  C23  1  0.99590000  0.97500000  0.81210000  1.0 0.6516275614
C  C24  1  0.92080000  0.39660000  0.66250000  1.0 -0.1467828542
C  C25  1  0.01180000  0.40980000  0.64710000  1.0 -0.1201910802
C  C26  1  0.08400000  0.42850000  0.67590000  1.0 -0.0903158456
C  C27  1  0.06730000  0.43210000  0.71950000  1.0 -0.1407333
C  C28  1  0.97450000  0.41950000  0.73790000  1.0 0.0396856037
C  C29  1  0.90170000  0.39930000  0.70811000  1.0 0.0502256568
C  C30  1  0.81100000  0.38250000  0.72433000  1.0 -0.1407333
C  C31  1  0.79020000  0.38380000  0.76804000  1.0 -0.1591998726
C  C32  1  0.86290000  0.40460000  0.79903000  1.0 0.2359525807
C  C33  1  0.95390000  0.42270000  0.78362000  1.0 -0.0421526238
C  C34  1  0.02770000  0.44420000  0.81740000  1.0 -0.2491588574
C  C35  1  0.01200000  0.51540000  0.84100000  1.0 -0.0346632038
C  C36  1  0.00500000  0.57450000  0.81586000  1.0 0.2077403277
C  C37  1  0.99170000  0.64060000  0.83550000  1.0 -0.1407333
C  C38  1  0.99160000  0.64610000  0.87960000  1.0 -0.1407333
C  C39  1  0.99920000  0.58710000  0.90760000  1.0 0.0638780892
C  C40  1  0.01310000  0.52050000  0.88650000  1.0 0.0396856037
C  C41  1  0.02490000  0.46210000  0.91660000  1.0 -0.1328032612
C  C42  1  0.03020000  0.47230000  0.96050000  1.0 -0.0990847122
C  C43  1  0.02030000  0.53730000  0.98010000  1.0 -0.1073325354
C  C44  1  0.00350000  0.59480000  0.95370000  1.0 -0.1407333
C  C45  1  0.69200000  0.36410000  0.78436000  1.0 0.6605564266
C  C46  1  0.98340000  0.70540000  0.80850000  1.0 0.6516275614
C  C47  1  0.56860000  0.41320000  0.48740000  1.0 -0.1407333
C  C48  1  0.62370000  0.40710000  0.45220000  1.0 -0.0903158456
C  C49  1  0.70910000  0.37770000  0.45580000  1.0 -0.1073325354
C  C50  1  0.74120000  0.34640000  0.49520000  1.0 -0.1407333
C  C51  1  0.68030000  0.34820000  0.53173000  1.0 0.0396856037
C  C52  1  0.59370000  0.38260000  0.52768000  1.0 0.0502256568
C  C53  1  0.53160000  0.38880000  0.56590000  1.0 -0.1407333
C  C54  1  0.56050000  0.36290000  0.60670000  1.0 -0.1809102573
C  C55  1  0.64960000  0.32650000  0.61009000  1.0 0.2300552338
C  C56  1  0.71080000  0.31710000  0.57392000  1.0 -0.0533839442
C  C57  1  0.80630000  0.27910000  0.57960000  1.0 -0.2491588574
C  C58  1  0.81510000  0.21050000  0.55320000  1.0 -0.0533839442
C  C59  1  0.88130000  0.20470000  0.52037000  1.0 0.2016842425
C  C60  1  0.88670000  0.14330000  0.49365000  1.0 -0.1467828542
C  C61  1  0.83180000  0.08740000  0.50210000  1.0 -0.1407333
C  C62  1  0.76580000  0.09000000  0.53700000  1.0 0.0502256568
C  C63  1  0.75830000  0.15120000  0.56348000  1.0 0.0396856037
C  C64  1  0.69390000  0.14890000  0.60090000  1.0 -0.1328032612
C  C65  1  0.64280000  0.09110000  0.60820000  1.0 -0.0903158456
C  C66  1  0.65380000  0.02960000  0.58550000  1.0 -0.1073325354
C  C67  1  0.71100000  0.02780000  0.54510000  1.0 -0.1407333
C  C68  1  0.49600000  0.37490000  0.64430000  1.0 0.6018742978
C  C69  1  0.95230000  0.13780000  0.45538000  1.0 0.5903581291
C  C70  1  0.90490000  0.71170000  0.45900000  1.0 -0.1407333
C  C71  1  0.99150000  0.72420000  0.47530000  1.0 -0.0903158456
C  C72  1  0.06710000  0.74350000  0.44520000  1.0 -0.0990847122
C  C73  1  0.05040000  0.75250000  0.40360000  1.0 -0.1201910802
C  C74  1  0.95820000  0.73880000  0.38330000  1.0 0.0396856037
C  C75  1  0.88540000  0.71690000  0.41370000  1.0 0.0502256568
C  C76  1  0.79320000  0.70230000  0.39570000  1.0 -0.1407333
C  C77  1  0.77590000  0.70600000  0.35272000  1.0 -0.1328032612
C  C78  1  0.84820000  0.72790000  0.32310000  1.0 0.2077403277
C  C79  1  0.93720000  0.74430000  0.33900000  1.0 -0.0421526238
C  C80  1  0.01740000  0.76220000  0.30290000  1.0 -0.2491588574
C  C81  1  0.00440000  0.83170000  0.27980000  1.0 -0.0421526238
C  C82  1  0.00700000  0.89220000  0.30500000  1.0 0.2300552338
C  C83  1  0.00290000  0.96040000  0.28455000  1.0 -0.1467828542
C  C84  1  0.00580000  0.96430000  0.24040000  1.0 -0.1328032612
C  C85  1  0.00660000  0.90510000  0.21330000  1.0 0.0638780892
C  C86  1  0.00290000  0.83730000  0.23300000  1.0 0.0502256568
C  C87  1  0.00320000  0.78000000  0.20270000  1.0 -0.1328032612
C  C88  1  0.01130000  0.78890000  0.16020000  1.0 -0.0903158456
C  C89  1  0.01430000  0.85410000  0.14000000  1.0 -0.0990847122
C  C90  1  0.01030000  0.91140000  0.16740000  1.0 -0.1328032612
C  C91  1  0.67550000  0.68880000  0.33695000  1.0 0.6605564266
C  C92  1  0.00410000  0.02500000  0.31210000  1.0 0.6516275614
C  C93  1  0.07920000  0.60340000  0.16250000  1.0 -0.1467828542
C  C94  1  0.98820000  0.59020000  0.14710000  1.0 -0.1201910802
C  C95  1  0.91600000  0.57150000  0.17590000  1.0 -0.0903158456
C  C96  1  0.93270000  0.56790000  0.21950000  1.0 -0.1407333
C  C97  1  0.02550000  0.58050000  0.23790000  1.0 0.0396856037
C  C98  1  0.09830000  0.60070000  0.20811000  1.0 0.0502256568
C  C99  1  0.18900000  0.61750000  0.22433000  1.0 -0.1407333
C  C100  1  0.20980000  0.61620000  0.26804000  1.0 -0.1591998726
C  C101  1  0.13710000  0.59540000  0.29903000  1.0 0.2359525807
C  C102  1  0.04610000  0.57730000  0.28362000  1.0 -0.0421526238
C  C103  1  0.97230000  0.55580000  0.31740000  1.0 -0.2491588574
C  C104  1  0.98800000  0.48460000  0.34100000  1.0 -0.0346632038
C  C105  1  0.99500000  0.42550000  0.31586000  1.0 0.2077403277
C  C106  1  0.00830000  0.35940000  0.33550000  1.0 -0.1407333
C  C107  1  0.00840000  0.35390000  0.37960000  1.0 -0.1407333
C  C108  1  0.00080000  0.41290000  0.40760000  1.0 0.065184845
C  C109  1  0.98690000  0.47950000  0.38650000  1.0 0.0396856037
C  C110  1  0.97510000  0.53790000  0.41660000  1.0 -0.1328032612
C  C111  1  0.96980000  0.52770000  0.46050000  1.0 -0.0990847122
C  C112  1  0.97970000  0.46270000  0.48010000  1.0 -0.1073325354
C  C113  1  0.99650000  0.40520000  0.45370000  1.0 -0.1407333
C  C114  1  0.30800000  0.63590000  0.28436000  1.0 0.6605564266
C  C115  1  0.01660000  0.29460000  0.30850000  1.0 0.6516275614
C  C116  1  0.43140000  0.58680000  0.98740000  1.0 -0.1407333
C  C117  1  0.37630000  0.59290000  0.95220000  1.0 -0.0903158456
C  C118  1  0.29090000  0.62230000  0.95580000  1.0 -0.1073325354
C  C119  1  0.25880000  0.65360000  0.99520000  1.0 -0.1407333
C  C120  1  0.31970000  0.65180000  0.03173000  1.0 0.0396856037
C  C121  1  0.40630000  0.61740000  0.02768000  1.0 0.0502256568
C  C122  1  0.46840000  0.61120000  0.06590000  1.0 -0.1407333
C  C123  1  0.43950000  0.63710000  0.10670000  1.0 -0.1809102573
C  C124  1  0.35040000  0.67350000  0.11009000  1.0 0.2300552338
C  C125  1  0.28920000  0.68290000  0.07392000  1.0 -0.0533839442
C  C126  1  0.19370000  0.72090000  0.07960000  1.0 -0.2491588574
C  C127  1  0.18490000  0.78950000  0.05320000  1.0 -0.0533839442
C  C128  1  0.11870000  0.79530000  0.02037000  1.0 0.2016842425
C  C129  1  0.11330000  0.85670000  0.99365000  1.0 -0.1407333
C  C130  1  0.16820000  0.91260000  0.00210000  1.0 -0.1407333
C  C131  1  0.23420000  0.91000000  0.03700000  1.0 0.0502256568
C  C132  1  0.24170000  0.84880000  0.06348000  1.0 0.0396856037
C  C133  1  0.30610000  0.85110000  0.10090000  1.0 -0.1328032612
C  C134  1  0.35720000  0.90890000  0.10820000  1.0 -0.0903158456
C  C135  1  0.34620000  0.97040000  0.08550000  1.0 -0.1073325354
C  C136  1  0.28900000  0.97220000  0.04510000  1.0 -0.1407333
C  C137  1  0.50400000  0.62510000  0.14430000  1.0 0.6018742978
C  C138  1  0.04770000  0.86220000  0.95538000  1.0 0.5903581291
C  C139  1  0.40490000  0.78830000  0.95900000  1.0 -0.1407333
C  C140  1  0.49150000  0.77580000  0.97530000  1.0 -0.0903158456
C  C141  1  0.56710000  0.75650000  0.94520000  1.0 -0.0990847122
C  C142  1  0.55040000  0.74750000  0.90360000  1.0 -0.1201910802
C  C143  1  0.45820000  0.76120000  0.88330000  1.0 0.0396856037
C  C144  1  0.38540000  0.78310000  0.91370000  1.0 0.0502256568
C  C145  1  0.29320000  0.79770000  0.89570000  1.0 -0.1407333
C  C146  1  0.27590000  0.79400000  0.85272000  1.0 -0.1328032612
C  C147  1  0.34820000  0.77210000  0.82310000  1.0 0.2077403277
C  C148  1  0.43720000  0.75570000  0.83900000  1.0 -0.0421526238
C  C149  1  0.51740000  0.73780000  0.80290000  1.0 -0.2491588574
C  C150  1  0.50440000  0.66830000  0.77980000  1.0 -0.0421526238
C  C151  1  0.50700000  0.60780000  0.80500000  1.0 0.2300552338
C  C152  1  0.50290000  0.53960000  0.78455000  1.0 -0.1467828542
C  C153  1  0.50580000  0.53570000  0.74040000  1.0 -0.1328032612
C  C154  1  0.50660000  0.59490000  0.71330000  1.0 0.0638780892
C  C155  1  0.50290000  0.66270000  0.73300000  1.0 0.0502256568
C  C156  1  0.50320000  0.72000000  0.70270000  1.0 -0.1328032612
C  C157  1  0.51130000  0.71110000  0.66020000  1.0 -0.0903158456
C  C158  1  0.51430000  0.64590000  0.64000000  1.0 -0.0990847122
C  C159  1  0.51030000  0.58860000  0.66740000  1.0 -0.1328032612
C  C160  1  0.17550000  0.81120000  0.83695000  1.0 0.6605564266
C  C161  1  0.50410000  0.47500000  0.81210000  1.0 0.6516275614
C  C162  1  0.57920000  0.89660000  0.66250000  1.0 -0.1467828542
C  C163  1  0.48820000  0.90980000  0.64710000  1.0 -0.1201910802
C  C164  1  0.41600000  0.92850000  0.67590000  1.0 -0.0903158456
C  C165  1  0.43270000  0.93210000  0.71950000  1.0 -0.1407333
C  C166  1  0.52550000  0.91950000  0.73790000  1.0 0.0396856037
C  C167  1  0.59830000  0.89930000  0.70811000  1.0 0.0502256568
C  C168  1  0.68900000  0.88250000  0.72433000  1.0 -0.1407333
C  C169  1  0.70980000  0.88380000  0.76804000  1.0 -0.1591998726
C  C170  1  0.63710000  0.90460000  0.79903000  1.0 0.2359525807
C  C171  1  0.54610000  0.92270000  0.78362000  1.0 -0.0421526238
C  C172  1  0.47230000  0.94420000  0.81740000  1.0 -0.2491588574
C  C173  1  0.48800000  0.01540000  0.84100000  1.0 -0.0421526238
C  C174  1  0.49500000  0.07450000  0.81586000  1.0 0.2077403277
C  C175  1  0.50830000  0.14060000  0.83550000  1.0 -0.1407333
C  C176  1  0.50840000  0.14610000  0.87960000  1.0 -0.1407333
C  C177  1  0.50080000  0.08710000  0.90760000  1.0 0.065184845
C  C178  1  0.48690000  0.02050000  0.88650000  1.0 0.0396856037
C  C179  1  0.47510000  0.96210000  0.91660000  1.0 -0.1328032612
C  C180  1  0.46980000  0.97230000  0.96050000  1.0 -0.0990847122
C  C181  1  0.47970000  0.03730000  0.98010000  1.0 -0.1073325354
C  C182  1  0.49650000  0.09480000  0.95370000  1.0 -0.1407333
C  C183  1  0.80800000  0.86410000  0.78436000  1.0 0.6605564266
C  C184  1  0.51660000  0.20540000  0.80850000  1.0 0.6516275614
C  C185  1  0.93140000  0.91320000  0.48740000  1.0 -0.1407333
C  C186  1  0.87630000  0.90710000  0.45220000  1.0 -0.0903158456
C  C187  1  0.79090000  0.87770000  0.45580000  1.0 -0.1073325354
C  C188  1  0.75880000  0.84640000  0.49520000  1.0 -0.1407333
C  C189  1  0.81970000  0.84820000  0.53173000  1.0 0.0396856037
C  C190  1  0.90630000  0.88260000  0.52768000  1.0 0.0502256568
C  C191  1  0.96840000  0.88880000  0.56590000  1.0 -0.1407333
C  C192  1  0.93950000  0.86290000  0.60670000  1.0 -0.1809102573
C  C193  1  0.85040000  0.82650000  0.61009000  1.0 0.2300552338
C  C194  1  0.78920000  0.81710000  0.57392000  1.0 -0.0533839442
C  C195  1  0.69370000  0.77910000  0.57960000  1.0 -0.2491588574
C  C196  1  0.68490000  0.71050000  0.55320000  1.0 -0.0533839442
C  C197  1  0.61870000  0.70470000  0.52037000  1.0 0.2016842425
C  C198  1  0.61330000  0.64330000  0.49365000  1.0 -0.1407333
C  C199  1  0.66820000  0.58740000  0.50210000  1.0 -0.1407333
C  C200  1  0.73420000  0.59000000  0.53700000  1.0 0.0502256568
C  C201  1  0.74170000  0.65120000  0.56348000  1.0 0.0396856037
C  C202  1  0.80610000  0.64890000  0.60090000  1.0 -0.1328032612
C  C203  1  0.85720000  0.59110000  0.60820000  1.0 -0.0903158456
C  C204  1  0.84620000  0.52960000  0.58550000  1.0 -0.1073325354
C  C205  1  0.78900000  0.52780000  0.54510000  1.0 -0.1407333
C  C206  1  0.00400000  0.87490000  0.64430000  1.0 0.6018742978
C  C207  1  0.54770000  0.63780000  0.45538000  1.0 0.5903581291
C  C208  1  0.59510000  0.21170000  0.45900000  1.0 -0.1407333
C  C209  1  0.50850000  0.22420000  0.47530000  1.0 -0.0903158456
C  C210  1  0.43290000  0.24350000  0.44520000  1.0 -0.0990847122
C  C211  1  0.44960000  0.25250000  0.40360000  1.0 -0.1201910802
C  C212  1  0.54180000  0.23880000  0.38330000  1.0 0.0396856037
C  C213  1  0.61460000  0.21690000  0.41370000  1.0 0.0502256568
C  C214  1  0.70680000  0.20230000  0.39570000  1.0 -0.1407333
C  C215  1  0.72410000  0.20600000  0.35272000  1.0 -0.1328032612
C  C216  1  0.65180000  0.22790000  0.32310000  1.0 0.2077403277
C  C217  1  0.56280000  0.24430000  0.33900000  1.0 -0.0421526238
C  C218  1  0.48260000  0.26220000  0.30290000  1.0 -0.2491588574
C  C219  1  0.49560000  0.33170000  0.27980000  1.0 -0.0421526238
C  C220  1  0.49300000  0.39220000  0.30500000  1.0 0.2300552338
C  C221  1  0.49710000  0.46040000  0.28455000  1.0 -0.1467828542
C  C222  1  0.49420000  0.46430000  0.24040000  1.0 -0.1328032612
C  C223  1  0.49340000  0.40510000  0.21330000  1.0 0.0638780892
C  C224  1  0.49710000  0.33730000  0.23300000  1.0 0.0502256568
C  C225  1  0.49680000  0.28000000  0.20270000  1.0 -0.1328032612
C  C226  1  0.48870000  0.28890000  0.16020000  1.0 -0.0903158456
C  C227  1  0.48570000  0.35410000  0.14000000  1.0 -0.0990847122
C  C228  1  0.48970000  0.41140000  0.16740000  1.0 -0.1328032612
C  C229  1  0.82450000  0.18880000  0.33695000  1.0 0.6605564266
C  C230  1  0.49590000  0.52500000  0.31210000  1.0 0.6516275614
C  C231  1  0.42080000  0.10340000  0.16250000  1.0 -0.1467828542
C  C232  1  0.51180000  0.09020000  0.14710000  1.0 -0.1201910802
C  C233  1  0.58400000  0.07150000  0.17590000  1.0 -0.0903158456
C  C234  1  0.56730000  0.06790000  0.21950000  1.0 -0.1407333
C  C235  1  0.47450000  0.08050000  0.23790000  1.0 0.0396856037
C  C236  1  0.40170000  0.10070000  0.20811000  1.0 0.0502256568
C  C237  1  0.31100000  0.11750000  0.22433000  1.0 -0.1407333
C  C238  1  0.29020000  0.11620000  0.26804000  1.0 -0.1591998726
C  C239  1  0.36290000  0.09540000  0.29903000  1.0 0.2359525807
C  C240  1  0.45390000  0.07730000  0.28362000  1.0 -0.0421526238
C  C241  1  0.52770000  0.05580000  0.31740000  1.0 -0.2491588574
C  C242  1  0.51200000  0.98460000  0.34100000  1.0 -0.0346632038
C  C243  1  0.50500000  0.92550000  0.31586000  1.0 0.2077403277
C  C244  1  0.49170000  0.85940000  0.33550000  1.0 -0.1407333
C  C245  1  0.49160000  0.85390000  0.37960000  1.0 -0.1407333
C  C246  1  0.49920000  0.91290000  0.40760000  1.0 0.065184845
C  C247  1  0.51310000  0.97950000  0.38650000  1.0 0.0396856037
C  C248  1  0.52490000  0.03790000  0.41660000  1.0 -0.1328032612
C  C249  1  0.53020000  0.02770000  0.46050000  1.0 -0.0990847122
C  C250  1  0.52030000  0.96270000  0.48010000  1.0 -0.1073325354
C  C251  1  0.50350000  0.90520000  0.45370000  1.0 -0.1407333
C  C252  1  0.19200000  0.13590000  0.28436000  1.0 0.6605564266
C  C253  1  0.48340000  0.79460000  0.30850000  1.0 0.6516275614
C  C254  1  0.06860000  0.08680000  0.98740000  1.0 -0.1407333
C  C255  1  0.12370000  0.09290000  0.95220000  1.0 -0.0903158456
C  C256  1  0.20910000  0.12230000  0.95580000  1.0 -0.1073325354
C  C257  1  0.24120000  0.15360000  0.99520000  1.0 -0.1407333
C  C258  1  0.18030000  0.15180000  0.03173000  1.0 0.0396856037
C  C259  1  0.09370000  0.11740000  0.02768000  1.0 0.0502256568
C  C260  1  0.03160000  0.11120000  0.06590000  1.0 -0.1407333
C  C261  1  0.06050000  0.13710000  0.10670000  1.0 -0.1809102573
C  C262  1  0.14960000  0.17350000  0.11009000  1.0 0.2300552338
C  C263  1  0.21080000  0.18290000  0.07392000  1.0 -0.0533839442
C  C264  1  0.30630000  0.22090000  0.07960000  1.0 -0.2491588574
C  C265  1  0.31510000  0.28950000  0.05320000  1.0 -0.0533839442
C  C266  1  0.38130000  0.29530000  0.02037000  1.0 0.2016842425
C  C267  1  0.38670000  0.35670000  0.99365000  1.0 -0.1407333
C  C268  1  0.33180000  0.41260000  0.00210000  1.0 -0.1407333
C  C269  1  0.26580000  0.41000000  0.03700000  1.0 0.0502256568
C  C270  1  0.25830000  0.34880000  0.06348000  1.0 0.0396856037
C  C271  1  0.19390000  0.35110000  0.10090000  1.0 -0.1328032612
C  C272  1  0.14280000  0.40890000  0.10820000  1.0 -0.0903158456
C  C273  1  0.15380000  0.47040000  0.08550000  1.0 -0.1073325354
C  C274  1  0.21100000  0.47220000  0.04510000  1.0 -0.1407333
C  C275  1  0.99600000  0.12510000  0.14430000  1.0 0.6018742978
C  C276  1  0.45230000  0.36220000  0.95538000  1.0 0.5903581291
O  O1  1  0.38180000  0.33680000  0.86479000  1.0 -0.6377554626
O  O2  1  0.34220000  0.30390000  0.79637000  1.0 -0.6994406224
O  O3  1  0.16620000  0.26970000  0.77888000  1.0 -0.3795571417
O  O4  1  0.98620000  0.11310000  0.84906000  1.0 -0.4333978683
O  O5  1  0.97710000  0.97920000  0.85254000  1.0 -0.6075119466
O  O6  1  0.01050000  0.91708000  0.79573000  1.0 -0.6922708542
O  O7  1  0.67300000  0.37530000  0.82427000  1.0 -0.6838429511
O  O8  1  0.63460000  0.33884000  0.75584000  1.0 -0.6472489328
O  O9  1  0.84770000  0.40940000  0.84212000  1.0 -0.3795571417
O  O10  1  0.01120000  0.56845000  0.77109000  1.0 -0.435580501
O  O11  1  0.99250000  0.70276000  0.76579000  1.0 -0.6659126372
O  O12  1  0.97310000  0.76572000  0.82594000  1.0 -0.7576415778
O  O13  1  0.52370000  0.34720000  0.68191000  1.0 -0.7417503089
O  O14  1  0.42070000  0.40450000  0.64077000  1.0 -0.5003188938
O  O15  1  0.67800000  0.30090000  0.64856000  1.0 -0.4122085363
O  O16  1  0.93970000  0.25950000  0.51229000  1.0 -0.4198161453
O  O17  1  0.00100000  0.19350000  0.44293000  1.0 -0.6994406224
O  O18  1  0.96160000  0.08370000  0.43376000  1.0 -0.5725377888
O  O19  1  0.61820000  0.66320000  0.36479000  1.0 -0.6377554626
O  O20  1  0.65780000  0.69610000  0.29637000  1.0 -0.6994406224
O  O21  1  0.83380000  0.73030000  0.27888000  1.0 -0.3795571417
O  O22  1  0.01380000  0.88690000  0.34906000  1.0 -0.4333978683
O  O23  1  0.02290000  0.02080000  0.35254000  1.0 -0.6075119466
O  O24  1  0.98950000  0.08292000  0.29573000  1.0 -0.6922708542
O  O25  1  0.32700000  0.62470000  0.32427000  1.0 -0.6838429511
O  O26  1  0.36540000  0.66116000  0.25584000  1.0 -0.6472489328
O  O27  1  0.15230000  0.59060000  0.34212000  1.0 -0.3795571417
O  O28  1  0.98880000  0.43155000  0.27109000  1.0 -0.435580501
O  O29  1  0.00750000  0.29724000  0.26579000  1.0 -0.6659126372
O  O30  1  0.02690000  0.23428000  0.32594000  1.0 -0.7576415778
O  O31  1  0.47630000  0.65280000  0.18191000  1.0 -0.7417503089
O  O32  1  0.57930000  0.59550000  0.14077000  1.0 -0.5003188938
O  O33  1  0.32200000  0.69910000  0.14856000  1.0 -0.4122085363
O  O34  1  0.06030000  0.74050000  0.01229000  1.0 -0.4198161453
O  O35  1  0.99900000  0.80650000  0.94293000  1.0 -0.6994406224
O  O36  1  0.03840000  0.91630000  0.93376000  1.0 -0.5725377888
O  O37  1  0.11820000  0.83680000  0.86479000  1.0 -0.6377554626
O  O38  1  0.15780000  0.80390000  0.79637000  1.0 -0.6994406224
O  O39  1  0.33380000  0.76970000  0.77888000  1.0 -0.3795571417
O  O40  1  0.51380000  0.61310000  0.84906000  1.0 -0.4333978683
O  O41  1  0.52290000  0.47920000  0.85254000  1.0 -0.6075119466
O  O42  1  0.48950000  0.41708000  0.79573000  1.0 -0.6922708542
O  O43  1  0.82700000  0.87530000  0.82427000  1.0 -0.6838429511
O  O44  1  0.86540000  0.83884000  0.75584000  1.0 -0.6472489328
O  O45  1  0.65230000  0.90940000  0.84212000  1.0 -0.3795571417
O  O46  1  0.48880000  0.06845000  0.77109000  1.0 -0.435580501
O  O47  1  0.50750000  0.20276000  0.76579000  1.0 -0.6659126372
O  O48  1  0.52690000  0.26572000  0.82594000  1.0 -0.7576415778
O  O49  1  0.97630000  0.84720000  0.68191000  1.0 -0.7417503089
O  O50  1  0.07930000  0.90450000  0.64077000  1.0 -0.5003188938
O  O51  1  0.82200000  0.80090000  0.64856000  1.0 -0.4122085363
O  O52  1  0.56030000  0.75950000  0.51229000  1.0 -0.4198161453
O  O53  1  0.49900000  0.69350000  0.44293000  1.0 -0.6994406224
O  O54  1  0.53840000  0.58370000  0.43376000  1.0 -0.5725377888
O  O55  1  0.88180000  0.16320000  0.36479000  1.0 -0.6377554626
O  O56  1  0.84220000  0.19610000  0.29637000  1.0 -0.6994406224
O  O57  1  0.66620000  0.23030000  0.27888000  1.0 -0.3795571417
O  O58  1  0.48620000  0.38690000  0.34906000  1.0 -0.4333978683
O  O59  1  0.47710000  0.52080000  0.35254000  1.0 -0.6075119466
O  O60  1  0.51050000  0.58292000  0.29573000  1.0 -0.6922708542
O  O61  1  0.17300000  0.12470000  0.32427000  1.0 -0.6838429511
O  O62  1  0.13460000  0.16116000  0.25584000  1.0 -0.6472489328
O  O63  1  0.34770000  0.09060000  0.34212000  1.0 -0.3795571417
O  O64  1  0.51120000  0.93155000  0.27109000  1.0 -0.435580501
O  O65  1  0.49250000  0.79724000  0.26579000  1.0 -0.6659126372
O  O66  1  0.47310000  0.73428000  0.32594000  1.0 -0.7576415778
O  O67  1  0.02370000  0.15280000  0.18191000  1.0 -0.7417503089
O  O68  1  0.92070000  0.09550000  0.14077000  1.0 -0.5003188938
O  O69  1  0.17800000  0.19910000  0.14856000  1.0 -0.4122085363
O  O70  1  0.43970000  0.24050000  0.01229000  1.0 -0.4198161453
O  O71  1  0.50100000  0.30650000  0.94293000  1.0 -0.6994406224
O  O72  1  0.46160000  0.41630000  0.93376000  1.0 -0.5725377888
