# DDEC6 charges by PACMAN v1.1 (https://github.com/mtap-research/PACMAN-charge/)
data_QOBHIB_FSR_pacman
_symmetry_space_group_name_H-M   'P 1'
_cell_length_a   17.08310000
_cell_length_b   17.08310000
_cell_length_c   19.22570000
_cell_angle_alpha   81.14590000
_cell_angle_beta   98.85410000
_cell_angle_gamma   66.72650000
_symmetry_Int_Tables_number   1
_chemical_formula_structural   Zn2H35C51(NO3)4
_chemical_formula_sum   'Zn8 H140 C204 N16 O48'
_cell_volume   4948.14929584
_cell_formula_units_Z   4
loop_
 _symmetry_equiv_pos_site_id
 _symmetry_equiv_pos_as_xyz
  1  'x, y, z'
loop_
 _atom_site_type_symbol
 _atom_site_label
 _atom_site_symmetry_multiplicity
 _atom_site_fract_x
 _atom_site_fract_y
 _atom_site_fract_z
 _atom_site_occupancy
 _atom_site_charge
Zn  Zn1  1  0.08895000  0.54925000  0.36877000  1.0 0.7832337052
Zn  Zn2  1  0.03108000  0.61168000  0.14186000  1.0 0.7895045311
Zn  Zn3  1  0.45075000  0.91105000  0.36877000  1.0 0.7832337052
Zn  Zn4  1  0.38832000  0.96892000  0.14186000  1.0 0.7895045311
Zn  Zn5  1  0.54925000  0.08895000  0.63123000  1.0 0.7832337052
Zn  Zn6  1  0.61168000  0.03108000  0.85814000  1.0 0.7895045311
Zn  Zn7  1  0.91105000  0.45075000  0.63123000  1.0 0.7832337052
Zn  Zn8  1  0.96892000  0.38832000  0.85814000  1.0 0.7895045311
H  H1  1  0.05707000  0.55211000  0.52855000  1.0 0.0986820782
H  H2  1  0.14021000  0.49923000  0.64575000  1.0 0.1094650224
H  H3  1  0.35459000  0.39325000  0.56417000  1.0 0.0986820782
H  H4  1  0.26022000  0.44956000  0.44913000  1.0 0.0810972309
H  H5  1  0.22938000  0.47500000  0.74481000  1.0 0.1386067488
H  H6  1  0.32577000  0.41817000  0.85817000  1.0 0.1177153022
H  H7  1  0.51593000  0.27221000  0.77526000  1.0 0.1386067488
H  H8  1  0.42379000  0.32653000  0.66076000  1.0 0.1282629237
H  H9  1  0.45785000  0.31295000  0.93684000  1.0 0.1282629237
H  H10  1  0.52929000  0.24341000  0.90524000  1.0 0.1386067488
H  H11  1  0.45081000  0.46713000  0.91816000  1.0 0.1177153022
H  H12  1  0.65630000  0.26198000  0.89192000  1.0 0.1282629237
H  H13  1  0.96027000  0.78909000  0.04667000  1.0 0.1177153022
H  H14  1  0.91419000  0.86415000  0.92591000  1.0 0.1177153022
H  H15  1  0.00600000  0.63252000  0.87173000  1.0 0.0986820782
H  H16  1  0.04456000  0.56218000  0.99212000  1.0 0.0810972309
H  H17  1  0.83790000  0.91622000  0.82372000  1.0 0.1386067488
H  H18  1  0.79716000  0.99110000  0.70319000  1.0 0.1386067488
H  H19  1  0.96384000  0.78142000  0.65237000  1.0 0.1177153022
H  H20  1  0.00670000  0.70256000  0.77150000  1.0 0.1386067488
H  H21  1  0.86871000  0.90209000  0.55967000  1.0 0.1282629237
H  H22  1  0.79077000  0.98145000  0.57721000  1.0 0.1386067488
H  H23  1  0.80510000  0.11290000  0.58275000  1.0 0.1386067488
H  H24  1  0.02237000  0.89581000  0.59135000  1.0 0.1177153022
H  H25  1  0.23953000  0.29277000  0.13213000  1.0 0.1177153022
H  H26  1  0.23516000  0.22766000  0.37547000  1.0 0.1177153022
H  H27  1  0.06199000  0.58493000  0.51892000  1.0 0.0888799564
H  H28  1  0.15383000  0.53911000  0.63302000  1.0 0.1094650224
H  H29  1  0.31659000  0.33455000  0.57600000  1.0 0.0986820782
H  H30  1  0.22514000  0.38542000  0.46185000  1.0 0.0810972309
H  H31  1  0.87369000  0.73705000  0.03388000  1.0 0.0986820782
H  H32  1  0.83485000  0.81883000  0.91542000  1.0 0.1094650224
H  H33  1  0.06694000  0.65146000  0.88932000  1.0 0.0888799564
H  H34  1  0.09541000  0.57631000  0.00801000  1.0 0.0703450174
H  H35  1  0.44789000  0.94293000  0.52855000  1.0 0.0986820782
H  H36  1  0.50077000  0.85979000  0.64575000  1.0 0.1094650224
H  H37  1  0.60675000  0.64541000  0.56417000  1.0 0.0986820782
H  H38  1  0.55044000  0.73978000  0.44913000  1.0 0.0810972309
H  H39  1  0.52500000  0.77062000  0.74481000  1.0 0.1386067488
H  H40  1  0.58183000  0.67423000  0.85817000  1.0 0.1177153022
H  H41  1  0.72779000  0.48407000  0.77526000  1.0 0.1386067488
H  H42  1  0.67347000  0.57621000  0.66076000  1.0 0.1282629237
H  H43  1  0.68705000  0.54215000  0.93684000  1.0 0.1282629237
H  H44  1  0.75659000  0.47071000  0.90524000  1.0 0.1386067488
H  H45  1  0.53287000  0.54919000  0.91816000  1.0 0.1177153022
H  H46  1  0.73802000  0.34370000  0.89192000  1.0 0.1282629237
H  H47  1  0.21091000  0.03973000  0.04667000  1.0 0.1177153022
H  H48  1  0.13585000  0.08581000  0.92591000  1.0 0.1177153022
H  H49  1  0.36748000  0.99400000  0.87173000  1.0 0.0986820782
H  H50  1  0.43782000  0.95544000  0.99212000  1.0 0.0810972309
H  H51  1  0.08378000  0.16210000  0.82372000  1.0 0.1386067488
H  H52  1  0.00890000  0.20284000  0.70319000  1.0 0.1386067488
H  H53  1  0.21858000  0.03616000  0.65237000  1.0 0.1177153022
H  H54  1  0.29744000  0.99330000  0.77150000  1.0 0.1386067488
H  H55  1  0.09791000  0.13129000  0.55967000  1.0 0.1282629237
H  H56  1  0.01855000  0.20923000  0.57721000  1.0 0.1386067488
H  H57  1  0.88710000  0.19490000  0.58275000  1.0 0.1386067488
H  H58  1  0.10419000  0.97763000  0.59135000  1.0 0.1177153022
H  H59  1  0.70723000  0.76047000  0.13213000  1.0 0.1177153022
H  H60  1  0.77234000  0.76484000  0.37547000  1.0 0.1177153022
H  H61  1  0.41507000  0.93801000  0.51892000  1.0 0.0888799564
H  H62  1  0.46089000  0.84617000  0.63302000  1.0 0.1094650224
H  H63  1  0.66545000  0.68341000  0.57600000  1.0 0.0986820782
H  H64  1  0.61458000  0.77486000  0.46185000  1.0 0.0810972309
H  H65  1  0.26295000  0.12631000  0.03388000  1.0 0.0986820782
H  H66  1  0.18117000  0.16515000  0.91542000  1.0 0.1094650224
H  H67  1  0.34854000  0.93306000  0.88932000  1.0 0.0888799564
H  H68  1  0.42369000  0.90459000  0.00801000  1.0 0.0703450174
H  H69  1  0.17133000  0.82867000  0.13911000  1.0 0.1282629237
H  H70  1  0.30698000  0.69302000  0.38202000  1.0 0.1282629237
H  H71  1  0.55211000  0.05707000  0.47145000  1.0 0.0986820782
H  H72  1  0.49923000  0.14021000  0.35425000  1.0 0.1094650224
H  H73  1  0.39325000  0.35459000  0.43583000  1.0 0.0986820782
H  H74  1  0.44956000  0.26022000  0.55087000  1.0 0.0810972309
H  H75  1  0.47500000  0.22938000  0.25519000  1.0 0.1386067488
H  H76  1  0.41817000  0.32577000  0.14183000  1.0 0.1177153022
H  H77  1  0.27221000  0.51593000  0.22474000  1.0 0.1386067488
H  H78  1  0.32653000  0.42379000  0.33924000  1.0 0.1282629237
H  H79  1  0.31295000  0.45785000  0.06316000  1.0 0.1282629237
H  H80  1  0.24341000  0.52929000  0.09476000  1.0 0.1386067488
H  H81  1  0.46713000  0.45081000  0.08184000  1.0 0.1177153022
H  H82  1  0.26198000  0.65630000  0.10808000  1.0 0.1282629237
H  H83  1  0.78909000  0.96027000  0.95333000  1.0 0.1177153022
H  H84  1  0.86415000  0.91419000  0.07409000  1.0 0.1177153022
H  H85  1  0.63252000  0.00600000  0.12827000  1.0 0.0986820782
H  H86  1  0.56218000  0.04456000  0.00788000  1.0 0.0810972309
H  H87  1  0.91622000  0.83790000  0.17628000  1.0 0.1386067488
H  H88  1  0.99110000  0.79716000  0.29681000  1.0 0.1386067488
H  H89  1  0.78142000  0.96384000  0.34763000  1.0 0.1177153022
H  H90  1  0.70256000  0.00670000  0.22850000  1.0 0.1386067488
H  H91  1  0.90209000  0.86871000  0.44033000  1.0 0.1282629237
H  H92  1  0.98145000  0.79077000  0.42279000  1.0 0.1386067488
H  H93  1  0.11290000  0.80510000  0.41725000  1.0 0.1386067488
H  H94  1  0.89581000  0.02237000  0.40865000  1.0 0.1177153022
H  H95  1  0.29277000  0.23953000  0.86787000  1.0 0.1177153022
H  H96  1  0.22766000  0.23516000  0.62453000  1.0 0.1177153022
H  H97  1  0.58493000  0.06199000  0.48108000  1.0 0.0888799564
H  H98  1  0.53911000  0.15383000  0.36698000  1.0 0.1094650224
H  H99  1  0.33455000  0.31659000  0.42400000  1.0 0.0986820782
H  H100  1  0.38542000  0.22514000  0.53815000  1.0 0.0810972309
H  H101  1  0.73705000  0.87369000  0.96612000  1.0 0.0986820782
H  H102  1  0.81883000  0.83485000  0.08458000  1.0 0.1094650224
H  H103  1  0.65146000  0.06694000  0.11068000  1.0 0.0888799564
H  H104  1  0.57631000  0.09541000  0.99199000  1.0 0.0703450174
H  H105  1  0.94293000  0.44789000  0.47145000  1.0 0.0986820782
H  H106  1  0.85979000  0.50077000  0.35425000  1.0 0.1094650224
H  H107  1  0.64541000  0.60675000  0.43583000  1.0 0.0986820782
H  H108  1  0.73978000  0.55044000  0.55087000  1.0 0.0810972309
H  H109  1  0.77062000  0.52500000  0.25519000  1.0 0.1386067488
H  H110  1  0.67423000  0.58183000  0.14183000  1.0 0.1177153022
H  H111  1  0.48407000  0.72779000  0.22474000  1.0 0.1386067488
H  H112  1  0.57621000  0.67347000  0.33924000  1.0 0.1282629237
H  H113  1  0.54215000  0.68705000  0.06316000  1.0 0.1282629237
H  H114  1  0.47071000  0.75659000  0.09476000  1.0 0.1386067488
H  H115  1  0.54919000  0.53287000  0.08184000  1.0 0.1177153022
H  H116  1  0.34370000  0.73802000  0.10808000  1.0 0.1282629237
H  H117  1  0.03973000  0.21091000  0.95333000  1.0 0.1177153022
H  H118  1  0.08581000  0.13585000  0.07409000  1.0 0.1177153022
H  H119  1  0.99400000  0.36748000  0.12827000  1.0 0.0986820782
H  H120  1  0.95544000  0.43782000  0.00788000  1.0 0.0810972309
H  H121  1  0.16210000  0.08378000  0.17628000  1.0 0.1386067488
H  H122  1  0.20284000  0.00890000  0.29681000  1.0 0.1386067488
H  H123  1  0.03616000  0.21858000  0.34763000  1.0 0.1177153022
H  H124  1  0.99330000  0.29744000  0.22850000  1.0 0.1386067488
H  H125  1  0.13129000  0.09791000  0.44033000  1.0 0.1282629237
H  H126  1  0.20923000  0.01855000  0.42279000  1.0 0.1386067488
H  H127  1  0.19490000  0.88710000  0.41725000  1.0 0.1386067488
H  H128  1  0.97763000  0.10419000  0.40865000  1.0 0.1177153022
H  H129  1  0.76047000  0.70723000  0.86787000  1.0 0.1177153022
H  H130  1  0.76484000  0.77234000  0.62453000  1.0 0.1177153022
H  H131  1  0.93801000  0.41507000  0.48108000  1.0 0.0888799564
H  H132  1  0.84617000  0.46089000  0.36698000  1.0 0.1094650224
H  H133  1  0.68341000  0.66545000  0.42400000  1.0 0.0986820782
H  H134  1  0.77486000  0.61458000  0.53815000  1.0 0.0810972309
H  H135  1  0.12631000  0.26295000  0.96612000  1.0 0.0986820782
H  H136  1  0.16515000  0.18117000  0.08458000  1.0 0.1094650224
H  H137  1  0.93306000  0.34854000  0.11068000  1.0 0.0888799564
H  H138  1  0.90459000  0.42369000  0.99199000  1.0 0.0703450174
H  H139  1  0.82867000  0.17133000  0.86089000  1.0 0.1282629237
H  H140  1  0.69302000  0.30698000  0.61798000  1.0 0.1282629237
C  C1  1  0.25513000  0.43803000  0.61708000  1.0 0.0574009859
C  C2  1  0.11780000  0.51560000  0.53580000  1.0 -0.0213595953
C  C3  1  0.16660000  0.48640000  0.60640000  1.0 -0.0738824231
C  C4  1  0.29300000  0.42380000  0.55810000  1.0 -0.0503863781
C  C5  1  0.23550000  0.45670000  0.49000000  1.0 0.0309115295
C  C6  1  0.31556000  0.40614000  0.69015000  1.0 0.0888799564
C  C7  1  0.28792000  0.43318000  0.75014000  1.0 -0.1920234392
C  C8  1  0.34513000  0.39953000  0.81728000  1.0 0.0309115295
C  C9  1  0.45695000  0.31379000  0.76850000  1.0 0.0487778112
C  C10  1  0.40238000  0.34568000  0.70078000  1.0 -0.1813313037
C  C11  1  0.49071000  0.30651000  0.89830000  1.0 -0.1965295245
C  C12  1  0.54553000  0.35739000  0.90338000  1.0 0.0986820782
C  C13  1  0.50913000  0.44213000  0.91210000  1.0 -0.15874309
C  C14  1  0.63062000  0.32082000  0.89660000  1.0 -0.1307354241
C  C15  1  0.96380000  0.75700000  0.01020000  1.0 -0.0049017644
C  C16  1  0.93870000  0.80190000  0.93930000  1.0 -0.0876532316
C  C17  1  0.99170000  0.66590000  0.90700000  1.0 -0.0503863781
C  C18  1  0.01350000  0.62430000  0.97980000  1.0 0.0220822815
C  C19  1  0.95101000  0.75195000  0.88735000  1.0 0.0487778112
C  C20  1  0.92659000  0.80099000  0.81071000  1.0 0.0888799564
C  C21  1  0.86411000  0.88759000  0.78907000  1.0 -0.1813313037
C  C22  1  0.84015000  0.93193000  0.71785000  1.0 0.0487778112
C  C23  1  0.93820000  0.80840000  0.68790000  1.0 0.0309115295
C  C24  1  0.96371000  0.76171000  0.75837000  1.0 -0.1965295245
C  C25  1  0.85442000  0.94262000  0.59232000  1.0 -0.1920234392
C  C26  1  0.90611000  0.99691000  0.58741000  1.0 0.0888799564
C  C27  1  0.86604000  0.08524000  0.58470000  1.0 -0.1436026563
C  C28  1  0.99485000  0.95665000  0.58980000  1.0 -0.15874309
C  C29  1  0.13477000  0.39381000  0.32245000  1.0 0.5624292325
C  C30  1  0.18505000  0.32613000  0.28420000  1.0 -0.0213595953
C  C31  1  0.18565000  0.34551000  0.21080000  1.0 -0.0371723368
C  C32  1  0.23873000  0.27951000  0.18178000  1.0 -0.1920234392
C  C33  1  0.29050000  0.19484000  0.22360000  1.0 -0.0213595953
C  C34  1  0.28966000  0.17492000  0.29676000  1.0 -0.0296441795
C  C35  1  0.23636000  0.24110000  0.32594000  1.0 -0.2092940218
C  C36  1  0.13069000  0.43529000  0.16100000  1.0 0.528769511
C  C37  1  0.34201000  0.12877000  0.18419000  1.0 0.5770355493
C  C38  1  0.34458000  0.08496000  0.34634000  1.0 0.528769511
C  C39  1  0.19450000  0.63110000  0.34010000  1.0 0.5624292325
C  C40  1  0.21703000  0.69763000  0.29720000  1.0 -0.0296441795
C  C41  1  0.17767000  0.73707000  0.22420000  1.0 -0.0296441795
C  C42  1  0.11120000  0.71520000  0.17920000  1.0 0.5624292325
C  C43  1  0.11860000  0.53760000  0.52870000  1.0 -0.0213595953
C  C44  1  0.17350000  0.50850000  0.59720000  1.0 -0.099138078
C  C45  1  0.26810000  0.39050000  0.56440000  1.0 -0.0738824231
C  C46  1  0.21380000  0.42080000  0.49600000  1.0 0.0220822815
C  C47  1  0.91530000  0.72470000  0.00480000  1.0 -0.0296441795
C  C48  1  0.89180000  0.77200000  0.93370000  1.0 -0.0503863781
C  C49  1  0.02680000  0.67460000  0.91810000  1.0 -0.0503863781
C  C50  1  0.04510000  0.63090000  0.98980000  1.0 0.0309115295
C  C51  1  0.56197000  0.74487000  0.61708000  1.0 0.0574009859
C  C52  1  0.48440000  0.88220000  0.53580000  1.0 -0.0213595953
C  C53  1  0.51360000  0.83340000  0.60640000  1.0 -0.0738824231
C  C54  1  0.57620000  0.70700000  0.55810000  1.0 -0.0503863781
C  C55  1  0.54330000  0.76450000  0.49000000  1.0 0.0309115295
C  C56  1  0.59386000  0.68444000  0.69015000  1.0 0.0888799564
C  C57  1  0.56682000  0.71208000  0.75014000  1.0 -0.1920234392
C  C58  1  0.60047000  0.65487000  0.81728000  1.0 0.0309115295
C  C59  1  0.68621000  0.54305000  0.76850000  1.0 0.0487778112
C  C60  1  0.65432000  0.59762000  0.70078000  1.0 -0.1813313037
C  C61  1  0.69349000  0.50929000  0.89830000  1.0 -0.1965295245
C  C62  1  0.64261000  0.45447000  0.90338000  1.0 0.0986820782
C  C63  1  0.55787000  0.49087000  0.91210000  1.0 -0.15874309
C  C64  1  0.67918000  0.36938000  0.89660000  1.0 -0.1307354241
C  C65  1  0.24300000  0.03620000  0.01020000  1.0 -0.0049017644
C  C66  1  0.19810000  0.06130000  0.93930000  1.0 -0.0876532316
C  C67  1  0.33410000  0.00830000  0.90700000  1.0 -0.0503863781
C  C68  1  0.37570000  0.98650000  0.97980000  1.0 0.0220822815
C  C69  1  0.24805000  0.04899000  0.88735000  1.0 0.0487778112
C  C70  1  0.19901000  0.07341000  0.81071000  1.0 0.0888799564
C  C71  1  0.11241000  0.13589000  0.78907000  1.0 -0.1813313037
C  C72  1  0.06807000  0.15985000  0.71785000  1.0 0.0487778112
C  C73  1  0.19160000  0.06180000  0.68790000  1.0 0.0309115295
C  C74  1  0.23829000  0.03629000  0.75837000  1.0 -0.1965295245
C  C75  1  0.05738000  0.14558000  0.59232000  1.0 -0.1920234392
C  C76  1  0.00309000  0.09389000  0.58741000  1.0 0.0888799564
C  C77  1  0.91476000  0.13396000  0.58470000  1.0 -0.1436026563
C  C78  1  0.04335000  0.00515000  0.58980000  1.0 -0.15874309
C  C79  1  0.60619000  0.86523000  0.32245000  1.0 0.5624292325
C  C80  1  0.67387000  0.81495000  0.28420000  1.0 -0.0213595953
C  C81  1  0.65449000  0.81435000  0.21080000  1.0 -0.0371723368
C  C82  1  0.72049000  0.76127000  0.18178000  1.0 -0.1920234392
C  C83  1  0.80516000  0.70950000  0.22360000  1.0 -0.0213595953
C  C84  1  0.82508000  0.71034000  0.29676000  1.0 -0.0296441795
C  C85  1  0.75890000  0.76364000  0.32594000  1.0 -0.2092940218
C  C86  1  0.56471000  0.86931000  0.16100000  1.0 0.528769511
C  C87  1  0.87123000  0.65799000  0.18419000  1.0 0.5770355493
C  C88  1  0.91504000  0.65542000  0.34634000  1.0 0.528769511
C  C89  1  0.36890000  0.80550000  0.34010000  1.0 0.5624292325
C  C90  1  0.30237000  0.78297000  0.29720000  1.0 -0.0296441795
C  C91  1  0.26293000  0.82233000  0.22420000  1.0 -0.0296441795
C  C92  1  0.28480000  0.88880000  0.17920000  1.0 0.5624292325
C  C93  1  0.46240000  0.88140000  0.52870000  1.0 -0.0213595953
C  C94  1  0.49150000  0.82650000  0.59720000  1.0 -0.099138078
C  C95  1  0.60950000  0.73190000  0.56440000  1.0 -0.0738824231
C  C96  1  0.57920000  0.78620000  0.49600000  1.0 0.0220822815
C  C97  1  0.27530000  0.08470000  0.00480000  1.0 -0.0296441795
C  C98  1  0.22800000  0.10820000  0.93370000  1.0 -0.0503863781
C  C99  1  0.32540000  0.97320000  0.91810000  1.0 -0.0503863781
C  C100  1  0.36910000  0.95490000  0.98980000  1.0 0.0309115295
C  C101  1  0.19980000  0.80020000  0.18850000  1.0 -0.15874309
C  C102  1  0.27930000  0.72070000  0.33240000  1.0 -0.1436026563
C  C103  1  0.43803000  0.25513000  0.38292000  1.0 0.0574009859
C  C104  1  0.51560000  0.11780000  0.46420000  1.0 -0.0213595953
C  C105  1  0.48640000  0.16660000  0.39360000  1.0 -0.0738824231
C  C106  1  0.42380000  0.29300000  0.44190000  1.0 -0.0503863781
C  C107  1  0.45670000  0.23550000  0.51000000  1.0 0.0309115295
C  C108  1  0.40614000  0.31556000  0.30985000  1.0 0.0888799564
C  C109  1  0.43318000  0.28792000  0.24986000  1.0 -0.1920234392
C  C110  1  0.39953000  0.34513000  0.18272000  1.0 0.0309115295
C  C111  1  0.31379000  0.45695000  0.23150000  1.0 0.0487778112
C  C112  1  0.34568000  0.40238000  0.29922000  1.0 -0.1813313037
C  C113  1  0.30651000  0.49071000  0.10170000  1.0 -0.1965295245
C  C114  1  0.35739000  0.54553000  0.09662000  1.0 0.0986820782
C  C115  1  0.44213000  0.50913000  0.08790000  1.0 -0.15874309
C  C116  1  0.32082000  0.63062000  0.10340000  1.0 -0.1307354241
C  C117  1  0.75700000  0.96380000  0.98980000  1.0 -0.0049017644
C  C118  1  0.80190000  0.93870000  0.06070000  1.0 -0.0876532316
C  C119  1  0.66590000  0.99170000  0.09300000  1.0 -0.0503863781
C  C120  1  0.62430000  0.01350000  0.02020000  1.0 0.0220822815
C  C121  1  0.75195000  0.95101000  0.11265000  1.0 0.0487778112
C  C122  1  0.80099000  0.92659000  0.18929000  1.0 0.0888799564
C  C123  1  0.88759000  0.86411000  0.21093000  1.0 -0.1813313037
C  C124  1  0.93193000  0.84015000  0.28215000  1.0 0.0487778112
C  C125  1  0.80840000  0.93820000  0.31210000  1.0 0.0309115295
C  C126  1  0.76171000  0.96371000  0.24163000  1.0 -0.1920234392
C  C127  1  0.94262000  0.85442000  0.40768000  1.0 -0.1920234392
C  C128  1  0.99691000  0.90611000  0.41259000  1.0 0.0888799564
C  C129  1  0.08524000  0.86604000  0.41530000  1.0 -0.1436026563
C  C130  1  0.95665000  0.99485000  0.41020000  1.0 -0.15874309
C  C131  1  0.39381000  0.13477000  0.67755000  1.0 0.5624292325
C  C132  1  0.32613000  0.18505000  0.71580000  1.0 -0.0213595953
C  C133  1  0.34551000  0.18565000  0.78920000  1.0 -0.0371723368
C  C134  1  0.27951000  0.23873000  0.81822000  1.0 -0.1920234392
C  C135  1  0.19484000  0.29050000  0.77640000  1.0 -0.0213595953
C  C136  1  0.17492000  0.28966000  0.70324000  1.0 -0.0296441795
C  C137  1  0.24110000  0.23636000  0.67406000  1.0 -0.2092940218
C  C138  1  0.43529000  0.13069000  0.83900000  1.0 0.528769511
C  C139  1  0.12877000  0.34201000  0.81581000  1.0 0.5770355493
C  C140  1  0.08496000  0.34458000  0.65366000  1.0 0.528769511
C  C141  1  0.63110000  0.19450000  0.65990000  1.0 0.5624292325
C  C142  1  0.69763000  0.21703000  0.70280000  1.0 -0.0296441795
C  C143  1  0.73707000  0.17767000  0.77580000  1.0 -0.0296441795
C  C144  1  0.71520000  0.11120000  0.82080000  1.0 0.5624292325
C  C145  1  0.53760000  0.11860000  0.47130000  1.0 -0.0213595953
C  C146  1  0.50850000  0.17350000  0.40280000  1.0 -0.099138078
C  C147  1  0.39050000  0.26810000  0.43560000  1.0 -0.0738824231
C  C148  1  0.42080000  0.21380000  0.50400000  1.0 0.0220822815
C  C149  1  0.72470000  0.91530000  0.99520000  1.0 -0.0296441795
C  C150  1  0.77200000  0.89180000  0.06630000  1.0 -0.0503863781
C  C151  1  0.67460000  0.02680000  0.08190000  1.0 -0.0503863781
C  C152  1  0.63090000  0.04510000  0.01020000  1.0 0.0309115295
C  C153  1  0.74487000  0.56197000  0.38292000  1.0 0.0574009859
C  C154  1  0.88220000  0.48440000  0.46420000  1.0 -0.0213595953
C  C155  1  0.83340000  0.51360000  0.39360000  1.0 -0.0738824231
C  C156  1  0.70700000  0.57620000  0.44190000  1.0 -0.0503863781
C  C157  1  0.76450000  0.54330000  0.51000000  1.0 0.0309115295
C  C158  1  0.68444000  0.59386000  0.30985000  1.0 0.0888799564
C  C159  1  0.71208000  0.56682000  0.24986000  1.0 -0.1920234392
C  C160  1  0.65487000  0.60047000  0.18272000  1.0 0.0309115295
C  C161  1  0.54305000  0.68621000  0.23150000  1.0 0.0487778112
C  C162  1  0.59762000  0.65432000  0.29922000  1.0 -0.1813313037
C  C163  1  0.50929000  0.69349000  0.10170000  1.0 -0.1965295245
C  C164  1  0.45447000  0.64261000  0.09662000  1.0 0.0986820782
C  C165  1  0.49087000  0.55787000  0.08790000  1.0 -0.15874309
C  C166  1  0.36938000  0.67918000  0.10340000  1.0 -0.1307354241
C  C167  1  0.03620000  0.24300000  0.98980000  1.0 -0.0049017644
C  C168  1  0.06130000  0.19810000  0.06070000  1.0 -0.0876532316
C  C169  1  0.00830000  0.33410000  0.09300000  1.0 -0.0503863781
C  C170  1  0.98650000  0.37570000  0.02020000  1.0 0.0220822815
C  C171  1  0.04899000  0.24805000  0.11265000  1.0 0.0487778112
C  C172  1  0.07341000  0.19901000  0.18929000  1.0 0.0888799564
C  C173  1  0.13589000  0.11241000  0.21093000  1.0 -0.1813313037
C  C174  1  0.15985000  0.06807000  0.28215000  1.0 0.0487778112
C  C175  1  0.06180000  0.19160000  0.31210000  1.0 0.0309115295
C  C176  1  0.03629000  0.23829000  0.24163000  1.0 -0.1920234392
C  C177  1  0.14558000  0.05738000  0.40768000  1.0 -0.1920234392
C  C178  1  0.09389000  0.00309000  0.41259000  1.0 0.0888799564
C  C179  1  0.13396000  0.91476000  0.41530000  1.0 -0.1436026563
C  C180  1  0.00515000  0.04335000  0.41020000  1.0 -0.15874309
C  C181  1  0.86523000  0.60619000  0.67755000  1.0 0.5624292325
C  C182  1  0.81495000  0.67387000  0.71580000  1.0 -0.0213595953
C  C183  1  0.81435000  0.65449000  0.78920000  1.0 -0.0371723368
C  C184  1  0.76127000  0.72049000  0.81822000  1.0 -0.1920234392
C  C185  1  0.70950000  0.80516000  0.77640000  1.0 -0.0213595953
C  C186  1  0.71034000  0.82508000  0.70324000  1.0 -0.0296441795
C  C187  1  0.76364000  0.75890000  0.67406000  1.0 -0.2092940218
C  C188  1  0.86931000  0.56471000  0.83900000  1.0 0.528769511
C  C189  1  0.65799000  0.87123000  0.81581000  1.0 0.5770355493
C  C190  1  0.65542000  0.91504000  0.65366000  1.0 0.528769511
C  C191  1  0.80550000  0.36890000  0.65990000  1.0 0.5624292325
C  C192  1  0.78297000  0.30237000  0.70280000  1.0 -0.0296441795
C  C193  1  0.82233000  0.26293000  0.77580000  1.0 -0.0296441795
C  C194  1  0.88880000  0.28480000  0.82080000  1.0 0.5624292325
C  C195  1  0.88140000  0.46240000  0.47130000  1.0 -0.0213595953
C  C196  1  0.82650000  0.49150000  0.40280000  1.0 -0.099138078
C  C197  1  0.73190000  0.60950000  0.43560000  1.0 -0.0738824231
C  C198  1  0.78620000  0.57920000  0.50400000  1.0 0.0220822815
C  C199  1  0.08470000  0.27530000  0.99520000  1.0 -0.0296441795
C  C200  1  0.10820000  0.22800000  0.06630000  1.0 -0.0503863781
C  C201  1  0.97320000  0.32540000  0.08190000  1.0 -0.0503863781
C  C202  1  0.95490000  0.36910000  0.01020000  1.0 0.0309115295
C  C203  1  0.80020000  0.19980000  0.81150000  1.0 -0.15874309
C  C204  1  0.72070000  0.27930000  0.66760000  1.0 -0.1436026563
N  N1  1  0.14566000  0.49880000  0.47732000  1.0 -0.15874309
N  N2  1  0.42809000  0.34057000  0.82552000  1.0 0.1094650224
N  N3  1  0.99579000  0.66203000  0.03233000  1.0 -0.172559899
N  N4  1  0.87749000  0.89167000  0.66862000  1.0 0.1094650224
N  N5  1  0.50120000  0.85434000  0.47732000  1.0 -0.15874309
N  N6  1  0.65943000  0.57191000  0.82552000  1.0 0.1094650224
N  N7  1  0.33797000  0.00421000  0.03233000  1.0 -0.172559899
N  N8  1  0.10833000  0.12251000  0.66862000  1.0 0.1094650224
N  N9  1  0.49880000  0.14566000  0.52268000  1.0 -0.15874309
N  N10  1  0.34057000  0.42809000  0.17448000  1.0 0.1094650224
N  N11  1  0.66203000  0.99579000  0.96767000  1.0 -0.172559899
N  N12  1  0.89167000  0.87749000  0.33138000  1.0 0.1094650224
N  N13  1  0.85434000  0.50120000  0.52268000  1.0 -0.15874309
N  N14  1  0.57191000  0.65943000  0.17448000  1.0 0.1094650224
N  N15  1  0.00421000  0.33797000  0.96767000  1.0 -0.172559899
N  N16  1  0.12251000  0.10833000  0.33138000  1.0 0.1094650224
O  O1  1  0.16128000  0.45202000  0.32978000  1.0 -0.5224654405
O  O2  1  0.07521000  0.38519000  0.34791000  1.0 -0.5600842207
O  O3  1  0.06819000  0.48719000  0.18350000  1.0 -0.5092609579
O  O4  1  0.14916000  0.45394000  0.10288000  1.0 -0.5484609226
O  O5  1  0.39906000  0.14070000  0.15756000  1.0 -0.5484609226
O  O6  1  0.31734000  0.06916000  0.17709000  1.0 -0.5318698853
O  O7  1  0.40965000  0.03551000  0.32518000  1.0 -0.5092609579
O  O8  1  0.32439000  0.06381000  0.40313000  1.0 -0.5600842207
O  O9  1  0.11329000  0.64987000  0.33212000  1.0 -0.5394857297
O  O10  1  0.25518000  0.56488000  0.38230000  1.0 -0.5394857297
O  O11  1  0.04394000  0.77518000  0.13960000  1.0 -0.5394857297
O  O12  1  0.13189000  0.63343000  0.18358000  1.0 -0.5484609226
O  O13  1  0.54798000  0.83872000  0.32978000  1.0 -0.5224654405
O  O14  1  0.61481000  0.92479000  0.34791000  1.0 -0.5600842207
O  O15  1  0.51281000  0.93181000  0.18350000  1.0 -0.5224654405
O  O16  1  0.54606000  0.85084000  0.10288000  1.0 -0.5484609226
O  O17  1  0.85930000  0.60094000  0.15756000  1.0 -0.5484609226
O  O18  1  0.93084000  0.68266000  0.17709000  1.0 -0.5318698853
O  O19  1  0.96449000  0.59035000  0.32518000  1.0 -0.5092609579
O  O20  1  0.93619000  0.67561000  0.40313000  1.0 -0.5600842207
O  O21  1  0.35013000  0.88671000  0.33212000  1.0 -0.5394857297
O  O22  1  0.43512000  0.74482000  0.38230000  1.0 -0.5394857297
O  O23  1  0.22482000  0.95606000  0.13960000  1.0 -0.5394857297
O  O24  1  0.36657000  0.86811000  0.18358000  1.0 -0.5484609226
O  O25  1  0.45202000  0.16128000  0.67022000  1.0 -0.5224654405
O  O26  1  0.38519000  0.07521000  0.65209000  1.0 -0.5600842207
O  O27  1  0.48719000  0.06819000  0.81650000  1.0 -0.5092609579
O  O28  1  0.45394000  0.14916000  0.89712000  1.0 -0.5484609226
O  O29  1  0.14070000  0.39906000  0.84244000  1.0 -0.5484609226
O  O30  1  0.06916000  0.31734000  0.82291000  1.0 -0.5318698853
O  O31  1  0.03551000  0.40965000  0.67482000  1.0 -0.5092609579
O  O32  1  0.06381000  0.32439000  0.59687000  1.0 -0.5600842207
O  O33  1  0.64987000  0.11329000  0.66788000  1.0 -0.5394857297
O  O34  1  0.56488000  0.25518000  0.61770000  1.0 -0.5394857297
O  O35  1  0.77518000  0.04394000  0.86040000  1.0 -0.5394857297
O  O36  1  0.63343000  0.13189000  0.81642000  1.0 -0.5484609226
O  O37  1  0.83872000  0.54798000  0.67022000  1.0 -0.5224654405
O  O38  1  0.92479000  0.61481000  0.65209000  1.0 -0.5600842207
O  O39  1  0.93181000  0.51281000  0.81650000  1.0 -0.5092609579
O  O40  1  0.85084000  0.54606000  0.89712000  1.0 -0.5484609226
O  O41  1  0.60094000  0.85930000  0.84244000  1.0 -0.5484609226
O  O42  1  0.68266000  0.93084000  0.82291000  1.0 -0.5318698853
O  O43  1  0.59035000  0.96449000  0.67482000  1.0 -0.5092609579
O  O44  1  0.67561000  0.93619000  0.59687000  1.0 -0.5600842207
O  O45  1  0.88671000  0.35013000  0.66788000  1.0 -0.5394857297
O  O46  1  0.74482000  0.43512000  0.61770000  1.0 -0.5394857297
O  O47  1  0.95606000  0.22482000  0.86040000  1.0 -0.5394857297
O  O48  1  0.86811000  0.36657000  0.81642000  1.0 -0.5484609226
