# DDEC6 charges by PACMAN v1.1 (https://github.com/mtap-research/PACMAN-charge/)
data_QOBWIN01_ASR_pacman
_symmetry_space_group_name_H-M   'P 1'
_cell_length_a   9.29940000
_cell_length_b   9.75100000
_cell_length_c   14.33480000
_cell_angle_alpha   90.00000000
_cell_angle_beta   90.97400000
_cell_angle_gamma   90.00000000
_symmetry_Int_Tables_number   1
_chemical_formula_structural   Zn5P5HO20
_chemical_formula_sum   'Zn10 P10 H2 O40'
_cell_volume   1299.66962248
_cell_formula_units_Z   2
loop_
 _symmetry_equiv_pos_site_id
 _symmetry_equiv_pos_as_xyz
  1  'x, y, z'
loop_
 _atom_site_type_symbol
 _atom_site_label
 _atom_site_symmetry_multiplicity
 _atom_site_fract_x
 _atom_site_fract_y
 _atom_site_fract_z
 _atom_site_occupancy
 _atom_site_charge
Zn  Zn1  1  0.46773000  0.11468000  0.73275000  1.0 1.2223107757
Zn  Zn2  1  0.53227000  0.61468000  0.26725000  1.0 1.2223107757
Zn  Zn3  1  0.77164000  0.62310000  0.62454000  1.0 1.1704229456
Zn  Zn4  1  0.22836000  0.12310000  0.37546000  1.0 1.1750993671
Zn  Zn5  1  0.24367000  0.09605000  0.12997000  1.0 1.1704229456
Zn  Zn6  1  0.75633000  0.59605000  0.87003000  1.0 1.1704229456
Zn  Zn7  1  0.07061000  0.88649000  0.75439000  1.0 1.1411994042
Zn  Zn8  1  0.92939000  0.38649000  0.24561000  1.0 1.1411994042
Zn  Zn9  1  0.07698000  0.26035000  0.77301000  1.0 1.0882570686
Zn  Zn10  1  0.92302000  0.76035000  0.22699000  1.0 1.0882570686
P  P1  1  0.20460000  0.07380000  0.60651000  1.0 1.4581272544
P  P2  1  0.79540000  0.57380000  0.39349000  1.0 1.4516785683
P  P3  1  0.24380000  0.08350000  0.90136000  1.0 1.4581272544
P  P4  1  0.75620000  0.58350000  0.09864000  1.0 1.4516785683
P  P5  1  0.04440000  0.57110000  0.76217000  1.0 1.481970821
P  P6  1  0.95560000  0.07110000  0.23783000  1.0 1.4710431041
P  P7  1  0.73540000  0.87800000  0.75771000  1.0 1.4417985024
P  P8  1  0.26460000  0.37800000  0.24229000  1.0 1.4417985024
P  P9  1  0.55560000  0.43720000  0.72746000  1.0 1.481970821
P  P10  1  0.44440000  0.93720000  0.27254000  1.0 1.481970821
H  H1  1  0.43640000  0.57680000  0.79810000  1.0 0.4721887054
H  H2  1  0.56360000  0.07680000  0.20190000  1.0 0.4721887054
O  O1  1  0.37180000  0.13940000  0.84940000  1.0 -0.7289176641
O  O2  1  0.62820000  0.63940000  0.15060000  1.0 -0.7289176641
O  O3  1  0.36110000  0.03010000  0.62910000  1.0 -0.7042465565
O  O4  1  0.63890000  0.53010000  0.37090000  1.0 -0.7042465565
O  O5  1  0.52450000  0.29550000  0.69130000  1.0 -0.6465546547
O  O6  1  0.47550000  0.79550000  0.30870000  1.0 -0.6465546547
O  O7  1  0.63550000  0.99880000  0.75170000  1.0 -0.6465546547
O  O8  1  0.36450000  0.49880000  0.24830000  1.0 -0.6465546547
O  O9  1  0.75840000  0.81430000  0.66220000  1.0 -0.7289176641
O  O10  1  0.24160000  0.31430000  0.33780000  1.0 -0.7289176641
O  O11  1  0.58770000  0.53710000  0.64820000  1.0 -0.6601477919
O  O12  1  0.41230000  0.03710000  0.35180000  1.0 -0.6601477919
O  O13  1  0.18340000  0.11170000  0.50450000  1.0 -0.6277156232
O  O14  1  0.81660000  0.61170000  0.49550000  1.0 -0.6277156232
O  O15  1  0.94180000  0.53920000  0.68070000  1.0 -0.7492081779
O  O16  1  0.05820000  0.03920000  0.31930000  1.0 -0.7492081779
O  O17  1  0.96230000  0.59260000  0.85330000  1.0 -0.723829752
O  O18  1  0.03770000  0.09260000  0.14670000  1.0 -0.723829752
O  O19  1  0.28630000  0.05990000  0.00260000  1.0 -0.6368798075
O  O20  1  0.71370000  0.55990000  0.99740000  1.0 -0.6368798075
O  O21  1  0.67580000  0.43820000  0.80060000  1.0 -0.7072613595
O  O22  1  0.32420000  0.93820000  0.19940000  1.0 -0.7072613595
O  O23  1  0.67620000  0.77080000  0.82600000  1.0 -0.7492081779
O  O24  1  0.32380000  0.27080000  0.17400000  1.0 -0.7492081779
O  O25  1  0.10100000  0.95570000  0.63000000  1.0 -0.679326242
O  O26  1  0.89900000  0.45570000  0.37000000  1.0 -0.679326242
O  O27  1  0.13690000  0.69750000  0.74210000  1.0 -0.6675015746
O  O28  1  0.86310000  0.19750000  0.25790000  1.0 -0.6675015746
O  O29  1  0.88040000  0.93010000  0.79700000  1.0 -0.6901771782
O  O30  1  0.11960000  0.43010000  0.20300000  1.0 -0.6901771782
O  O31  1  0.19400000  0.94600000  0.85750000  1.0 -0.7072613595
O  O32  1  0.80600000  0.44600000  0.14250000  1.0 -0.7072613595
O  O33  1  0.16870000  0.20130000  0.66370000  1.0 -0.7492081779
O  O34  1  0.83130000  0.70130000  0.33630000  1.0 -0.7492081779
O  O35  1  0.11780000  0.18650000  0.89570000  1.0 -0.6901771782
O  O36  1  0.88220000  0.68650000  0.10430000  1.0 -0.6901771782
O  O37  1  0.14710000  0.44890000  0.77500000  1.0 -0.6229216514
O  O38  1  0.85290000  0.94890000  0.22500000  1.0 -0.6229216514
O  O39  1  0.41800000  0.49760000  0.77810000  1.0 -0.4612069188
O  O40  1  0.58200000  0.99760000  0.22190000  1.0 -0.4612069188
