# DDEC6 charges by PACMAN v1.1 (https://github.com/mtap-research/PACMAN-charge/)
data_QOBWEJ01_ASR_pacman
_symmetry_space_group_name_H-M   'P 1'
_cell_length_a   10.18420000
_cell_length_b   9.98030000
_cell_length_c   10.43750000
_cell_angle_alpha   90.00000000
_cell_angle_beta   92.31200000
_cell_angle_gamma   90.00000000
_symmetry_Int_Tables_number   1
_chemical_formula_structural   ZnPO4
_chemical_formula_sum   'Zn8 P8 O32'
_cell_volume   1060.01822080
_cell_formula_units_Z   8
loop_
 _symmetry_equiv_pos_site_id
 _symmetry_equiv_pos_as_xyz
  1  'x, y, z'
loop_
 _atom_site_type_symbol
 _atom_site_label
 _atom_site_symmetry_multiplicity
 _atom_site_fract_x
 _atom_site_fract_y
 _atom_site_fract_z
 _atom_site_occupancy
 _atom_site_charge
Zn  Zn1  1  0.12772000  0.71143000  0.87892000  1.0 1.2293790355
Zn  Zn2  1  0.87228000  0.21143000  0.12108000  1.0 1.2293790355
Zn  Zn3  1  0.41694000  0.76254000  0.60131000  1.0 1.2060621356
Zn  Zn4  1  0.58306000  0.26254000  0.39869000  1.0 1.2060621356
Zn  Zn5  1  0.63736000  0.53595000  0.89286000  1.0 1.2495153521
Zn  Zn6  1  0.36264000  0.03595000  0.10714000  1.0 1.2495153521
Zn  Zn7  1  0.92082000  0.42693000  0.62479000  1.0 1.2359182214
Zn  Zn8  1  0.07918000  0.92693000  0.37521000  1.0 1.2293790355
P  P1  1  0.93254000  0.46717000  0.92947000  1.0 1.418297995
P  P2  1  0.06746000  0.96717000  0.07053000  1.0 1.418297995
P  P3  1  0.11627000  0.67621000  0.56868000  1.0 1.418297995
P  P4  1  0.88373000  0.17621000  0.43132000  1.0 1.414001522
P  P5  1  0.61449000  0.50952000  0.58765000  1.0 1.418297995
P  P6  1  0.38551000  0.00952000  0.41235000  1.0 1.418297995
P  P7  1  0.42817000  0.78372000  0.90588000  1.0 1.418297995
P  P8  1  0.57183000  0.28372000  0.09412000  1.0 1.418297995
O  O1  1  0.06380000  0.54260000  0.93810000  1.0 -0.621008354
O  O2  1  0.93620000  0.04260000  0.06190000  1.0 -0.621008354
O  O3  1  0.09200000  0.74270000  0.69800000  1.0 -0.682080927
O  O4  1  0.90800000  0.24270000  0.30200000  1.0 -0.682080927
O  O5  1  0.31550000  0.68640000  0.93700000  1.0 -0.682080927
O  O6  1  0.68450000  0.18640000  0.06300000  1.0 -0.682080927
O  O7  1  0.93090000  0.37570000  0.04550000  1.0 -0.6270931537
O  O8  1  0.06910000  0.87570000  0.95450000  1.0 -0.6270931537
O  O9  1  0.40330000  0.84160000  0.77150000  1.0 -0.6997841025
O  O10  1  0.59670000  0.34160000  0.22850000  1.0 -0.6997841025
O  O11  1  0.56980000  0.65480000  0.57580000  1.0 -0.6470453913
O  O12  1  0.43020000  0.15480000  0.42420000  1.0 -0.6470453913
O  O13  1  0.53260000  0.42060000  0.49630000  1.0 -0.6270931537
O  O14  1  0.46740000  0.92060000  0.50370000  1.0 -0.6270931537
O  O15  1  0.26290000  0.66850000  0.54280000  1.0 -0.688230517
O  O16  1  0.73710000  0.16850000  0.45720000  1.0 -0.688230517
O  O17  1  0.55930000  0.70920000  0.91680000  1.0 -0.6470453913
O  O18  1  0.44070000  0.20920000  0.08320000  1.0 -0.6470453913
O  O19  1  0.43840000  0.89910000  0.00150000  1.0 -0.6381494875
O  O20  1  0.56160000  0.39910000  0.99850000  1.0 -0.6381494875
O  O21  1  0.60180000  0.45700000  0.72450000  1.0 -0.682080927
O  O22  1  0.39820000  0.95700000  0.27550000  1.0 -0.682080927
O  O23  1  0.82090000  0.57010000  0.93000000  1.0 -0.6997841025
O  O24  1  0.17910000  0.07010000  0.07000000  1.0 -0.6997841025
O  O25  1  0.06530000  0.53150000  0.56490000  1.0 -0.6381494875
O  O26  1  0.93470000  0.03150000  0.43510000  1.0 -0.6381494875
O  O27  1  0.04350000  0.75760000  0.46330000  1.0 -0.621008354
O  O28  1  0.95650000  0.25760000  0.53670000  1.0 -0.621008354
O  O29  1  0.76080000  0.50750000  0.55190000  1.0 -0.688230517
O  O30  1  0.23920000  0.00750000  0.44810000  1.0 -0.688230517
O  O31  1  0.92340000  0.38190000  0.80620000  1.0 -0.6997841025
O  O32  1  0.07660000  0.88190000  0.19380000  1.0 -0.6997841025
