# DDEC6 charges by PACMAN v1.1 (https://github.com/mtap-research/PACMAN-charge/)
data_QOFBUL_FSR_pacman
_symmetry_space_group_name_H-M   'P 1'
_cell_length_a   13.52550000
_cell_length_b   13.52550000
_cell_length_c   13.52550000
_cell_angle_alpha   126.50300000
_cell_angle_beta   126.50300000
_cell_angle_gamma   79.06320000
_symmetry_Int_Tables_number   1
_chemical_formula_structural   YH40C28N(ClO2)4
_chemical_formula_sum   'Y2 H80 C56 N2 Cl8 O16'
_cell_volume   1546.31644719
_cell_formula_units_Z   2
loop_
 _symmetry_equiv_pos_site_id
 _symmetry_equiv_pos_as_xyz
  1  'x, y, z'
loop_
 _atom_site_type_symbol
 _atom_site_label
 _atom_site_symmetry_multiplicity
 _atom_site_fract_x
 _atom_site_fract_y
 _atom_site_fract_z
 _atom_site_occupancy
 _atom_site_charge
Y  Y1  1  0.25000000  0.25000000  0.00000000  1.0 1.6424611612
Y  Y2  1  0.75000000  0.75000000  0.00000000  1.0 1.6424611612
H  H1  1  0.31960000  0.42490000  0.70470000  1.0 0.0801975103
H  H2  1  0.27750000  0.53760000  0.79690000  1.0 0.1021963834
H  H3  1  0.19540000  0.39760000  0.67860000  1.0 0.0801975103
H  H4  1  0.34560000  0.34710000  0.83550000  1.0 0.066721805
H  H5  1  0.32190000  0.47280000  0.93890000  1.0 0.066721805
H  H6  1  0.72020000  0.61490000  0.29530000  1.0 0.0801975103
H  H7  1  0.74070000  0.48060000  0.20310000  1.0 0.1021963834
H  H8  1  0.71900000  0.51680000  0.32140000  1.0 0.0801975103
H  H9  1  0.51160000  0.51010000  0.16450000  1.0 0.066721805
H  H10  1  0.53390000  0.38300000  0.06110000  1.0 0.066721805
H  H11  1  0.61490000  0.31960000  0.89470000  1.0 0.0801975103
H  H12  1  0.48060000  0.27750000  0.73990000  1.0 0.1021963834
H  H13  1  0.51680000  0.19540000  0.79780000  1.0 0.0801975103
H  H14  1  0.51010000  0.34560000  0.99850000  1.0 0.066721805
H  H15  1  0.38300000  0.32190000  0.84910000  1.0 0.066721805
H  H16  1  0.42490000  0.72020000  0.10530000  1.0 0.0801975103
H  H17  1  0.53760000  0.74070000  0.26010000  1.0 0.1021963834
H  H18  1  0.39760000  0.71900000  0.20220000  1.0 0.0801975103
H  H19  1  0.34710000  0.51160000  0.00150000  1.0 0.066721805
H  H20  1  0.47280000  0.53390000  0.15090000  1.0 0.066721805
H  H21  1  0.68040000  0.57510000  0.29530000  1.0 0.0801975103
H  H22  1  0.72250000  0.46240000  0.20310000  1.0 0.1021963834
H  H23  1  0.80460000  0.60240000  0.32140000  1.0 0.0801975103
H  H24  1  0.65440000  0.65290000  0.16450000  1.0 0.066721805
H  H25  1  0.67810000  0.52720000  0.06110000  1.0 0.066721805
H  H26  1  0.27980000  0.38510000  0.70470000  1.0 0.0801975103
H  H27  1  0.25930000  0.51940000  0.79690000  1.0 0.1021963834
H  H28  1  0.28100000  0.48320000  0.67860000  1.0 0.0801975103
H  H29  1  0.48840000  0.48990000  0.83550000  1.0 0.066721805
H  H30  1  0.46610000  0.61700000  0.93890000  1.0 0.066721805
H  H31  1  0.38510000  0.68040000  0.10530000  1.0 0.0801975103
H  H32  1  0.51940000  0.72250000  0.26010000  1.0 0.1021963834
H  H33  1  0.48320000  0.80460000  0.20220000  1.0 0.0801975103
H  H34  1  0.48990000  0.65440000  0.00150000  1.0 0.066721805
H  H35  1  0.61700000  0.67810000  0.15090000  1.0 0.066721805
H  H36  1  0.57510000  0.27980000  0.89470000  1.0 0.0801975103
H  H37  1  0.46240000  0.25930000  0.73990000  1.0 0.1021963834
H  H38  1  0.60240000  0.28100000  0.79780000  1.0 0.0801975103
H  H39  1  0.65290000  0.48840000  0.99850000  1.0 0.066721805
H  H40  1  0.52720000  0.46610000  0.84910000  1.0 0.066721805
H  H41  1  0.77980000  0.07510000  0.89470000  1.0 0.0801975103
H  H42  1  0.75930000  0.96240000  0.73990000  1.0 0.1021963834
H  H43  1  0.78100000  0.10240000  0.79780000  1.0 0.0801975103
H  H44  1  0.98840000  0.15290000  0.99850000  1.0 0.066721805
H  H45  1  0.96610000  0.02720000  0.84910000  1.0 0.066721805
H  H46  1  0.18040000  0.88510000  0.10530000  1.0 0.0801975103
H  H47  1  0.22250000  0.01940000  0.26010000  1.0 0.1021963834
H  H48  1  0.30460000  0.98320000  0.20220000  1.0 0.0801975103
H  H49  1  0.15440000  0.98990000  0.00150000  1.0 0.066721805
H  H50  1  0.17810000  0.11700000  0.15090000  1.0 0.066721805
H  H51  1  0.07510000  0.18040000  0.29530000  1.0 0.0801975103
H  H52  1  0.96240000  0.22250000  0.20310000  1.0 0.1021963834
H  H53  1  0.10240000  0.30460000  0.32140000  1.0 0.0801975103
H  H54  1  0.15290000  0.15440000  0.16450000  1.0 0.066721805
H  H55  1  0.02720000  0.17810000  0.06110000  1.0 0.066721805
H  H56  1  0.88510000  0.77980000  0.70470000  1.0 0.0801975103
H  H57  1  0.01940000  0.75930000  0.79690000  1.0 0.1021963834
H  H58  1  0.98320000  0.78100000  0.67860000  1.0 0.0801975103
H  H59  1  0.98990000  0.98840000  0.83550000  1.0 0.066721805
H  H60  1  0.11700000  0.96610000  0.93890000  1.0 0.066721805
H  H61  1  0.22020000  0.92490000  0.10530000  1.0 0.0801975103
H  H62  1  0.24070000  0.03760000  0.26010000  1.0 0.1021963834
H  H63  1  0.21900000  0.89760000  0.20220000  1.0 0.0801975103
H  H64  1  0.01160000  0.84710000  0.00150000  1.0 0.066721805
H  H65  1  0.03390000  0.97280000  0.15090000  1.0 0.066721805
H  H66  1  0.81960000  0.11490000  0.89470000  1.0 0.0801975103
H  H67  1  0.77750000  0.98060000  0.73990000  1.0 0.1021963834
H  H68  1  0.69540000  0.01680000  0.79780000  1.0 0.0801975103
H  H69  1  0.84560000  0.01010000  0.99850000  1.0 0.066721805
H  H70  1  0.82190000  0.88300000  0.84910000  1.0 0.066721805
H  H71  1  0.92490000  0.81960000  0.70470000  1.0 0.0801975103
H  H72  1  0.03760000  0.77750000  0.79690000  1.0 0.1021963834
H  H73  1  0.89760000  0.69540000  0.67860000  1.0 0.0801975103
H  H74  1  0.84710000  0.84560000  0.83550000  1.0 0.066721805
H  H75  1  0.97280000  0.82190000  0.93890000  1.0 0.066721805
H  H76  1  0.11490000  0.22020000  0.29530000  1.0 0.0801975103
H  H77  1  0.98060000  0.24070000  0.20310000  1.0 0.1021963834
H  H78  1  0.01680000  0.21900000  0.32140000  1.0 0.0801975103
H  H79  1  0.01010000  0.01160000  0.16450000  1.0 0.066721805
H  H80  1  0.88300000  0.03390000  0.06110000  1.0 0.066721805
C  C1  1  0.28040000  0.45050000  0.75390000  1.0 -0.2125969053
C  C2  1  0.35700000  0.43710000  0.88270000  1.0 -0.05056536
C  C3  1  0.69660000  0.52650000  0.24610000  1.0 -0.2125969053
C  C4  1  0.55440000  0.47430000  0.11730000  1.0 -0.05056536
C  C5  1  0.52650000  0.28040000  0.82990000  1.0 -0.2125969053
C  C6  1  0.47430000  0.35700000  0.91990000  1.0 -0.05056536
C  C7  1  0.45050000  0.69660000  0.17010000  1.0 -0.2125969053
C  C8  1  0.43710000  0.55440000  0.08010000  1.0 -0.05056536
C  C9  1  0.71960000  0.54950000  0.24610000  1.0 -0.2125969053
C  C10  1  0.64300000  0.56290000  0.11730000  1.0 -0.05056536
C  C11  1  0.30340000  0.47350000  0.75390000  1.0 -0.2125969053
C  C12  1  0.44560000  0.52570000  0.88270000  1.0 -0.05056536
C  C13  1  0.47350000  0.71960000  0.17010000  1.0 -0.2125969053
C  C14  1  0.52570000  0.64300000  0.08010000  1.0 -0.05056536
C  C15  1  0.54950000  0.30340000  0.82990000  1.0 -0.2125969053
C  C16  1  0.56290000  0.44560000  0.91990000  1.0 -0.05056536
C  C17  1  0.80340000  0.04950000  0.82990000  1.0 -0.2125969053
C  C18  1  0.94560000  0.06290000  0.91990000  1.0 -0.05056536
C  C19  1  0.21960000  0.97350000  0.17010000  1.0 -0.2125969053
C  C20  1  0.14300000  0.02570000  0.08010000  1.0 -0.05056536
C  C21  1  0.04950000  0.21960000  0.24610000  1.0 -0.2125969053
C  C22  1  0.06290000  0.14300000  0.11730000  1.0 -0.05056536
C  C23  1  0.97350000  0.80340000  0.75390000  1.0 -0.2125969053
C  C24  1  0.02570000  0.94560000  0.88270000  1.0 -0.05056536
C  C25  1  0.19660000  0.95050000  0.17010000  1.0 -0.2125969053
C  C26  1  0.05440000  0.93710000  0.08010000  1.0 -0.05056536
C  C27  1  0.78040000  0.02650000  0.82990000  1.0 -0.2125969053
C  C28  1  0.85700000  0.97430000  0.91990000  1.0 -0.05056536
C  C29  1  0.95050000  0.78040000  0.75390000  1.0 -0.2125969053
C  C30  1  0.93710000  0.85700000  0.88270000  1.0 -0.05056536
C  C31  1  0.02650000  0.19660000  0.24610000  1.0 -0.2125969053
C  C32  1  0.97430000  0.05440000  0.11730000  1.0 -0.05056536
C  C33  1  0.02320000  0.04880000  0.64140000  1.0 0.2483680389
C  C34  1  0.40740000  0.38180000  0.35860000  1.0 0.2483680389
C  C35  1  0.04880000  0.40740000  0.02560000  1.0 0.2483680389
C  C36  1  0.38180000  0.02320000  0.97440000  1.0 0.2483680389
C  C37  1  0.09260000  0.45120000  0.97440000  1.0 0.2483680389
C  C38  1  0.47680000  0.11820000  0.02560000  1.0 0.2483680389
C  C39  1  0.11820000  0.09260000  0.64140000  1.0 0.2483680389
C  C40  1  0.45120000  0.47680000  0.35860000  1.0 0.2483680389
C  C41  1  0.97680000  0.95120000  0.35860000  1.0 0.2483680389
C  C42  1  0.59260000  0.61820000  0.64140000  1.0 0.2483680389
C  C43  1  0.95120000  0.59260000  0.97440000  1.0 0.2483680389
C  C44  1  0.61820000  0.97680000  0.02560000  1.0 0.2483680389
C  C45  1  0.90740000  0.54880000  0.02560000  1.0 0.2483680389
C  C46  1  0.52320000  0.88180000  0.97440000  1.0 0.2483680389
C  C47  1  0.88180000  0.90740000  0.35860000  1.0 0.2483680389
C  C48  1  0.54880000  0.52320000  0.64140000  1.0 0.2483680389
C  C49  1  0.91270000  0.95290000  0.50000000  1.0 -0.0823036105
C  C50  1  0.45290000  0.41270000  0.50000000  1.0 -0.0823036105
C  C51  1  0.95290000  0.45290000  0.04020000  1.0 -0.0823036105
C  C52  1  0.41270000  0.91270000  0.95980000  1.0 -0.0823036105
C  C53  1  0.04710000  0.54710000  0.95980000  1.0 -0.0823036105
C  C54  1  0.58730000  0.08730000  0.04020000  1.0 -0.0823036105
C  C55  1  0.08730000  0.04710000  0.50000000  1.0 -0.0823036105
C  C56  1  0.54710000  0.58730000  0.50000000  1.0 -0.0823036105
N  N1  1  0.50000000  0.50000000  0.00000000  1.0 0.0801975103
N  N2  1  0.00000000  0.00000000  0.00000000  1.0 0.0801975103
Cl  Cl1  1  0.80495000  0.89975000  0.50000000  1.0 -0.2125969053
Cl  Cl2  1  0.39975000  0.30495000  0.50000000  1.0 -0.2125969053
Cl  Cl3  1  0.89975000  0.39975000  0.09480000  1.0 -0.2125969053
Cl  Cl4  1  0.30495000  0.80495000  0.90520000  1.0 -0.2125969053
Cl  Cl5  1  0.10025000  0.60025000  0.90520000  1.0 -0.2125969053
Cl  Cl6  1  0.69505000  0.19505000  0.09480000  1.0 -0.2125969053
Cl  Cl7  1  0.19505000  0.10025000  0.50000000  1.0 -0.2125969053
Cl  Cl8  1  0.60025000  0.69505000  0.50000000  1.0 -0.2125969053
O  O1  1  0.05300000  0.10270000  0.77330000  1.0 -0.4491228637
O  O2  1  0.32940000  0.27970000  0.22670000  1.0 -0.4491228637
O  O3  1  0.10270000  0.32940000  0.04970000  1.0 -0.4491228637
O  O4  1  0.27970000  0.05300000  0.95030000  1.0 -0.4491228637
O  O5  1  0.17060000  0.39730000  0.95030000  1.0 -0.4491228637
O  O6  1  0.44700000  0.22030000  0.04970000  1.0 -0.4491228637
O  O7  1  0.22030000  0.17060000  0.77330000  1.0 -0.4491228637
O  O8  1  0.39730000  0.44700000  0.22670000  1.0 -0.4491228637
O  O9  1  0.94700000  0.89730000  0.22670000  1.0 -0.4491228637
O  O10  1  0.67060000  0.72030000  0.77330000  1.0 -0.4491228637
O  O11  1  0.89730000  0.67060000  0.95030000  1.0 -0.4491228637
O  O12  1  0.72030000  0.94700000  0.04970000  1.0 -0.4491228637
O  O13  1  0.82940000  0.60270000  0.04970000  1.0 -0.4491228637
O  O14  1  0.55300000  0.77970000  0.95030000  1.0 -0.4491228637
O  O15  1  0.77970000  0.82940000  0.22670000  1.0 -0.4491228637
O  O16  1  0.60270000  0.55300000  0.77330000  1.0 -0.4491228637
