# DDEC6 charges by PACMAN v1.1 (https://github.com/mtap-research/PACMAN-charge/)
data_QOFCAS_FSR_pacman
_symmetry_space_group_name_H-M   'P 1'
_cell_length_a   13.29640000
_cell_length_b   13.29640000
_cell_length_c   13.29640000
_cell_angle_alpha   125.69900000
_cell_angle_beta   125.69900000
_cell_angle_gamma   80.38340000
_symmetry_Int_Tables_number   1
_chemical_formula_structural   YH40C28N(ClO2)4
_chemical_formula_sum   'Y2 H80 C56 N2 Cl8 O16'
_cell_volume   1495.71750436
_cell_formula_units_Z   2
loop_
 _symmetry_equiv_pos_site_id
 _symmetry_equiv_pos_as_xyz
  1  'x, y, z'
loop_
 _atom_site_type_symbol
 _atom_site_label
 _atom_site_symmetry_multiplicity
 _atom_site_fract_x
 _atom_site_fract_y
 _atom_site_fract_z
 _atom_site_occupancy
 _atom_site_charge
Y  Y1  1  0.25000000  0.25000000  0.00000000  1.0 1.6426072492
Y  Y2  1  0.75000000  0.75000000  0.00000000  1.0 1.6453658714
H  H1  1  0.40770000  0.33450000  0.70220000  1.0 0.0800053015
H  H2  1  0.36920000  0.20380000  0.66180000  1.0 0.0800053015
H  H3  1  0.51450000  0.27550000  0.77360000  1.0 0.105449695
H  H4  1  0.46630000  0.31360000  0.92430000  1.0 0.0662412701
H  H5  1  0.33990000  0.34660000  0.83630000  1.0 0.0662412701
H  H6  1  0.63230000  0.70550000  0.29780000  1.0 0.0800053015
H  H7  1  0.54200000  0.70740000  0.33820000  1.0 0.0800053015
H  H8  1  0.50190000  0.74090000  0.22640000  1.0 0.105449695
H  H9  1  0.38930000  0.54200000  0.07570000  1.0 0.0662412701
H  H10  1  0.51030000  0.50360000  0.16370000  1.0 0.0662412701
H  H11  1  0.70550000  0.40770000  0.07320000  1.0 0.0800053015
H  H12  1  0.70740000  0.36920000  0.16540000  1.0 0.0800053015
H  H13  1  0.74090000  0.51450000  0.23900000  1.0 0.105449695
H  H14  1  0.54200000  0.46630000  0.15270000  1.0 0.0662412701
H  H15  1  0.50360000  0.33990000  0.99330000  1.0 0.0662412701
H  H16  1  0.33450000  0.63230000  0.92680000  1.0 0.0800053015
H  H17  1  0.20380000  0.54200000  0.83460000  1.0 0.0800053015
H  H18  1  0.27550000  0.50190000  0.76100000  1.0 0.105449695
H  H19  1  0.31360000  0.38930000  0.84730000  1.0 0.0662412701
H  H20  1  0.34660000  0.51030000  0.00670000  1.0 0.0662412701
H  H21  1  0.59230000  0.66550000  0.29780000  1.0 0.0800053015
H  H22  1  0.63080000  0.79620000  0.33820000  1.0 0.0800053015
H  H23  1  0.48550000  0.72450000  0.22640000  1.0 0.105449695
H  H24  1  0.53370000  0.68640000  0.07570000  1.0 0.0662412701
H  H25  1  0.66010000  0.65340000  0.16370000  1.0 0.0662412701
H  H26  1  0.36770000  0.29450000  0.70220000  1.0 0.0800053015
H  H27  1  0.45800000  0.29260000  0.66180000  1.0 0.0800053015
H  H28  1  0.49810000  0.25910000  0.77360000  1.0 0.105449695
H  H29  1  0.61070000  0.45800000  0.92430000  1.0 0.0662412701
H  H30  1  0.48970000  0.49640000  0.83630000  1.0 0.0662412701
H  H31  1  0.29450000  0.59230000  0.92680000  1.0 0.0800053015
H  H32  1  0.29260000  0.63080000  0.83460000  1.0 0.0800053015
H  H33  1  0.25910000  0.48550000  0.76100000  1.0 0.105449695
H  H34  1  0.45800000  0.53370000  0.84730000  1.0 0.0662412701
H  H35  1  0.49640000  0.66010000  0.00670000  1.0 0.0662412701
H  H36  1  0.66550000  0.36770000  0.07320000  1.0 0.0800053015
H  H37  1  0.79620000  0.45800000  0.16540000  1.0 0.0800053015
H  H38  1  0.72450000  0.49810000  0.23900000  1.0 0.105449695
H  H39  1  0.68640000  0.61070000  0.15270000  1.0 0.0662412701
H  H40  1  0.65340000  0.48970000  0.99330000  1.0 0.0662412701
H  H41  1  0.86770000  0.16550000  0.07320000  1.0 0.0800053015
H  H42  1  0.95800000  0.29620000  0.16540000  1.0 0.0800053015
H  H43  1  0.99810000  0.22450000  0.23900000  1.0 0.105449695
H  H44  1  0.11070000  0.18640000  0.15270000  1.0 0.0662412701
H  H45  1  0.98970000  0.15340000  0.99330000  1.0 0.0662412701
H  H46  1  0.09230000  0.79450000  0.92680000  1.0 0.0800053015
H  H47  1  0.13080000  0.79260000  0.83460000  1.0 0.0800053015
H  H48  1  0.98550000  0.75910000  0.76100000  1.0 0.105449695
H  H49  1  0.03370000  0.95800000  0.84730000  1.0 0.0662412701
H  H50  1  0.16010000  0.99640000  0.00670000  1.0 0.0662412701
H  H51  1  0.16550000  0.09230000  0.29780000  1.0 0.0800053015
H  H52  1  0.29620000  0.13080000  0.33820000  1.0 0.0800053015
H  H53  1  0.22450000  0.98550000  0.22640000  1.0 0.105449695
H  H54  1  0.18640000  0.03370000  0.07570000  1.0 0.0662412701
H  H55  1  0.15340000  0.16010000  0.16370000  1.0 0.0662412701
H  H56  1  0.79450000  0.86770000  0.70220000  1.0 0.0800053015
H  H57  1  0.79260000  0.95800000  0.66180000  1.0 0.0800053015
H  H58  1  0.75910000  0.99810000  0.77360000  1.0 0.105449695
H  H59  1  0.95800000  0.11070000  0.92430000  1.0 0.0662412701
H  H60  1  0.99640000  0.98970000  0.83630000  1.0 0.0662412701
H  H61  1  0.13230000  0.83450000  0.92680000  1.0 0.0800053015
H  H62  1  0.04200000  0.70380000  0.83460000  1.0 0.0800053015
H  H63  1  0.00190000  0.77550000  0.76100000  1.0 0.105449695
H  H64  1  0.88930000  0.81360000  0.84730000  1.0 0.0662412701
H  H65  1  0.01030000  0.84660000  0.00670000  1.0 0.0662412701
H  H66  1  0.90770000  0.20550000  0.07320000  1.0 0.0800053015
H  H67  1  0.86920000  0.20740000  0.16540000  1.0 0.0800053015
H  H68  1  0.01450000  0.24090000  0.23900000  1.0 0.105449695
H  H69  1  0.96630000  0.04200000  0.15270000  1.0 0.0662412701
H  H70  1  0.83990000  0.00360000  0.99330000  1.0 0.0662412701
H  H71  1  0.83450000  0.90770000  0.70220000  1.0 0.0800053015
H  H72  1  0.70380000  0.86920000  0.66180000  1.0 0.0800053015
H  H73  1  0.77550000  0.01450000  0.77360000  1.0 0.105449695
H  H74  1  0.81360000  0.96630000  0.92430000  1.0 0.0662412701
H  H75  1  0.84660000  0.83990000  0.83630000  1.0 0.0662412701
H  H76  1  0.20550000  0.13230000  0.29780000  1.0 0.0800053015
H  H77  1  0.20740000  0.04200000  0.33820000  1.0 0.0800053015
H  H78  1  0.24090000  0.00190000  0.22640000  1.0 0.105449695
H  H79  1  0.04200000  0.88930000  0.07570000  1.0 0.0662412701
H  H80  1  0.00360000  0.01030000  0.16370000  1.0 0.0662412701
C  C1  1  0.43020000  0.28650000  0.74190000  1.0 -0.2015445252
C  C2  1  0.42860000  0.35510000  0.87450000  1.0 -0.0582435533
C  C3  1  0.54460000  0.68830000  0.25810000  1.0 -0.2015445252
C  C4  1  0.48060000  0.55410000  0.12550000  1.0 -0.0582435533
C  C5  1  0.68830000  0.43020000  0.14370000  1.0 -0.2015445252
C  C6  1  0.55410000  0.42860000  0.07350000  1.0 -0.0582435533
C  C7  1  0.28650000  0.54460000  0.85630000  1.0 -0.2015445252
C  C8  1  0.35510000  0.48060000  0.92650000  1.0 -0.0582435533
C  C9  1  0.56980000  0.71350000  0.25810000  1.0 -0.2015445252
C  C10  1  0.57140000  0.64490000  0.12550000  1.0 -0.0582435533
C  C11  1  0.45540000  0.31170000  0.74190000  1.0 -0.2015445252
C  C12  1  0.51940000  0.44590000  0.87450000  1.0 -0.0582435533
C  C13  1  0.31170000  0.56980000  0.85630000  1.0 -0.2015445252
C  C14  1  0.44590000  0.57140000  0.92650000  1.0 -0.0582435533
C  C15  1  0.71350000  0.45540000  0.14370000  1.0 -0.2015445252
C  C16  1  0.64490000  0.51940000  0.07350000  1.0 -0.0582435533
C  C17  1  0.95540000  0.21350000  0.14370000  1.0 -0.2015445252
C  C18  1  0.01940000  0.14490000  0.07350000  1.0 -0.0582435533
C  C19  1  0.06980000  0.81170000  0.85630000  1.0 -0.2015445252
C  C20  1  0.07140000  0.94590000  0.92650000  1.0 -0.0582435533
C  C21  1  0.21350000  0.06980000  0.25810000  1.0 -0.2015445252
C  C22  1  0.14490000  0.07140000  0.12550000  1.0 -0.0582435533
C  C23  1  0.81170000  0.95540000  0.74190000  1.0 -0.2015445252
C  C24  1  0.94590000  0.01940000  0.87450000  1.0 -0.0582435533
C  C25  1  0.04460000  0.78650000  0.85630000  1.0 -0.2015445252
C  C26  1  0.98060000  0.85510000  0.92650000  1.0 -0.0582435533
C  C27  1  0.93020000  0.18830000  0.14370000  1.0 -0.2015445252
C  C28  1  0.92860000  0.05410000  0.07350000  1.0 -0.0582435533
C  C29  1  0.78650000  0.93020000  0.74190000  1.0 -0.2015445252
C  C30  1  0.85510000  0.92860000  0.87450000  1.0 -0.0582435533
C  C31  1  0.18830000  0.04460000  0.25810000  1.0 -0.2015445252
C  C32  1  0.05410000  0.98060000  0.12550000  1.0 -0.0582435533
C  C33  1  0.37610000  0.41280000  0.35870000  1.0 0.2580432071
C  C34  1  0.05410000  0.01740000  0.64130000  1.0 0.2580432071
C  C35  1  0.41280000  0.05410000  0.03670000  1.0 0.2580432071
C  C36  1  0.01740000  0.37610000  0.96330000  1.0 0.2580432071
C  C37  1  0.44590000  0.08720000  0.96330000  1.0 0.2580432071
C  C38  1  0.12390000  0.48260000  0.03670000  1.0 0.2580432071
C  C39  1  0.48260000  0.44590000  0.35870000  1.0 0.2580432071
C  C40  1  0.08720000  0.12390000  0.64130000  1.0 0.2580432071
C  C41  1  0.62390000  0.58720000  0.64130000  1.0 0.2580432071
C  C42  1  0.94590000  0.98260000  0.35870000  1.0 0.2580432071
C  C43  1  0.58720000  0.94590000  0.96330000  1.0 0.2580432071
C  C44  1  0.98260000  0.62390000  0.03670000  1.0 0.2580432071
C  C45  1  0.55410000  0.91280000  0.03670000  1.0 0.2580432071
C  C46  1  0.87610000  0.51740000  0.96330000  1.0 0.2580432071
C  C47  1  0.51740000  0.55410000  0.64130000  1.0 0.2580432071
C  C48  1  0.91280000  0.87610000  0.35870000  1.0 0.2580432071
C  C49  1  0.40140000  0.46680000  0.50000000  1.0 -0.0913456344
C  C50  1  0.96680000  0.90140000  0.50000000  1.0 -0.0913456344
C  C51  1  0.46680000  0.96680000  0.06540000  1.0 -0.0913456344
C  C52  1  0.90140000  0.40140000  0.93460000  1.0 -0.0913456344
C  C53  1  0.53320000  0.03320000  0.93460000  1.0 -0.0913456344
C  C54  1  0.09860000  0.59860000  0.06540000  1.0 -0.0913456344
C  C55  1  0.59860000  0.53320000  0.50000000  1.0 -0.0913456344
C  C56  1  0.03320000  0.09860000  0.50000000  1.0 -0.0913456344
N  N1  1  0.50000000  0.50000000  0.00000000  1.0 0.0662412701
N  N2  1  0.00000000  0.00000000  0.00000000  1.0 0.0662412701
Cl  Cl1  1  0.28097000  0.43007000  0.50000000  1.0 -0.218364386
Cl  Cl2  1  0.93007000  0.78097000  0.50000000  1.0 -0.218364386
Cl  Cl3  1  0.43007000  0.93007000  0.14910000  1.0 -0.218364386
Cl  Cl4  1  0.78097000  0.28097000  0.85090000  1.0 -0.218364386
Cl  Cl5  1  0.56993000  0.06993000  0.85090000  1.0 -0.218364386
Cl  Cl6  1  0.21903000  0.71903000  0.14910000  1.0 -0.218364386
Cl  Cl7  1  0.71903000  0.56993000  0.50000000  1.0 -0.218364386
Cl  Cl8  1  0.06993000  0.21903000  0.50000000  1.0 -0.218364386
O  O1  1  0.27250000  0.33680000  0.22650000  1.0 -0.4545156585
O  O2  1  0.11030000  0.04600000  0.77350000  1.0 -0.455323361
O  O3  1  0.33680000  0.11030000  0.06430000  1.0 -0.455323361
O  O4  1  0.04600000  0.27250000  0.93570000  1.0 -0.4545156585
O  O5  1  0.38970000  0.16320000  0.93570000  1.0 -0.455323361
O  O6  1  0.22750000  0.45400000  0.06430000  1.0 -0.4545156585
O  O7  1  0.45400000  0.38970000  0.22650000  1.0 -0.4545156585
O  O8  1  0.16320000  0.22750000  0.77350000  1.0 -0.455323361
O  O9  1  0.72750000  0.66320000  0.77350000  1.0 -0.455323361
O  O10  1  0.88970000  0.95400000  0.22650000  1.0 -0.455323361
O  O11  1  0.66320000  0.88970000  0.93570000  1.0 -0.455323361
O  O12  1  0.95400000  0.72750000  0.06430000  1.0 -0.455323361
O  O13  1  0.61030000  0.83680000  0.06430000  1.0 -0.455323361
O  O14  1  0.77250000  0.54600000  0.93570000  1.0 -0.455323361
O  O15  1  0.54600000  0.61030000  0.77350000  1.0 -0.455323361
O  O16  1  0.83680000  0.77250000  0.22650000  1.0 -0.455323361
