# DDEC6 charges by PACMAN v1.1 (https://github.com/mtap-research/PACMAN-charge/)
data_QOGPIM_FSR_pacman
_symmetry_space_group_name_H-M   'P 1'
_cell_length_a   30.88000000
_cell_length_b   30.88000000
_cell_length_c   33.78100000
_cell_angle_alpha   90.00000000
_cell_angle_beta   90.00000000
_cell_angle_gamma   90.00000000
_symmetry_Int_Tables_number   1
_chemical_formula_structural   Zn13(C141N28)2
_chemical_formula_sum   'Zn52 C1128 N224'
_cell_volume   32212.69680640
_cell_formula_units_Z   4
loop_
 _symmetry_equiv_pos_site_id
 _symmetry_equiv_pos_as_xyz
  1  'x, y, z'
loop_
 _atom_site_type_symbol
 _atom_site_label
 _atom_site_symmetry_multiplicity
 _atom_site_fract_x
 _atom_site_fract_y
 _atom_site_fract_z
 _atom_site_occupancy
 _atom_site_charge
Zn  Zn1  1  0.29172000  0.15594000  0.21571000  1.0 0.7126182347
Zn  Zn2  1  0.34406000  0.79172000  0.71571000  1.0 0.7126182347
Zn  Zn3  1  0.65594000  0.20828000  0.71571000  1.0 0.7126182347
Zn  Zn4  1  0.15594000  0.29172000  0.78429000  1.0 0.7126182347
Zn  Zn5  1  0.70828000  0.84406000  0.21571000  1.0 0.7126182347
Zn  Zn6  1  0.20828000  0.65594000  0.28429000  1.0 0.7126182347
Zn  Zn7  1  0.79172000  0.34406000  0.28429000  1.0 0.7126182347
Zn  Zn8  1  0.84406000  0.70828000  0.78429000  1.0 0.7126182347
Zn  Zn9  1  0.70828000  0.84406000  0.78429000  1.0 0.7126182347
Zn  Zn10  1  0.65594000  0.20828000  0.28429000  1.0 0.7126182347
Zn  Zn11  1  0.34406000  0.79172000  0.28429000  1.0 0.7126182347
Zn  Zn12  1  0.84406000  0.70828000  0.21571000  1.0 0.7126182347
Zn  Zn13  1  0.29172000  0.15594000  0.78429000  1.0 0.7126182347
Zn  Zn14  1  0.79172000  0.34406000  0.71571000  1.0 0.7126182347
Zn  Zn15  1  0.20828000  0.65594000  0.71571000  1.0 0.7126182347
Zn  Zn16  1  0.15594000  0.29172000  0.21571000  1.0 0.7126182347
Zn  Zn17  1  0.47942000  0.18601000  0.22450000  1.0 0.7317619613
Zn  Zn18  1  0.31399000  0.97942000  0.72450000  1.0 0.7317619613
Zn  Zn19  1  0.68601000  0.02058000  0.72450000  1.0 0.7317619613
Zn  Zn20  1  0.18601000  0.47942000  0.77550000  1.0 0.7317619613
Zn  Zn21  1  0.52058000  0.81399000  0.22450000  1.0 0.7317619613
Zn  Zn22  1  0.02058000  0.68601000  0.27550000  1.0 0.7317619613
Zn  Zn23  1  0.97942000  0.31399000  0.27550000  1.0 0.7317619613
Zn  Zn24  1  0.81399000  0.52058000  0.77550000  1.0 0.7317619613
Zn  Zn25  1  0.52058000  0.81399000  0.77550000  1.0 0.7317619613
Zn  Zn26  1  0.68601000  0.02058000  0.27550000  1.0 0.7317619613
Zn  Zn27  1  0.31399000  0.97942000  0.27550000  1.0 0.7317619613
Zn  Zn28  1  0.81399000  0.52058000  0.22450000  1.0 0.7317619613
Zn  Zn29  1  0.47942000  0.18601000  0.77550000  1.0 0.7317619613
Zn  Zn30  1  0.97942000  0.31399000  0.72450000  1.0 0.7317619613
Zn  Zn31  1  0.02058000  0.68601000  0.72450000  1.0 0.7317619613
Zn  Zn32  1  0.18601000  0.47942000  0.22450000  1.0 0.7317619613
Zn  Zn33  1  0.38369000  0.24752000  0.08733000  1.0 0.6376195169
Zn  Zn34  1  0.25248000  0.88369000  0.58733000  1.0 0.6376195169
Zn  Zn35  1  0.74752000  0.11631000  0.58733000  1.0 0.6376195169
Zn  Zn36  1  0.24752000  0.38369000  0.91267000  1.0 0.6376195169
Zn  Zn37  1  0.61631000  0.75248000  0.08733000  1.0 0.6376195169
Zn  Zn38  1  0.11631000  0.74752000  0.41267000  1.0 0.6376195169
Zn  Zn39  1  0.88369000  0.25248000  0.41267000  1.0 0.6376195169
Zn  Zn40  1  0.75248000  0.61631000  0.91267000  1.0 0.6376195169
Zn  Zn41  1  0.61631000  0.75248000  0.91267000  1.0 0.6376195169
Zn  Zn42  1  0.74752000  0.11631000  0.41267000  1.0 0.6376195169
Zn  Zn43  1  0.25248000  0.88369000  0.41267000  1.0 0.6376195169
Zn  Zn44  1  0.75248000  0.61631000  0.08733000  1.0 0.6376195169
Zn  Zn45  1  0.38369000  0.24752000  0.91267000  1.0 0.6376195169
Zn  Zn46  1  0.88369000  0.25248000  0.58733000  1.0 0.6376195169
Zn  Zn47  1  0.11631000  0.74752000  0.58733000  1.0 0.6376195169
Zn  Zn48  1  0.24752000  0.38369000  0.08733000  1.0 0.6376195169
Zn  Zn49  1  0.50000000  0.00000000  0.25000000  1.0 0.6854011781
Zn  Zn50  1  0.50000000  0.00000000  0.75000000  1.0 0.6854011781
Zn  Zn51  1  0.00000000  0.50000000  0.75000000  1.0 0.6854011781
Zn  Zn52  1  0.00000000  0.50000000  0.25000000  1.0 0.6854011781
C  C1  1  0.38990000  0.16460000  0.22660000  1.0 0.1107682638
C  C2  1  0.33540000  0.88990000  0.72660000  1.0 0.1107682638
C  C3  1  0.66460000  0.11010000  0.72660000  1.0 0.1107682638
C  C4  1  0.16460000  0.38990000  0.77340000  1.0 0.1107682638
C  C5  1  0.61010000  0.83540000  0.22660000  1.0 0.1107682638
C  C6  1  0.11010000  0.66460000  0.27340000  1.0 0.1185411369
C  C7  1  0.88990000  0.33540000  0.27340000  1.0 0.1107682638
C  C8  1  0.83540000  0.61010000  0.77340000  1.0 0.1107682638
C  C9  1  0.61010000  0.83540000  0.77340000  1.0 0.1107682638
C  C10  1  0.66460000  0.11010000  0.27340000  1.0 0.1107682638
C  C11  1  0.33540000  0.88990000  0.27340000  1.0 0.1107682638
C  C12  1  0.83540000  0.61010000  0.22660000  1.0 0.1107682638
C  C13  1  0.38990000  0.16460000  0.77340000  1.0 0.1107682638
C  C14  1  0.88990000  0.33540000  0.72660000  1.0 0.1107682638
C  C15  1  0.11010000  0.66460000  0.72660000  1.0 0.1107682638
C  C16  1  0.16460000  0.38990000  0.22660000  1.0 0.1107682638
C  C17  1  0.35810000  0.19040000  0.28020000  1.0 0.1488287441
C  C18  1  0.30960000  0.85810000  0.78020000  1.0 0.1488287441
C  C19  1  0.69040000  0.14190000  0.78020000  1.0 0.1488287441
C  C20  1  0.19040000  0.35810000  0.71980000  1.0 0.1488287441
C  C21  1  0.64190000  0.80960000  0.28020000  1.0 0.1488287441
C  C22  1  0.14190000  0.69040000  0.21980000  1.0 0.1488287441
C  C23  1  0.85810000  0.30960000  0.21980000  1.0 0.1488287441
C  C24  1  0.80960000  0.64190000  0.71980000  1.0 0.1488287441
C  C25  1  0.64190000  0.80960000  0.71980000  1.0 0.1488287441
C  C26  1  0.69040000  0.14190000  0.21980000  1.0 0.1488287441
C  C27  1  0.30960000  0.85810000  0.21980000  1.0 0.1488287441
C  C28  1  0.80960000  0.64190000  0.28020000  1.0 0.1488287441
C  C29  1  0.35810000  0.19040000  0.71980000  1.0 0.1488287441
C  C30  1  0.85810000  0.30960000  0.78020000  1.0 0.1488287441
C  C31  1  0.14190000  0.69040000  0.78020000  1.0 0.1488287441
C  C32  1  0.19040000  0.35810000  0.28020000  1.0 0.1488287441
C  C33  1  0.32740000  0.20570000  0.31230000  1.0 -0.1066317231
C  C34  1  0.29430000  0.82740000  0.81230000  1.0 -0.1008840167
C  C35  1  0.70570000  0.17260000  0.81230000  1.0 -0.1066317231
C  C36  1  0.20570000  0.32740000  0.68770000  1.0 -0.1066317231
C  C37  1  0.67260000  0.79430000  0.31230000  1.0 -0.1008840167
C  C38  1  0.17260000  0.70570000  0.18770000  1.0 -0.1008840167
C  C39  1  0.82740000  0.29430000  0.18770000  1.0 -0.1008840167
C  C40  1  0.79430000  0.67260000  0.68770000  1.0 -0.1008840167
C  C41  1  0.67260000  0.79430000  0.68770000  1.0 -0.1008840167
C  C42  1  0.70570000  0.17260000  0.18770000  1.0 -0.1008840167
C  C43  1  0.29430000  0.82740000  0.18770000  1.0 -0.1008840167
C  C44  1  0.79430000  0.67260000  0.31230000  1.0 -0.1008840167
C  C45  1  0.32740000  0.20570000  0.68770000  1.0 -0.1066317231
C  C46  1  0.82740000  0.29430000  0.81230000  1.0 -0.1008840167
C  C47  1  0.17260000  0.70570000  0.81230000  1.0 -0.1066317231
C  C48  1  0.20570000  0.32740000  0.31230000  1.0 -0.1066317231
C  C49  1  0.36900000  0.22910000  0.34420000  1.0 0.2175993146
C  C50  1  0.27090000  0.86900000  0.84420000  1.0 0.2175993146
C  C51  1  0.72910000  0.13100000  0.84420000  1.0 0.2175993146
C  C52  1  0.22910000  0.36900000  0.65580000  1.0 0.2175993146
C  C53  1  0.63100000  0.77090000  0.34420000  1.0 0.2175993146
C  C54  1  0.13100000  0.72910000  0.15580000  1.0 0.2175993146
C  C55  1  0.86900000  0.27090000  0.15580000  1.0 0.2175993146
C  C56  1  0.77090000  0.63100000  0.65580000  1.0 0.2175993146
C  C57  1  0.63100000  0.77090000  0.65580000  1.0 0.2175993146
C  C58  1  0.72910000  0.13100000  0.15580000  1.0 0.2175993146
C  C59  1  0.27090000  0.86900000  0.15580000  1.0 0.2175993146
C  C60  1  0.77090000  0.63100000  0.34420000  1.0 0.2175993146
C  C61  1  0.36900000  0.22910000  0.65580000  1.0 0.2175993146
C  C62  1  0.86900000  0.27090000  0.84420000  1.0 0.2175993146
C  C63  1  0.13100000  0.72910000  0.84420000  1.0 0.2175993146
C  C64  1  0.22910000  0.36900000  0.34420000  1.0 0.2175993146
C  C65  1  0.42100000  0.21570000  0.31920000  1.0 -0.2605271385
C  C66  1  0.28430000  0.92100000  0.81920000  1.0 -0.2605271385
C  C67  1  0.71570000  0.07900000  0.81920000  1.0 -0.2605271385
C  C68  1  0.21570000  0.42100000  0.68080000  1.0 -0.2605271385
C  C69  1  0.57900000  0.78430000  0.31920000  1.0 -0.2605271385
C  C70  1  0.07900000  0.71570000  0.18080000  1.0 -0.2605271385
C  C71  1  0.92100000  0.28430000  0.18080000  1.0 -0.2605271385
C  C72  1  0.78430000  0.57900000  0.68080000  1.0 -0.2605271385
C  C73  1  0.57900000  0.78430000  0.68080000  1.0 -0.2605271385
C  C74  1  0.71570000  0.07900000  0.18080000  1.0 -0.2605271385
C  C75  1  0.28430000  0.92100000  0.18080000  1.0 -0.2605271385
C  C76  1  0.78430000  0.57900000  0.31920000  1.0 -0.2605271385
C  C77  1  0.42100000  0.21570000  0.68080000  1.0 -0.2605271385
C  C78  1  0.92100000  0.28430000  0.81920000  1.0 -0.2605271385
C  C79  1  0.07900000  0.71570000  0.81920000  1.0 -0.2605271385
C  C80  1  0.21570000  0.42100000  0.31920000  1.0 -0.2605271385
C  C81  1  0.40350000  0.19670000  0.28860000  1.0 0.1580579583
C  C82  1  0.30330000  0.90350000  0.78860000  1.0 0.1580579583
C  C83  1  0.69670000  0.09650000  0.78860000  1.0 0.1580579583
C  C84  1  0.19670000  0.40350000  0.71140000  1.0 0.1580579583
C  C85  1  0.59650000  0.80330000  0.28860000  1.0 0.1580579583
C  C86  1  0.09650000  0.69670000  0.21140000  1.0 0.1580579583
C  C87  1  0.90350000  0.30330000  0.21140000  1.0 0.1580579583
C  C88  1  0.80330000  0.59650000  0.71140000  1.0 0.1580579583
C  C89  1  0.59650000  0.80330000  0.71140000  1.0 0.1580579583
C  C90  1  0.69670000  0.09650000  0.21140000  1.0 0.1580579583
C  C91  1  0.30330000  0.90350000  0.21140000  1.0 0.1580579583
C  C92  1  0.80330000  0.59650000  0.28860000  1.0 0.1580579583
C  C93  1  0.40350000  0.19670000  0.71140000  1.0 0.1580579583
C  C94  1  0.90350000  0.30330000  0.78860000  1.0 0.1580579583
C  C95  1  0.09650000  0.69670000  0.78860000  1.0 0.1580579583
C  C96  1  0.19670000  0.40350000  0.28860000  1.0 0.1580579583
C  C97  1  0.44010000  0.21420000  0.14900000  1.0 0.1688064637
C  C98  1  0.28580000  0.94010000  0.64900000  1.0 0.1688064637
C  C99  1  0.71420000  0.05990000  0.64900000  1.0 0.1688064637
C  C100  1  0.21420000  0.44010000  0.85100000  1.0 0.1688064637
C  C101  1  0.55990000  0.78580000  0.14900000  1.0 0.1688064637
C  C102  1  0.05990000  0.71420000  0.35100000  1.0 0.1688064637
C  C103  1  0.94010000  0.28580000  0.35100000  1.0 0.1688064637
C  C104  1  0.78580000  0.55990000  0.85100000  1.0 0.1688064637
C  C105  1  0.55990000  0.78580000  0.85100000  1.0 0.1688064637
C  C106  1  0.71420000  0.05990000  0.35100000  1.0 0.1688064637
C  C107  1  0.28580000  0.94010000  0.35100000  1.0 0.1688064637
C  C108  1  0.78580000  0.55990000  0.14900000  1.0 0.1688064637
C  C109  1  0.44010000  0.21420000  0.85100000  1.0 0.1688064637
C  C110  1  0.94010000  0.28580000  0.64900000  1.0 0.1688064637
C  C111  1  0.05990000  0.71420000  0.64900000  1.0 0.1688064637
C  C112  1  0.21420000  0.44010000  0.14900000  1.0 0.1688064637
C  C113  1  0.48870000  0.26100000  0.16730000  1.0 0.0893692957
C  C114  1  0.23900000  0.98870000  0.66730000  1.0 0.0893692957
C  C115  1  0.76100000  0.01130000  0.66730000  1.0 0.0893692957
C  C116  1  0.26100000  0.48870000  0.83270000  1.0 0.0893692957
C  C117  1  0.51130000  0.73900000  0.16730000  1.0 0.0893692957
C  C118  1  0.01130000  0.76100000  0.33270000  1.0 0.0893692957
C  C119  1  0.98870000  0.23900000  0.33270000  1.0 0.0893692957
C  C120  1  0.73900000  0.51130000  0.83270000  1.0 0.0893692957
C  C121  1  0.51130000  0.73900000  0.83270000  1.0 0.0893692957
C  C122  1  0.76100000  0.01130000  0.33270000  1.0 0.0893692957
C  C123  1  0.23900000  0.98870000  0.33270000  1.0 0.0893692957
C  C124  1  0.73900000  0.51130000  0.16730000  1.0 0.0893692957
C  C125  1  0.48870000  0.26100000  0.83270000  1.0 0.0893692957
C  C126  1  0.98870000  0.23900000  0.66730000  1.0 0.0893692957
C  C127  1  0.01130000  0.76100000  0.66730000  1.0 0.0893692957
C  C128  1  0.26100000  0.48870000  0.16730000  1.0 0.0893692957
C  C129  1  0.52070000  0.28570000  0.18340000  1.0 -0.0796172501
C  C130  1  0.21430000  0.02070000  0.68340000  1.0 -0.0796172501
C  C131  1  0.78570000  0.97930000  0.68340000  1.0 -0.0796172501
C  C132  1  0.28570000  0.52070000  0.81660000  1.0 -0.0796172501
C  C133  1  0.47930000  0.71430000  0.18340000  1.0 -0.0796172501
C  C134  1  0.97930000  0.78570000  0.31660000  1.0 -0.0796172501
C  C135  1  0.02070000  0.21430000  0.31660000  1.0 -0.0796172501
C  C136  1  0.71430000  0.47930000  0.81660000  1.0 -0.0796172501
C  C137  1  0.47930000  0.71430000  0.81660000  1.0 -0.0796172501
C  C138  1  0.78570000  0.97930000  0.31660000  1.0 -0.0796172501
C  C139  1  0.21430000  0.02070000  0.31660000  1.0 -0.0796172501
C  C140  1  0.71430000  0.47930000  0.18340000  1.0 -0.0796172501
C  C141  1  0.52070000  0.28570000  0.81660000  1.0 -0.0796172501
C  C142  1  0.02070000  0.21430000  0.68340000  1.0 -0.0796172501
C  C143  1  0.97930000  0.78570000  0.68340000  1.0 -0.0796172501
C  C144  1  0.28570000  0.52070000  0.18340000  1.0 -0.0796172501
C  C145  1  0.52690000  0.33230000  0.16900000  1.0 0.0796599887
C  C146  1  0.16770000  0.02690000  0.66900000  1.0 0.0796599887
C  C147  1  0.83230000  0.97310000  0.66900000  1.0 0.0796599887
C  C148  1  0.33230000  0.52690000  0.83100000  1.0 0.0796599887
C  C149  1  0.47310000  0.66770000  0.16900000  1.0 0.0796599887
C  C150  1  0.97310000  0.83230000  0.33100000  1.0 0.0796599887
C  C151  1  0.02690000  0.16770000  0.33100000  1.0 0.0796599887
C  C152  1  0.66770000  0.47310000  0.83100000  1.0 0.0796599887
C  C153  1  0.47310000  0.66770000  0.83100000  1.0 0.0796599887
C  C154  1  0.83230000  0.97310000  0.33100000  1.0 0.0796599887
C  C155  1  0.16770000  0.02690000  0.33100000  1.0 0.0796599887
C  C156  1  0.66770000  0.47310000  0.16900000  1.0 0.0796599887
C  C157  1  0.52690000  0.33230000  0.83100000  1.0 0.0796599887
C  C158  1  0.02690000  0.16770000  0.66900000  1.0 0.0796599887
C  C159  1  0.97310000  0.83230000  0.66900000  1.0 0.0796599887
C  C160  1  0.33230000  0.52690000  0.16900000  1.0 0.0796599887
C  C161  1  0.49900000  0.35500000  0.13800000  1.0 0.0312235487
C  C162  1  0.14500000  0.99900000  0.63800000  1.0 0.0312235487
C  C163  1  0.85500000  0.00100000  0.63800000  1.0 0.0312235487
C  C164  1  0.35500000  0.49900000  0.86200000  1.0 0.0312235487
C  C165  1  0.50100000  0.64500000  0.13800000  1.0 0.0312235487
C  C166  1  0.00100000  0.85500000  0.36200000  1.0 0.0312235487
C  C167  1  0.99900000  0.14500000  0.36200000  1.0 0.0312235487
C  C168  1  0.64500000  0.50100000  0.86200000  1.0 0.0312235487
C  C169  1  0.50100000  0.64500000  0.86200000  1.0 0.0312235487
C  C170  1  0.85500000  0.00100000  0.36200000  1.0 0.0312235487
C  C171  1  0.14500000  0.99900000  0.36200000  1.0 0.0312235487
C  C172  1  0.64500000  0.50100000  0.13800000  1.0 0.0312235487
C  C173  1  0.49900000  0.35500000  0.86200000  1.0 0.0312235487
C  C174  1  0.99900000  0.14500000  0.63800000  1.0 0.0312235487
C  C175  1  0.00100000  0.85500000  0.63800000  1.0 0.0312235487
C  C176  1  0.35500000  0.49900000  0.13800000  1.0 0.0312235487
C  C177  1  0.47640000  0.32620000  0.12030000  1.0 -0.1799157016
C  C178  1  0.17380000  0.97640000  0.62030000  1.0 -0.1799157016
C  C179  1  0.82620000  0.02360000  0.62030000  1.0 -0.1799157016
C  C180  1  0.32620000  0.47640000  0.87970000  1.0 -0.1799157016
C  C181  1  0.52360000  0.67380000  0.12030000  1.0 -0.1799157016
C  C182  1  0.02360000  0.82620000  0.37970000  1.0 -0.1799157016
C  C183  1  0.97640000  0.17380000  0.37970000  1.0 -0.1799157016
C  C184  1  0.67380000  0.52360000  0.87970000  1.0 -0.1799157016
C  C185  1  0.52360000  0.67380000  0.87970000  1.0 -0.1799157016
C  C186  1  0.82620000  0.02360000  0.37970000  1.0 -0.1799157016
C  C187  1  0.17380000  0.97640000  0.37970000  1.0 -0.1799157016
C  C188  1  0.67380000  0.52360000  0.12030000  1.0 -0.1799157016
C  C189  1  0.47640000  0.32620000  0.87970000  1.0 -0.1799157016
C  C190  1  0.97640000  0.17380000  0.62030000  1.0 -0.1799157016
C  C191  1  0.02360000  0.82620000  0.62030000  1.0 -0.1799157016
C  C192  1  0.32620000  0.47640000  0.12030000  1.0 -0.1799157016
C  C193  1  0.46610000  0.28380000  0.13450000  1.0 0.1816443711
C  C194  1  0.21620000  0.96610000  0.63450000  1.0 0.1816443711
C  C195  1  0.78380000  0.03390000  0.63450000  1.0 0.1816443711
C  C196  1  0.28380000  0.46610000  0.86550000  1.0 0.1816443711
C  C197  1  0.53390000  0.71620000  0.13450000  1.0 0.1816443711
C  C198  1  0.03390000  0.78380000  0.36550000  1.0 0.1816443711
C  C199  1  0.96610000  0.21620000  0.36550000  1.0 0.1816443711
C  C200  1  0.71620000  0.53390000  0.86550000  1.0 0.1816443711
C  C201  1  0.53390000  0.71620000  0.86550000  1.0 0.1816443711
C  C202  1  0.78380000  0.03390000  0.36550000  1.0 0.1816443711
C  C203  1  0.21620000  0.96610000  0.36550000  1.0 0.1816443711
C  C204  1  0.71620000  0.53390000  0.13450000  1.0 0.1816443711
C  C205  1  0.46610000  0.28380000  0.86550000  1.0 0.1816443711
C  C206  1  0.96610000  0.21620000  0.63450000  1.0 0.1816443711
C  C207  1  0.03390000  0.78380000  0.63450000  1.0 0.1816443711
C  C208  1  0.28380000  0.46610000  0.13450000  1.0 0.1816443711
C  C209  1  0.56000000  0.35880000  0.18730000  1.0 -0.042412958
C  C210  1  0.14120000  0.06000000  0.68730000  1.0 -0.042412958
C  C211  1  0.85880000  0.94000000  0.68730000  1.0 -0.042412958
C  C212  1  0.35880000  0.56000000  0.81270000  1.0 -0.042412958
C  C213  1  0.44000000  0.64120000  0.18730000  1.0 -0.042412958
C  C214  1  0.94000000  0.85880000  0.31270000  1.0 -0.042412958
C  C215  1  0.06000000  0.14120000  0.31270000  1.0 -0.042412958
C  C216  1  0.64120000  0.44000000  0.81270000  1.0 -0.042412958
C  C217  1  0.44000000  0.64120000  0.81270000  1.0 -0.042412958
C  C218  1  0.85880000  0.94000000  0.31270000  1.0 -0.042412958
C  C219  1  0.14120000  0.06000000  0.31270000  1.0 -0.042412958
C  C220  1  0.64120000  0.44000000  0.18730000  1.0 -0.042412958
C  C221  1  0.56000000  0.35880000  0.81270000  1.0 -0.042412958
C  C222  1  0.06000000  0.14120000  0.68730000  1.0 -0.042412958
C  C223  1  0.94000000  0.85880000  0.68730000  1.0 -0.042412958
C  C224  1  0.35880000  0.56000000  0.18730000  1.0 -0.042412958
C  C225  1  0.51640000  0.39830000  0.12140000  1.0 0.1107682638
C  C226  1  0.10170000  0.01640000  0.62140000  1.0 0.1107682638
C  C227  1  0.89830000  0.98360000  0.62140000  1.0 0.1107682638
C  C228  1  0.39830000  0.51640000  0.87860000  1.0 0.1107682638
C  C229  1  0.48360000  0.60170000  0.12140000  1.0 0.1107682638
C  C230  1  0.98360000  0.89830000  0.37860000  1.0 0.1107682638
C  C231  1  0.01640000  0.10170000  0.37860000  1.0 0.1107682638
C  C232  1  0.60170000  0.48360000  0.87860000  1.0 0.1107682638
C  C233  1  0.48360000  0.60170000  0.87860000  1.0 0.1107682638
C  C234  1  0.89830000  0.98360000  0.37860000  1.0 0.1107682638
C  C235  1  0.10170000  0.01640000  0.37860000  1.0 0.1107682638
C  C236  1  0.60170000  0.48360000  0.12140000  1.0 0.1107682638
C  C237  1  0.51640000  0.39830000  0.87860000  1.0 0.1107682638
C  C238  1  0.01640000  0.10170000  0.62140000  1.0 0.1107682638
C  C239  1  0.98360000  0.89830000  0.62140000  1.0 0.1107682638
C  C240  1  0.39830000  0.51640000  0.12140000  1.0 0.1107682638
C  C241  1  0.32940000  0.20570000  0.14940000  1.0 0.0796599887
C  C242  1  0.29430000  0.82940000  0.64940000  1.0 0.0796599887
C  C243  1  0.70570000  0.17060000  0.64940000  1.0 0.0796599887
C  C244  1  0.20570000  0.32940000  0.85060000  1.0 0.0796599887
C  C245  1  0.67060000  0.79430000  0.14940000  1.0 0.0796599887
C  C246  1  0.17060000  0.70570000  0.35060000  1.0 0.0796599887
C  C247  1  0.82940000  0.29430000  0.35060000  1.0 0.0796599887
C  C248  1  0.79430000  0.67060000  0.85060000  1.0 0.0796599887
C  C249  1  0.67060000  0.79430000  0.85060000  1.0 0.0796599887
C  C250  1  0.70570000  0.17060000  0.35060000  1.0 0.0796599887
C  C251  1  0.29430000  0.82940000  0.35060000  1.0 0.0796599887
C  C252  1  0.79430000  0.67060000  0.14940000  1.0 0.0796599887
C  C253  1  0.32940000  0.20570000  0.85060000  1.0 0.0796599887
C  C254  1  0.82940000  0.29430000  0.64940000  1.0 0.0796599887
C  C255  1  0.17060000  0.70570000  0.64940000  1.0 0.0796599887
C  C256  1  0.20570000  0.32940000  0.14940000  1.0 0.0796599887
C  C257  1  0.33870000  0.16000000  0.09580000  1.0 0.0496747115
C  C258  1  0.34000000  0.83870000  0.59580000  1.0 0.0496747115
C  C259  1  0.66000000  0.16130000  0.59580000  1.0 0.0496747115
C  C260  1  0.16000000  0.33870000  0.90420000  1.0 0.0496747115
C  C261  1  0.66130000  0.84000000  0.09580000  1.0 0.0405108803
C  C262  1  0.16130000  0.66000000  0.40420000  1.0 0.0496747115
C  C263  1  0.83870000  0.34000000  0.40420000  1.0 0.0496747115
C  C264  1  0.84000000  0.66130000  0.90420000  1.0 0.0496747115
C  C265  1  0.66130000  0.84000000  0.90420000  1.0 0.0496747115
C  C266  1  0.66000000  0.16130000  0.40420000  1.0 0.0496747115
C  C267  1  0.34000000  0.83870000  0.40420000  1.0 0.0496747115
C  C268  1  0.84000000  0.66130000  0.09580000  1.0 0.0405108803
C  C269  1  0.33870000  0.16000000  0.90420000  1.0 0.0496747115
C  C270  1  0.83870000  0.34000000  0.59580000  1.0 0.0496747115
C  C271  1  0.16130000  0.66000000  0.59580000  1.0 0.0496747115
C  C272  1  0.16000000  0.33870000  0.09580000  1.0 0.0496747115
C  C273  1  0.34780000  0.14430000  0.06000000  1.0 -0.1307628625
C  C274  1  0.35570000  0.84780000  0.56000000  1.0 -0.1307628625
C  C275  1  0.64430000  0.15220000  0.56000000  1.0 -0.1307628625
C  C276  1  0.14430000  0.34780000  0.94000000  1.0 -0.1307628625
C  C277  1  0.65220000  0.85570000  0.06000000  1.0 -0.1307628625
C  C278  1  0.15220000  0.64430000  0.44000000  1.0 -0.1307628625
C  C279  1  0.84780000  0.35570000  0.44000000  1.0 -0.1307628625
C  C280  1  0.85570000  0.65220000  0.94000000  1.0 -0.1307628625
C  C281  1  0.65220000  0.85570000  0.94000000  1.0 -0.1307628625
C  C282  1  0.64430000  0.15220000  0.44000000  1.0 -0.1307628625
C  C283  1  0.35570000  0.84780000  0.44000000  1.0 -0.1307628625
C  C284  1  0.85570000  0.65220000  0.06000000  1.0 -0.1307628625
C  C285  1  0.34780000  0.14430000  0.94000000  1.0 -0.1307628625
C  C286  1  0.84780000  0.35570000  0.56000000  1.0 -0.1307628625
C  C287  1  0.15220000  0.64430000  0.56000000  1.0 -0.1307628625
C  C288  1  0.14430000  0.34780000  0.06000000  1.0 -0.1307628625
C  C289  1  0.33200000  0.09900000  0.04900000  1.0 0.0893692957
C  C290  1  0.40100000  0.83200000  0.54900000  1.0 0.0893692957
C  C291  1  0.59900000  0.16800000  0.54900000  1.0 0.0893692957
C  C292  1  0.09900000  0.33200000  0.95100000  1.0 0.0893692957
C  C293  1  0.66800000  0.90100000  0.04900000  1.0 0.0893692957
C  C294  1  0.16800000  0.59900000  0.45100000  1.0 0.0893692957
C  C295  1  0.83200000  0.40100000  0.45100000  1.0 0.0893692957
C  C296  1  0.90100000  0.66800000  0.95100000  1.0 0.0893692957
C  C297  1  0.66800000  0.90100000  0.95100000  1.0 0.0893692957
C  C298  1  0.59900000  0.16800000  0.45100000  1.0 0.0893692957
C  C299  1  0.40100000  0.83200000  0.45100000  1.0 0.0893692957
C  C300  1  0.90100000  0.66800000  0.04900000  1.0 0.0893692957
C  C301  1  0.33200000  0.09900000  0.95100000  1.0 0.0893692957
C  C302  1  0.83200000  0.40100000  0.54900000  1.0 0.0893692957
C  C303  1  0.16800000  0.59900000  0.54900000  1.0 0.0893692957
C  C304  1  0.09900000  0.33200000  0.04900000  1.0 0.0893692957
C  C305  1  0.30980000  0.08040000  0.08490000  1.0 0.0173956944
C  C306  1  0.41960000  0.80980000  0.58490000  1.0 0.0173956944
C  C307  1  0.58040000  0.19020000  0.58490000  1.0 0.0145130175
C  C308  1  0.08040000  0.30980000  0.91510000  1.0 0.0173956944
C  C309  1  0.69020000  0.91960000  0.08490000  1.0 0.0173956944
C  C310  1  0.19020000  0.58040000  0.41510000  1.0 0.0173956944
C  C311  1  0.80980000  0.41960000  0.41510000  1.0 0.0173956944
C  C312  1  0.91960000  0.69020000  0.91510000  1.0 0.0173956944
C  C313  1  0.69020000  0.91960000  0.91510000  1.0 0.0173956944
C  C314  1  0.58040000  0.19020000  0.41510000  1.0 0.0173956944
C  C315  1  0.41960000  0.80980000  0.41510000  1.0 0.0173956944
C  C316  1  0.91960000  0.69020000  0.08490000  1.0 0.0173956944
C  C317  1  0.30980000  0.08040000  0.91510000  1.0 0.0173956944
C  C318  1  0.80980000  0.41960000  0.58490000  1.0 0.0173956944
C  C319  1  0.19020000  0.58040000  0.58490000  1.0 0.0173956944
C  C320  1  0.08040000  0.30980000  0.08490000  1.0 0.0173956944
C  C321  1  0.29550000  0.09830000  0.12050000  1.0 -0.1364614876
C  C322  1  0.40170000  0.79550000  0.62050000  1.0 -0.1364614876
C  C323  1  0.59830000  0.20450000  0.62050000  1.0 -0.1307628625
C  C324  1  0.09830000  0.29550000  0.87950000  1.0 -0.1364614876
C  C325  1  0.70450000  0.90170000  0.12050000  1.0 -0.1364614876
C  C326  1  0.20450000  0.59830000  0.37950000  1.0 -0.1364614876
C  C327  1  0.79550000  0.40170000  0.37950000  1.0 -0.1364614876
C  C328  1  0.90170000  0.70450000  0.87950000  1.0 -0.1307628625
C  C329  1  0.70450000  0.90170000  0.87950000  1.0 -0.1307628625
C  C330  1  0.59830000  0.20450000  0.37950000  1.0 -0.1364614876
C  C331  1  0.40170000  0.79550000  0.37950000  1.0 -0.1364614876
C  C332  1  0.90170000  0.70450000  0.12050000  1.0 -0.1364614876
C  C333  1  0.29550000  0.09830000  0.87950000  1.0 -0.1364614876
C  C334  1  0.79550000  0.40170000  0.62050000  1.0 -0.1364614876
C  C335  1  0.20450000  0.59830000  0.62050000  1.0 -0.1307628625
C  C336  1  0.09830000  0.29550000  0.12050000  1.0 -0.1364614876
C  C337  1  0.31240000  0.13910000  0.12680000  1.0 0.0597097092
C  C338  1  0.36090000  0.81240000  0.62680000  1.0 0.0597097092
C  C339  1  0.63910000  0.18760000  0.62680000  1.0 0.0597097092
C  C340  1  0.13910000  0.31240000  0.87320000  1.0 0.0597097092
C  C341  1  0.68760000  0.86090000  0.12680000  1.0 0.0684193141
C  C342  1  0.18760000  0.63910000  0.37320000  1.0 0.0597097092
C  C343  1  0.81240000  0.36090000  0.37320000  1.0 0.0684193141
C  C344  1  0.86090000  0.68760000  0.87320000  1.0 0.0597097092
C  C345  1  0.68760000  0.86090000  0.87320000  1.0 0.0597097092
C  C346  1  0.63910000  0.18760000  0.37320000  1.0 0.0597097092
C  C347  1  0.36090000  0.81240000  0.37320000  1.0 0.0684193141
C  C348  1  0.86090000  0.68760000  0.12680000  1.0 0.0684193141
C  C349  1  0.31240000  0.13910000  0.87320000  1.0 0.0597097092
C  C350  1  0.81240000  0.36090000  0.62680000  1.0 0.0597097092
C  C351  1  0.18760000  0.63910000  0.62680000  1.0 0.0597097092
C  C352  1  0.13910000  0.31240000  0.12680000  1.0 0.0597097092
C  C353  1  0.28570000  0.03140000  0.07740000  1.0 0.1254212963
C  C354  1  0.46860000  0.78570000  0.57740000  1.0 0.1254212963
C  C355  1  0.53140000  0.21430000  0.57740000  1.0 0.1254212963
C  C356  1  0.03140000  0.28570000  0.92260000  1.0 0.1185411369
C  C357  1  0.71430000  0.96860000  0.07740000  1.0 0.1254212963
C  C358  1  0.21430000  0.53140000  0.42260000  1.0 0.1254212963
C  C359  1  0.78570000  0.46860000  0.42260000  1.0 0.1254212963
C  C360  1  0.96860000  0.71430000  0.92260000  1.0 0.1254212963
C  C361  1  0.71430000  0.96860000  0.92260000  1.0 0.1254212963
C  C362  1  0.53140000  0.21430000  0.42260000  1.0 0.1254212963
C  C363  1  0.46860000  0.78570000  0.42260000  1.0 0.1254212963
C  C364  1  0.96860000  0.71430000  0.07740000  1.0 0.1254212963
C  C365  1  0.28570000  0.03140000  0.92260000  1.0 0.1185411369
C  C366  1  0.78570000  0.46860000  0.57740000  1.0 0.1254212963
C  C367  1  0.21430000  0.53140000  0.57740000  1.0 0.1254212963
C  C368  1  0.03140000  0.28570000  0.07740000  1.0 0.1254212963
C  C369  1  0.22350000  0.22350000  0.21560000  1.0 0.1185411369
C  C370  1  0.27650000  0.72350000  0.71560000  1.0 0.1185411369
C  C371  1  0.72350000  0.27650000  0.71560000  1.0 0.1185411369
C  C372  1  0.22350000  0.22350000  0.78440000  1.0 0.1185411369
C  C373  1  0.77650000  0.77650000  0.21560000  1.0 0.1185411369
C  C374  1  0.27650000  0.72350000  0.28440000  1.0 0.1185411369
C  C375  1  0.72350000  0.27650000  0.28440000  1.0 0.1185411369
C  C376  1  0.77650000  0.77650000  0.78440000  1.0 0.1185411369
C  C377  1  0.21770000  0.18180000  0.27290000  1.0 0.1688064637
C  C378  1  0.31820000  0.71770000  0.77290000  1.0 0.1688064637
C  C379  1  0.68180000  0.28230000  0.77290000  1.0 0.1688064637
C  C380  1  0.18180000  0.21770000  0.72710000  1.0 0.1688064637
C  C381  1  0.78230000  0.81820000  0.27290000  1.0 0.1688064637
C  C382  1  0.28230000  0.68180000  0.22710000  1.0 0.1688064637
C  C383  1  0.71770000  0.31820000  0.22710000  1.0 0.1688064637
C  C384  1  0.81820000  0.78230000  0.72710000  1.0 0.1688064637
C  C385  1  0.78230000  0.81820000  0.72710000  1.0 0.1688064637
C  C386  1  0.68180000  0.28230000  0.22710000  1.0 0.1688064637
C  C387  1  0.31820000  0.71770000  0.22710000  1.0 0.1688064637
C  C388  1  0.81820000  0.78230000  0.27290000  1.0 0.1688064637
C  C389  1  0.21770000  0.18180000  0.72710000  1.0 0.1688064637
C  C390  1  0.71770000  0.31820000  0.77290000  1.0 0.1688064637
C  C391  1  0.28230000  0.68180000  0.77290000  1.0 0.1688064637
C  C392  1  0.18180000  0.21770000  0.27290000  1.0 0.1688064637
C  C393  1  0.22310000  0.15730000  0.30580000  1.0 -0.2079693199
C  C394  1  0.34270000  0.72310000  0.80580000  1.0 -0.2079693199
C  C395  1  0.65730000  0.27690000  0.80580000  1.0 -0.2079693199
C  C396  1  0.15730000  0.22310000  0.69420000  1.0 -0.2079693199
C  C397  1  0.77690000  0.84270000  0.30580000  1.0 -0.2079693199
C  C398  1  0.27690000  0.65730000  0.19420000  1.0 -0.2079693199
C  C399  1  0.72310000  0.34270000  0.19420000  1.0 -0.2079693199
C  C400  1  0.84270000  0.77690000  0.69420000  1.0 -0.2079693199
C  C401  1  0.77690000  0.84270000  0.69420000  1.0 -0.2079693199
C  C402  1  0.65730000  0.27690000  0.19420000  1.0 -0.2079693199
C  C403  1  0.34270000  0.72310000  0.19420000  1.0 -0.2079693199
C  C404  1  0.84270000  0.77690000  0.30580000  1.0 -0.2079693199
C  C405  1  0.22310000  0.15730000  0.69420000  1.0 -0.2079693199
C  C406  1  0.72310000  0.34270000  0.80580000  1.0 -0.2079693199
C  C407  1  0.27690000  0.65730000  0.80580000  1.0 -0.2079693199
C  C408  1  0.15730000  0.22310000  0.30580000  1.0 -0.2079693199
C  C409  1  0.19810000  0.16410000  0.33630000  1.0 0.0597097092
C  C410  1  0.33590000  0.69810000  0.83630000  1.0 0.0597097092
C  C411  1  0.66410000  0.30190000  0.83630000  1.0 0.0597097092
C  C412  1  0.16410000  0.19810000  0.66370000  1.0 0.0597097092
C  C413  1  0.80190000  0.83590000  0.33630000  1.0 0.0597097092
C  C414  1  0.30190000  0.66410000  0.16370000  1.0 0.0597097092
C  C415  1  0.69810000  0.33590000  0.16370000  1.0 0.0597097092
C  C416  1  0.83590000  0.80190000  0.66370000  1.0 0.0597097092
C  C417  1  0.80190000  0.83590000  0.66370000  1.0 0.0597097092
C  C418  1  0.66410000  0.30190000  0.16370000  1.0 0.0597097092
C  C419  1  0.33590000  0.69810000  0.16370000  1.0 0.0597097092
C  C420  1  0.83590000  0.80190000  0.33630000  1.0 0.0597097092
C  C421  1  0.19810000  0.16410000  0.66370000  1.0 0.0597097092
C  C422  1  0.69810000  0.33590000  0.83630000  1.0 0.0597097092
C  C423  1  0.30190000  0.66410000  0.83630000  1.0 0.0597097092
C  C424  1  0.16410000  0.19810000  0.33630000  1.0 0.0597097092
C  C425  1  0.20480000  0.13760000  0.37200000  1.0 0.0796599887
C  C426  1  0.36240000  0.70480000  0.87200000  1.0 0.0796599887
C  C427  1  0.63760000  0.29520000  0.87200000  1.0 0.0796599887
C  C428  1  0.13760000  0.20480000  0.62800000  1.0 0.0796599887
C  C429  1  0.79520000  0.86240000  0.37200000  1.0 0.0796599887
C  C430  1  0.29520000  0.63760000  0.12800000  1.0 0.0796599887
C  C431  1  0.70480000  0.36240000  0.12800000  1.0 0.0796599887
C  C432  1  0.86240000  0.79520000  0.62800000  1.0 0.0796599887
C  C433  1  0.79520000  0.86240000  0.62800000  1.0 0.0796599887
C  C434  1  0.63760000  0.29520000  0.12800000  1.0 0.0796599887
C  C435  1  0.36240000  0.70480000  0.12800000  1.0 0.0796599887
C  C436  1  0.86240000  0.79520000  0.37200000  1.0 0.0796599887
C  C437  1  0.20480000  0.13760000  0.62800000  1.0 0.0796599887
C  C438  1  0.70480000  0.36240000  0.87200000  1.0 0.0796599887
C  C439  1  0.29520000  0.63760000  0.87200000  1.0 0.0796599887
C  C440  1  0.13760000  0.20480000  0.37200000  1.0 0.0796599887
C  C441  1  0.38160000  0.23860000  0.00000000  1.0 0.1816443711
C  C442  1  0.26140000  0.88160000  0.50000000  1.0 0.1688064637
C  C443  1  0.73860000  0.11840000  0.50000000  1.0 0.1816443711
C  C444  1  0.23860000  0.38160000  0.00000000  1.0 0.1816443711
C  C445  1  0.61840000  0.76140000  0.00000000  1.0 0.1816443711
C  C446  1  0.11840000  0.73860000  0.50000000  1.0 0.1688064637
C  C447  1  0.88160000  0.26140000  0.50000000  1.0 0.1816443711
C  C448  1  0.76140000  0.61840000  0.00000000  1.0 0.1816443711
C  C449  1  0.44000000  0.20780000  0.02350000  1.0 0.0998789038
C  C450  1  0.29220000  0.94000000  0.52350000  1.0 0.0998789038
C  C451  1  0.70780000  0.06000000  0.52350000  1.0 0.0998789038
C  C452  1  0.20780000  0.44000000  0.97650000  1.0 0.0998789038
C  C453  1  0.56000000  0.79220000  0.02350000  1.0 0.0998789038
C  C454  1  0.06000000  0.70780000  0.47650000  1.0 0.0998789038
C  C455  1  0.94000000  0.29220000  0.47650000  1.0 0.0998789038
C  C456  1  0.79220000  0.56000000  0.97650000  1.0 0.0998789038
C  C457  1  0.56000000  0.79220000  0.97650000  1.0 0.0998789038
C  C458  1  0.70780000  0.06000000  0.47650000  1.0 0.0998789038
C  C459  1  0.29220000  0.94000000  0.47650000  1.0 0.0998789038
C  C460  1  0.79220000  0.56000000  0.02350000  1.0 0.0998789038
C  C461  1  0.44000000  0.20780000  0.97650000  1.0 0.0998789038
C  C462  1  0.94000000  0.29220000  0.52350000  1.0 0.0998789038
C  C463  1  0.06000000  0.70780000  0.52350000  1.0 0.0998789038
C  C464  1  0.20780000  0.44000000  0.02350000  1.0 0.0998789038
C  C465  1  0.47200000  0.19060000  0.04100000  1.0 -0.0888382207
C  C466  1  0.30940000  0.97200000  0.54100000  1.0 -0.0888382207
C  C467  1  0.69060000  0.02800000  0.54100000  1.0 -0.0888382207
C  C468  1  0.19060000  0.47200000  0.95900000  1.0 -0.0888382207
C  C469  1  0.52800000  0.80940000  0.04100000  1.0 -0.0888382207
C  C470  1  0.02800000  0.69060000  0.45900000  1.0 -0.0888382207
C  C471  1  0.97200000  0.30940000  0.45900000  1.0 -0.0888382207
C  C472  1  0.80940000  0.52800000  0.95900000  1.0 -0.0888382207
C  C473  1  0.52800000  0.80940000  0.95900000  1.0 -0.0888382207
C  C474  1  0.69060000  0.02800000  0.45900000  1.0 -0.0888382207
C  C475  1  0.30940000  0.97200000  0.45900000  1.0 -0.0888382207
C  C476  1  0.80940000  0.52800000  0.04100000  1.0 -0.0888382207
C  C477  1  0.47200000  0.19060000  0.95900000  1.0 -0.0888382207
C  C478  1  0.97200000  0.30940000  0.54100000  1.0 -0.0888382207
C  C479  1  0.02800000  0.69060000  0.54100000  1.0 -0.0888382207
C  C480  1  0.19060000  0.47200000  0.04100000  1.0 -0.0888382207
C  C481  1  0.50050000  0.16800000  0.02200000  1.0 0.0312235487
C  C482  1  0.33200000  0.00050000  0.52200000  1.0 0.0312235487
C  C483  1  0.66800000  0.99950000  0.52200000  1.0 0.0312235487
C  C484  1  0.16800000  0.50050000  0.97800000  1.0 0.0312235487
C  C485  1  0.49950000  0.83200000  0.02200000  1.0 0.0312235487
C  C486  1  0.99950000  0.66800000  0.47800000  1.0 0.0312235487
C  C487  1  0.00050000  0.33200000  0.47800000  1.0 0.0312235487
C  C488  1  0.83200000  0.49950000  0.97800000  1.0 0.0312235487
C  C489  1  0.49950000  0.83200000  0.97800000  1.0 0.0312235487
C  C490  1  0.66800000  0.99950000  0.47800000  1.0 0.0312235487
C  C491  1  0.33200000  0.00050000  0.47800000  1.0 0.0312235487
C  C492  1  0.83200000  0.49950000  0.02200000  1.0 0.0312235487
C  C493  1  0.50050000  0.16800000  0.97800000  1.0 0.0312235487
C  C494  1  0.00050000  0.33200000  0.52200000  1.0 0.0312235487
C  C495  1  0.99950000  0.66800000  0.52200000  1.0 0.0312235487
C  C496  1  0.16800000  0.50050000  0.02200000  1.0 0.0312235487
C  C497  1  0.53700000  0.14590000  0.04330000  1.0 0.0405108803
C  C498  1  0.35410000  0.03700000  0.54330000  1.0 0.0405108803
C  C499  1  0.64590000  0.96300000  0.54330000  1.0 0.0405108803
C  C500  1  0.14590000  0.53700000  0.95670000  1.0 0.0405108803
C  C501  1  0.46300000  0.85410000  0.04330000  1.0 0.0405108803
C  C502  1  0.96300000  0.64590000  0.45670000  1.0 0.0405108803
C  C503  1  0.03700000  0.35410000  0.45670000  1.0 0.0405108803
C  C504  1  0.85410000  0.46300000  0.95670000  1.0 0.0405108803
C  C505  1  0.46300000  0.85410000  0.95670000  1.0 0.0405108803
C  C506  1  0.64590000  0.96300000  0.45670000  1.0 0.0405108803
C  C507  1  0.35410000  0.03700000  0.45670000  1.0 0.0405108803
C  C508  1  0.85410000  0.46300000  0.04330000  1.0 0.0405108803
C  C509  1  0.53700000  0.14590000  0.95670000  1.0 0.0405108803
C  C510  1  0.03700000  0.35410000  0.54330000  1.0 0.0405108803
C  C511  1  0.96300000  0.64590000  0.54330000  1.0 0.0405108803
C  C512  1  0.14590000  0.53700000  0.04330000  1.0 0.0405108803
C  C513  1  0.48510000  0.08740000  0.23150000  1.0 0.2265475787
C  C514  1  0.41260000  0.98510000  0.73150000  1.0 0.2175993146
C  C515  1  0.58740000  0.01490000  0.73150000  1.0 0.2265475787
C  C516  1  0.08740000  0.48510000  0.76850000  1.0 0.2265475787
C  C517  1  0.51490000  0.91260000  0.23150000  1.0 0.2175993146
C  C518  1  0.01490000  0.58740000  0.26850000  1.0 0.2265475787
C  C519  1  0.98510000  0.41260000  0.26850000  1.0 0.2175993146
C  C520  1  0.91260000  0.51490000  0.76850000  1.0 0.2265475787
C  C521  1  0.51490000  0.91260000  0.76850000  1.0 0.2175993146
C  C522  1  0.58740000  0.01490000  0.26850000  1.0 0.2265475787
C  C523  1  0.41260000  0.98510000  0.26850000  1.0 0.2175993146
C  C524  1  0.91260000  0.51490000  0.23150000  1.0 0.2265475787
C  C525  1  0.48510000  0.08740000  0.76850000  1.0 0.2265475787
C  C526  1  0.98510000  0.41260000  0.73150000  1.0 0.2175993146
C  C527  1  0.01490000  0.58740000  0.73150000  1.0 0.2265475787
C  C528  1  0.08740000  0.48510000  0.23150000  1.0 0.2265475787
C  C529  1  0.53020000  0.11330000  0.18880000  1.0 0.1419344937
C  C530  1  0.38670000  0.03020000  0.68880000  1.0 0.1419344937
C  C531  1  0.61330000  0.96980000  0.68880000  1.0 0.1419344937
C  C532  1  0.11330000  0.53020000  0.81120000  1.0 0.1419344937
C  C533  1  0.46980000  0.88670000  0.18880000  1.0 0.1419344937
C  C534  1  0.96980000  0.61330000  0.31120000  1.0 0.1419344937
C  C535  1  0.03020000  0.38670000  0.31120000  1.0 0.1419344937
C  C536  1  0.88670000  0.46980000  0.81120000  1.0 0.1419344937
C  C537  1  0.46980000  0.88670000  0.81120000  1.0 0.1419344937
C  C538  1  0.61330000  0.96980000  0.31120000  1.0 0.1419344937
C  C539  1  0.38670000  0.03020000  0.31120000  1.0 0.1419344937
C  C540  1  0.88670000  0.46980000  0.18880000  1.0 0.1419344937
C  C541  1  0.53020000  0.11330000  0.81120000  1.0 0.1419344937
C  C542  1  0.03020000  0.38670000  0.68880000  1.0 0.1419344937
C  C543  1  0.96980000  0.61330000  0.68880000  1.0 0.1419344937
C  C544  1  0.11330000  0.53020000  0.18880000  1.0 0.1419344937
C  C545  1  0.55630000  0.13530000  0.16240000  1.0 -0.1966951395
C  C546  1  0.36470000  0.05630000  0.66240000  1.0 -0.1966951395
C  C547  1  0.63530000  0.94370000  0.66240000  1.0 -0.1966951395
C  C548  1  0.13530000  0.55630000  0.83760000  1.0 -0.1966951395
C  C549  1  0.44370000  0.86470000  0.16240000  1.0 -0.1966951395
C  C550  1  0.94370000  0.63530000  0.33760000  1.0 -0.1966951395
C  C551  1  0.05630000  0.36470000  0.33760000  1.0 -0.1966951395
C  C552  1  0.86470000  0.44370000  0.83760000  1.0 -0.1966951395
C  C553  1  0.44370000  0.86470000  0.83760000  1.0 -0.1966951395
C  C554  1  0.63530000  0.94370000  0.33760000  1.0 -0.1966951395
C  C555  1  0.36470000  0.05630000  0.33760000  1.0 -0.1966951395
C  C556  1  0.86470000  0.44370000  0.16240000  1.0 -0.1966951395
C  C557  1  0.55630000  0.13530000  0.83760000  1.0 -0.1966951395
C  C558  1  0.05630000  0.36470000  0.66240000  1.0 -0.1966951395
C  C559  1  0.94370000  0.63530000  0.66240000  1.0 -0.1966951395
C  C560  1  0.13530000  0.55630000  0.16240000  1.0 -0.1966951395
C  C561  1  0.58570000  0.11330000  0.14200000  1.0 0.0597097092
C  C562  1  0.38670000  0.08570000  0.64200000  1.0 0.0597097092
C  C563  1  0.61330000  0.91430000  0.64200000  1.0 0.0597097092
C  C564  1  0.11330000  0.58570000  0.85800000  1.0 0.0597097092
C  C565  1  0.41430000  0.88670000  0.14200000  1.0 0.0597097092
C  C566  1  0.91430000  0.61330000  0.35800000  1.0 0.0597097092
C  C567  1  0.08570000  0.38670000  0.35800000  1.0 0.0597097092
C  C568  1  0.88670000  0.41430000  0.85800000  1.0 0.0597097092
C  C569  1  0.41430000  0.88670000  0.85800000  1.0 0.0597097092
C  C570  1  0.61330000  0.91430000  0.35800000  1.0 0.0597097092
C  C571  1  0.38670000  0.08570000  0.35800000  1.0 0.0597097092
C  C572  1  0.88670000  0.41430000  0.14200000  1.0 0.0597097092
C  C573  1  0.58570000  0.11330000  0.85800000  1.0 0.0597097092
C  C574  1  0.08570000  0.38670000  0.64200000  1.0 0.0597097092
C  C575  1  0.91430000  0.61330000  0.64200000  1.0 0.0597097092
C  C576  1  0.11330000  0.58570000  0.14200000  1.0 0.0597097092
C  C577  1  0.59000000  0.06600000  0.14420000  1.0 0.0998789038
C  C578  1  0.43400000  0.09000000  0.64420000  1.0 0.0998789038
C  C579  1  0.56600000  0.91000000  0.64420000  1.0 0.0998789038
C  C580  1  0.06600000  0.59000000  0.85580000  1.0 0.0998789038
C  C581  1  0.41000000  0.93400000  0.14420000  1.0 0.0998789038
C  C582  1  0.91000000  0.56600000  0.35580000  1.0 0.0998789038
C  C583  1  0.09000000  0.43400000  0.35580000  1.0 0.0998789038
C  C584  1  0.93400000  0.41000000  0.85580000  1.0 0.0998789038
C  C585  1  0.41000000  0.93400000  0.85580000  1.0 0.0998789038
C  C586  1  0.56600000  0.91000000  0.35580000  1.0 0.0998789038
C  C587  1  0.43400000  0.09000000  0.35580000  1.0 0.0998789038
C  C588  1  0.93400000  0.41000000  0.14420000  1.0 0.0998789038
C  C589  1  0.59000000  0.06600000  0.85580000  1.0 0.0998789038
C  C590  1  0.09000000  0.43400000  0.64420000  1.0 0.0998789038
C  C591  1  0.91000000  0.56600000  0.64420000  1.0 0.0998789038
C  C592  1  0.06600000  0.59000000  0.14420000  1.0 0.0998789038
C  C593  1  0.55920000  0.04610000  0.17420000  1.0 -0.1799157016
C  C594  1  0.45390000  0.05920000  0.67420000  1.0 -0.1799157016
C  C595  1  0.54610000  0.94080000  0.67420000  1.0 -0.1799157016
C  C596  1  0.04610000  0.55920000  0.82580000  1.0 -0.1799157016
C  C597  1  0.44080000  0.95390000  0.17420000  1.0 -0.1799157016
C  C598  1  0.94080000  0.54610000  0.32580000  1.0 -0.1799157016
C  C599  1  0.05920000  0.45390000  0.32580000  1.0 -0.1799157016
C  C600  1  0.95390000  0.44080000  0.82580000  1.0 -0.1799157016
C  C601  1  0.44080000  0.95390000  0.82580000  1.0 -0.1799157016
C  C602  1  0.54610000  0.94080000  0.32580000  1.0 -0.1799157016
C  C603  1  0.45390000  0.05920000  0.32580000  1.0 -0.1799157016
C  C604  1  0.95390000  0.44080000  0.17420000  1.0 -0.1799157016
C  C605  1  0.55920000  0.04610000  0.82580000  1.0 -0.1799157016
C  C606  1  0.05920000  0.45390000  0.67420000  1.0 -0.1799157016
C  C607  1  0.94080000  0.54610000  0.67420000  1.0 -0.1799157016
C  C608  1  0.04610000  0.55920000  0.17420000  1.0 -0.1799157016
C  C609  1  0.53180000  0.06690000  0.19370000  1.0 0.1107682638
C  C610  1  0.43310000  0.03180000  0.69370000  1.0 0.0998789038
C  C611  1  0.56690000  0.96820000  0.69370000  1.0 0.0998789038
C  C612  1  0.06690000  0.53180000  0.80630000  1.0 0.0998789038
C  C613  1  0.46820000  0.93310000  0.19370000  1.0 0.0998789038
C  C614  1  0.96820000  0.56690000  0.30630000  1.0 0.0998789038
C  C615  1  0.03180000  0.43310000  0.30630000  1.0 0.0998789038
C  C616  1  0.93310000  0.46820000  0.80630000  1.0 0.0998789038
C  C617  1  0.46820000  0.93310000  0.80630000  1.0 0.0998789038
C  C618  1  0.56690000  0.96820000  0.30630000  1.0 0.0998789038
C  C619  1  0.43310000  0.03180000  0.30630000  1.0 0.0998789038
C  C620  1  0.93310000  0.46820000  0.19370000  1.0 0.0998789038
C  C621  1  0.53180000  0.06690000  0.80630000  1.0 0.0998789038
C  C622  1  0.03180000  0.43310000  0.69370000  1.0 0.0998789038
C  C623  1  0.96820000  0.56690000  0.69370000  1.0 0.0998789038
C  C624  1  0.06690000  0.53180000  0.19370000  1.0 0.1107682638
C  C625  1  0.62100000  0.13710000  0.11070000  1.0 0.0998789038
C  C626  1  0.36290000  0.12100000  0.61070000  1.0 0.0998789038
C  C627  1  0.63710000  0.87900000  0.61070000  1.0 0.0998789038
C  C628  1  0.13710000  0.62100000  0.88930000  1.0 0.0998789038
C  C629  1  0.37900000  0.86290000  0.11070000  1.0 0.0998789038
C  C630  1  0.87900000  0.63710000  0.38930000  1.0 0.0998789038
C  C631  1  0.12100000  0.36290000  0.38930000  1.0 0.0998789038
C  C632  1  0.86290000  0.37900000  0.88930000  1.0 0.0998789038
C  C633  1  0.37900000  0.86290000  0.88930000  1.0 0.0998789038
C  C634  1  0.63710000  0.87900000  0.38930000  1.0 0.0998789038
C  C635  1  0.36290000  0.12100000  0.38930000  1.0 0.0998789038
C  C636  1  0.86290000  0.37900000  0.11070000  1.0 0.0998789038
C  C637  1  0.62100000  0.13710000  0.88930000  1.0 0.0998789038
C  C638  1  0.12100000  0.36290000  0.61070000  1.0 0.0998789038
C  C639  1  0.87900000  0.63710000  0.61070000  1.0 0.0998789038
C  C640  1  0.13710000  0.62100000  0.11070000  1.0 0.0998789038
C  C641  1  0.62360000  0.04100000  0.11980000  1.0 -0.0084978192
C  C642  1  0.45900000  0.12360000  0.61980000  1.0 -0.0084978192
C  C643  1  0.54100000  0.87640000  0.61980000  1.0 -0.0084978192
C  C644  1  0.04100000  0.62360000  0.88020000  1.0 -0.0084978192
C  C645  1  0.37640000  0.95900000  0.11980000  1.0 -0.0084978192
C  C646  1  0.87640000  0.54100000  0.38020000  1.0 -0.0084978192
C  C647  1  0.12360000  0.45900000  0.38020000  1.0 -0.0084978192
C  C648  1  0.95900000  0.37640000  0.88020000  1.0 -0.0084978192
C  C649  1  0.37640000  0.95900000  0.88020000  1.0 -0.0084978192
C  C650  1  0.54100000  0.87640000  0.38020000  1.0 -0.0084978192
C  C651  1  0.45900000  0.12360000  0.38020000  1.0 -0.0084978192
C  C652  1  0.95900000  0.37640000  0.11980000  1.0 -0.0084978192
C  C653  1  0.62360000  0.04100000  0.88020000  1.0 -0.0084978192
C  C654  1  0.12360000  0.45900000  0.61980000  1.0 -0.0084978192
C  C655  1  0.87640000  0.54100000  0.61980000  1.0 -0.0084978192
C  C656  1  0.04100000  0.62360000  0.11980000  1.0 -0.0084978192
C  C657  1  0.33170000  0.33170000  0.08650000  1.0 0.1688064637
C  C658  1  0.16830000  0.83170000  0.58650000  1.0 0.1688064637
C  C659  1  0.83170000  0.16830000  0.58650000  1.0 0.1688064637
C  C660  1  0.33170000  0.33170000  0.91350000  1.0 0.1688064637
C  C661  1  0.66830000  0.66830000  0.08650000  1.0 0.1688064637
C  C662  1  0.16830000  0.83170000  0.41350000  1.0 0.1688064637
C  C663  1  0.83170000  0.16830000  0.41350000  1.0 0.1688064637
C  C664  1  0.66830000  0.66830000  0.91350000  1.0 0.1688064637
C  C665  1  0.35240000  0.31940000  0.14610000  1.0 -0.0189603207
C  C666  1  0.18060000  0.85240000  0.64610000  1.0 -0.027505746
C  C667  1  0.81940000  0.14760000  0.64610000  1.0 -0.027505746
C  C668  1  0.31940000  0.35240000  0.85390000  1.0 -0.027505746
C  C669  1  0.64760000  0.68060000  0.14610000  1.0 -0.027505746
C  C670  1  0.14760000  0.81940000  0.35390000  1.0 -0.0189603207
C  C671  1  0.85240000  0.18060000  0.35390000  1.0 -0.027505746
C  C672  1  0.68060000  0.64760000  0.85390000  1.0 -0.027505746
C  C673  1  0.64760000  0.68060000  0.85390000  1.0 -0.027505746
C  C674  1  0.81940000  0.14760000  0.35390000  1.0 -0.0189603207
C  C675  1  0.18060000  0.85240000  0.35390000  1.0 -0.027505746
C  C676  1  0.68060000  0.64760000  0.14610000  1.0 -0.027505746
C  C677  1  0.35240000  0.31940000  0.85390000  1.0 -0.027505746
C  C678  1  0.85240000  0.18060000  0.64610000  1.0 -0.027505746
C  C679  1  0.14760000  0.81940000  0.64610000  1.0 -0.027505746
C  C680  1  0.31940000  0.35240000  0.14610000  1.0 -0.0189603207
C  C681  1  0.37170000  0.31170000  0.18640000  1.0 -0.0703441512
C  C682  1  0.18830000  0.87170000  0.68640000  1.0 -0.0703441512
C  C683  1  0.81170000  0.12830000  0.68640000  1.0 -0.0703441512
C  C684  1  0.31170000  0.37170000  0.81360000  1.0 -0.0703441512
C  C685  1  0.62830000  0.68830000  0.18640000  1.0 -0.0703441512
C  C686  1  0.12830000  0.81170000  0.31360000  1.0 -0.0703441512
C  C687  1  0.87170000  0.18830000  0.31360000  1.0 -0.0703441512
C  C688  1  0.68830000  0.62830000  0.81360000  1.0 -0.0703441512
C  C689  1  0.62830000  0.68830000  0.81360000  1.0 -0.0703441512
C  C690  1  0.81170000  0.12830000  0.31360000  1.0 -0.0703441512
C  C691  1  0.18830000  0.87170000  0.31360000  1.0 -0.0703441512
C  C692  1  0.68830000  0.62830000  0.18640000  1.0 -0.0703441512
C  C693  1  0.37170000  0.31170000  0.81360000  1.0 -0.0703441512
C  C694  1  0.87170000  0.18830000  0.68640000  1.0 -0.0703441512
C  C695  1  0.12830000  0.81170000  0.68640000  1.0 -0.0703441512
C  C696  1  0.31170000  0.37170000  0.18640000  1.0 -0.0703441512
C  C697  1  0.35440000  0.31370000  0.21820000  1.0 -0.0084978192
C  C698  1  0.18630000  0.85440000  0.71820000  1.0 -0.0084978192
C  C699  1  0.81370000  0.14560000  0.71820000  1.0 -0.0084978192
C  C700  1  0.31370000  0.35440000  0.78180000  1.0 -0.0084978192
C  C701  1  0.64560000  0.68630000  0.21820000  1.0 -0.0084978192
C  C702  1  0.14560000  0.81370000  0.28180000  1.0 -0.0084978192
C  C703  1  0.85440000  0.18630000  0.28180000  1.0 -0.0084978192
C  C704  1  0.68630000  0.64560000  0.78180000  1.0 -0.0084978192
C  C705  1  0.64560000  0.68630000  0.78180000  1.0 -0.0084978192
C  C706  1  0.81370000  0.14560000  0.28180000  1.0 -0.0084978192
C  C707  1  0.18630000  0.85440000  0.28180000  1.0 -0.0084978192
C  C708  1  0.68630000  0.64560000  0.21820000  1.0 -0.0084978192
C  C709  1  0.35440000  0.31370000  0.78180000  1.0 -0.0084978192
C  C710  1  0.85440000  0.18630000  0.71820000  1.0 -0.0084978192
C  C711  1  0.14560000  0.81370000  0.71820000  1.0 -0.0084978192
C  C712  1  0.31370000  0.35440000  0.21820000  1.0 -0.0084978192
C  C713  1  0.37350000  0.30540000  0.25600000  1.0 0.0796599887
C  C714  1  0.19460000  0.87350000  0.75600000  1.0 0.0796599887
C  C715  1  0.80540000  0.12650000  0.75600000  1.0 0.0796599887
C  C716  1  0.30540000  0.37350000  0.74400000  1.0 0.0796599887
C  C717  1  0.62650000  0.69460000  0.25600000  1.0 0.0796599887
C  C718  1  0.12650000  0.80540000  0.24400000  1.0 0.0796599887
C  C719  1  0.87350000  0.19460000  0.24400000  1.0 0.0796599887
C  C720  1  0.69460000  0.62650000  0.74400000  1.0 0.0796599887
C  C721  1  0.62650000  0.69460000  0.74400000  1.0 0.0796599887
C  C722  1  0.80540000  0.12650000  0.24400000  1.0 0.0796599887
C  C723  1  0.19460000  0.87350000  0.24400000  1.0 0.0796599887
C  C724  1  0.69460000  0.62650000  0.25600000  1.0 0.0796599887
C  C725  1  0.37350000  0.30540000  0.74400000  1.0 0.0796599887
C  C726  1  0.87350000  0.19460000  0.75600000  1.0 0.0796599887
C  C727  1  0.12650000  0.80540000  0.75600000  1.0 0.0796599887
C  C728  1  0.30540000  0.37350000  0.25600000  1.0 0.0796599887
C  C729  1  0.56620000  0.19470000  0.25950000  1.0 0.0998789038
C  C730  1  0.30530000  0.06620000  0.75950000  1.0 0.0998789038
C  C731  1  0.69470000  0.93380000  0.75950000  1.0 0.0998789038
C  C732  1  0.19470000  0.56620000  0.74050000  1.0 0.0998789038
C  C733  1  0.43380000  0.80530000  0.25950000  1.0 0.0998789038
C  C734  1  0.93380000  0.69470000  0.24050000  1.0 0.0998789038
C  C735  1  0.06620000  0.30530000  0.24050000  1.0 0.0998789038
C  C736  1  0.80530000  0.43380000  0.74050000  1.0 0.0998789038
C  C737  1  0.43380000  0.80530000  0.74050000  1.0 0.0998789038
C  C738  1  0.69470000  0.93380000  0.24050000  1.0 0.0998789038
C  C739  1  0.30530000  0.06620000  0.24050000  1.0 0.0998789038
C  C740  1  0.80530000  0.43380000  0.25950000  1.0 0.0998789038
C  C741  1  0.56620000  0.19470000  0.74050000  1.0 0.0998789038
C  C742  1  0.06620000  0.30530000  0.75950000  1.0 0.0998789038
C  C743  1  0.93380000  0.69470000  0.75950000  1.0 0.0998789038
C  C744  1  0.19470000  0.56620000  0.25950000  1.0 0.0998789038
C  C745  1  0.52730000  0.25080000  0.27400000  1.0 0.1107682638
C  C746  1  0.24920000  0.02730000  0.77400000  1.0 0.1107682638
C  C747  1  0.75080000  0.97270000  0.77400000  1.0 0.1107682638
C  C748  1  0.25080000  0.52730000  0.72600000  1.0 0.1107682638
C  C749  1  0.47270000  0.74920000  0.27400000  1.0 0.1107682638
C  C750  1  0.97270000  0.75080000  0.22600000  1.0 0.1107682638
C  C751  1  0.02730000  0.24920000  0.22600000  1.0 0.1107682638
C  C752  1  0.74920000  0.47270000  0.72600000  1.0 0.1107682638
C  C753  1  0.47270000  0.74920000  0.72600000  1.0 0.1107682638
C  C754  1  0.75080000  0.97270000  0.22600000  1.0 0.1107682638
C  C755  1  0.24920000  0.02730000  0.22600000  1.0 0.1107682638
C  C756  1  0.74920000  0.47270000  0.27400000  1.0 0.1107682638
C  C757  1  0.52730000  0.25080000  0.72600000  1.0 0.1107682638
C  C758  1  0.02730000  0.24920000  0.77400000  1.0 0.1107682638
C  C759  1  0.97270000  0.75080000  0.77400000  1.0 0.1107682638
C  C760  1  0.25080000  0.52730000  0.27400000  1.0 0.1107682638
C  C761  1  0.57000000  0.25460000  0.28660000  1.0 0.1107682638
C  C762  1  0.24540000  0.07000000  0.78660000  1.0 0.1107682638
C  C763  1  0.75460000  0.93000000  0.78660000  1.0 0.1107682638
C  C764  1  0.25460000  0.57000000  0.71340000  1.0 0.1107682638
C  C765  1  0.43000000  0.74540000  0.28660000  1.0 0.1107682638
C  C766  1  0.93000000  0.75460000  0.21340000  1.0 0.1107682638
C  C767  1  0.07000000  0.24540000  0.21340000  1.0 0.1107682638
C  C768  1  0.74540000  0.43000000  0.71340000  1.0 0.1107682638
C  C769  1  0.43000000  0.74540000  0.71340000  1.0 0.1107682638
C  C770  1  0.75460000  0.93000000  0.21340000  1.0 0.1107682638
C  C771  1  0.24540000  0.07000000  0.21340000  1.0 0.1107682638
C  C772  1  0.74540000  0.43000000  0.28660000  1.0 0.1107682638
C  C773  1  0.57000000  0.25460000  0.71340000  1.0 0.1107682638
C  C774  1  0.07000000  0.24540000  0.78660000  1.0 0.1107682638
C  C775  1  0.93000000  0.75460000  0.78660000  1.0 0.1107682638
C  C776  1  0.25460000  0.57000000  0.28660000  1.0 0.1107682638
C  C777  1  0.58700000  0.29520000  0.29520000  1.0 -0.0625415242
C  C778  1  0.20480000  0.08700000  0.79520000  1.0 -0.0625415242
C  C779  1  0.79520000  0.91300000  0.79520000  1.0 -0.0625415242
C  C780  1  0.29520000  0.58700000  0.70480000  1.0 -0.0625415242
C  C781  1  0.41300000  0.70480000  0.29520000  1.0 -0.0625415242
C  C782  1  0.91300000  0.79520000  0.20480000  1.0 -0.0625415242
C  C783  1  0.08700000  0.20480000  0.20480000  1.0 -0.0625415242
C  C784  1  0.70480000  0.41300000  0.70480000  1.0 -0.0625415242
C  C785  1  0.41300000  0.70480000  0.70480000  1.0 -0.0625415242
C  C786  1  0.79520000  0.91300000  0.20480000  1.0 -0.0625415242
C  C787  1  0.20480000  0.08700000  0.20480000  1.0 -0.0625415242
C  C788  1  0.70480000  0.41300000  0.29520000  1.0 -0.0625415242
C  C789  1  0.58700000  0.29520000  0.70480000  1.0 -0.0625415242
C  C790  1  0.08700000  0.20480000  0.79520000  1.0 -0.0625415242
C  C791  1  0.91300000  0.79520000  0.79520000  1.0 -0.0625415242
C  C792  1  0.29520000  0.58700000  0.29520000  1.0 -0.0625415242
C  C793  1  0.56140000  0.33200000  0.29120000  1.0 0.0312235487
C  C794  1  0.16800000  0.06140000  0.79120000  1.0 0.0312235487
C  C795  1  0.83200000  0.93860000  0.79120000  1.0 0.0312235487
C  C796  1  0.33200000  0.56140000  0.70880000  1.0 0.0312235487
C  C797  1  0.43860000  0.66800000  0.29120000  1.0 0.0312235487
C  C798  1  0.93860000  0.83200000  0.20880000  1.0 0.0312235487
C  C799  1  0.06140000  0.16800000  0.20880000  1.0 0.0312235487
C  C800  1  0.66800000  0.43860000  0.70880000  1.0 0.0312235487
C  C801  1  0.43860000  0.66800000  0.70880000  1.0 0.0312235487
C  C802  1  0.83200000  0.93860000  0.20880000  1.0 0.0312235487
C  C803  1  0.16800000  0.06140000  0.20880000  1.0 0.0312235487
C  C804  1  0.66800000  0.43860000  0.29120000  1.0 0.0312235487
C  C805  1  0.56140000  0.33200000  0.70880000  1.0 0.0312235487
C  C806  1  0.06140000  0.16800000  0.79120000  1.0 0.0312235487
C  C807  1  0.93860000  0.83200000  0.79120000  1.0 0.0312235487
C  C808  1  0.33200000  0.56140000  0.29120000  1.0 0.0312235487
C  C809  1  0.51870000  0.32810000  0.27860000  1.0 0.0173956944
C  C810  1  0.17190000  0.01870000  0.77860000  1.0 0.0173956944
C  C811  1  0.82810000  0.98130000  0.77860000  1.0 0.0173956944
C  C812  1  0.32810000  0.51870000  0.72140000  1.0 0.0173956944
C  C813  1  0.48130000  0.67190000  0.27860000  1.0 0.0173956944
C  C814  1  0.98130000  0.82810000  0.22140000  1.0 0.0173956944
C  C815  1  0.01870000  0.17190000  0.22140000  1.0 0.0173956944
C  C816  1  0.67190000  0.48130000  0.72140000  1.0 0.0173956944
C  C817  1  0.48130000  0.67190000  0.72140000  1.0 0.0173956944
C  C818  1  0.82810000  0.98130000  0.22140000  1.0 0.0173956944
C  C819  1  0.17190000  0.01870000  0.22140000  1.0 0.0173956944
C  C820  1  0.67190000  0.48130000  0.27860000  1.0 0.0173956944
C  C821  1  0.51870000  0.32810000  0.72140000  1.0 0.0173956944
C  C822  1  0.01870000  0.17190000  0.77860000  1.0 0.0173956944
C  C823  1  0.98130000  0.82810000  0.77860000  1.0 0.0173956944
C  C824  1  0.32810000  0.51870000  0.27860000  1.0 0.0173956944
C  C825  1  0.50170000  0.28750000  0.27000000  1.0 -0.1008840167
C  C826  1  0.21250000  0.00170000  0.77000000  1.0 -0.1008840167
C  C827  1  0.78750000  0.99830000  0.77000000  1.0 -0.1008840167
C  C828  1  0.28750000  0.50170000  0.73000000  1.0 -0.1008840167
C  C829  1  0.49830000  0.71250000  0.27000000  1.0 -0.1008840167
C  C830  1  0.99830000  0.78750000  0.23000000  1.0 -0.1008840167
C  C831  1  0.00170000  0.21250000  0.23000000  1.0 -0.1008840167
C  C832  1  0.71250000  0.49830000  0.73000000  1.0 -0.1008840167
C  C833  1  0.49830000  0.71250000  0.73000000  1.0 -0.1008840167
C  C834  1  0.78750000  0.99830000  0.23000000  1.0 -0.1008840167
C  C835  1  0.21250000  0.00170000  0.23000000  1.0 -0.1008840167
C  C836  1  0.71250000  0.49830000  0.27000000  1.0 -0.1008840167
C  C837  1  0.50170000  0.28750000  0.73000000  1.0 -0.1008840167
C  C838  1  0.00170000  0.21250000  0.77000000  1.0 -0.1008840167
C  C839  1  0.99830000  0.78750000  0.77000000  1.0 -0.1008840167
C  C840  1  0.28750000  0.50170000  0.27000000  1.0 -0.1008840167
C  C841  1  0.57200000  0.38180000  0.29910000  1.0 0.0405108803
C  C842  1  0.11820000  0.07200000  0.79910000  1.0 0.0405108803
C  C843  1  0.88180000  0.92800000  0.79910000  1.0 0.0405108803
C  C844  1  0.38180000  0.57200000  0.70090000  1.0 0.0405108803
C  C845  1  0.42800000  0.61820000  0.29910000  1.0 0.0405108803
C  C846  1  0.92800000  0.88180000  0.20090000  1.0 0.0496747115
C  C847  1  0.07200000  0.11820000  0.20090000  1.0 0.0405108803
C  C848  1  0.61820000  0.42800000  0.70090000  1.0 0.0405108803
C  C849  1  0.42800000  0.61820000  0.70090000  1.0 0.0405108803
C  C850  1  0.88180000  0.92800000  0.20090000  1.0 0.0496747115
C  C851  1  0.11820000  0.07200000  0.20090000  1.0 0.0405108803
C  C852  1  0.61820000  0.42800000  0.29910000  1.0 0.0405108803
C  C853  1  0.57200000  0.38180000  0.70090000  1.0 0.0405108803
C  C854  1  0.07200000  0.11820000  0.79910000  1.0 0.0405108803
C  C855  1  0.92800000  0.88180000  0.79910000  1.0 0.0405108803
C  C856  1  0.38180000  0.57200000  0.29910000  1.0 0.0405108803
C  C857  1  0.48980000  0.37170000  0.27400000  1.0 0.0998789038
C  C858  1  0.12830000  0.98980000  0.77400000  1.0 0.0998789038
C  C859  1  0.87170000  0.01020000  0.77400000  1.0 0.0998789038
C  C860  1  0.37170000  0.48980000  0.72600000  1.0 0.0998789038
C  C861  1  0.51020000  0.62830000  0.27400000  1.0 0.0998789038
C  C862  1  0.01020000  0.87170000  0.22600000  1.0 0.0998789038
C  C863  1  0.98980000  0.12830000  0.22600000  1.0 0.0998789038
C  C864  1  0.62830000  0.51020000  0.72600000  1.0 0.0998789038
C  C865  1  0.51020000  0.62830000  0.72600000  1.0 0.0998789038
C  C866  1  0.87170000  0.01020000  0.22600000  1.0 0.0998789038
C  C867  1  0.12830000  0.98980000  0.22600000  1.0 0.0998789038
C  C868  1  0.62830000  0.51020000  0.27400000  1.0 0.0998789038
C  C869  1  0.48980000  0.37170000  0.72600000  1.0 0.0998789038
C  C870  1  0.98980000  0.12830000  0.77400000  1.0 0.0998789038
C  C871  1  0.01020000  0.87170000  0.77400000  1.0 0.0998789038
C  C872  1  0.37170000  0.48980000  0.27400000  1.0 0.0998789038
C  C873  1  0.33890000  0.07720000  0.00000000  1.0 0.0597097092
C  C874  1  0.42280000  0.83890000  0.50000000  1.0 0.0597097092
C  C875  1  0.57720000  0.16110000  0.50000000  1.0 0.0597097092
C  C876  1  0.07720000  0.33890000  0.00000000  1.0 0.0597097092
C  C877  1  0.66110000  0.92280000  0.00000000  1.0 0.0597097092
C  C878  1  0.16110000  0.57720000  0.50000000  1.0 0.0597097092
C  C879  1  0.83890000  0.42280000  0.50000000  1.0 0.0597097092
C  C880  1  0.92280000  0.66110000  0.00000000  1.0 0.0597097092
C  C881  1  0.29980000  0.17430000  0.09160000  1.0 0.0496747115
C  C882  1  0.32570000  0.79980000  0.59160000  1.0 0.0496747115
C  C883  1  0.67430000  0.20020000  0.59160000  1.0 0.0496747115
C  C884  1  0.17430000  0.29980000  0.90840000  1.0 0.0496747115
C  C885  1  0.70020000  0.82570000  0.09160000  1.0 0.0496747115
C  C886  1  0.20020000  0.67430000  0.40840000  1.0 0.0496747115
C  C887  1  0.79980000  0.32570000  0.40840000  1.0 0.0496747115
C  C888  1  0.82570000  0.70020000  0.90840000  1.0 0.0496747115
C  C889  1  0.70020000  0.82570000  0.90840000  1.0 0.0496747115
C  C890  1  0.67430000  0.20020000  0.40840000  1.0 0.0496747115
C  C891  1  0.32570000  0.79980000  0.40840000  1.0 0.0496747115
C  C892  1  0.82570000  0.70020000  0.09160000  1.0 0.0496747115
C  C893  1  0.29980000  0.17430000  0.90840000  1.0 0.0496747115
C  C894  1  0.79980000  0.32570000  0.59160000  1.0 0.0496747115
C  C895  1  0.20020000  0.67430000  0.59160000  1.0 0.0496747115
C  C896  1  0.17430000  0.29980000  0.09160000  1.0 0.0496747115
C  C897  1  0.28470000  0.16970000  0.05310000  1.0 -0.1364614876
C  C898  1  0.33030000  0.78470000  0.55310000  1.0 -0.1364614876
C  C899  1  0.66970000  0.21530000  0.55310000  1.0 -0.1364614876
C  C900  1  0.16970000  0.28470000  0.94690000  1.0 -0.1364614876
C  C901  1  0.71530000  0.83030000  0.05310000  1.0 -0.1364614876
C  C902  1  0.21530000  0.66970000  0.44690000  1.0 -0.1364614876
C  C903  1  0.78470000  0.33030000  0.44690000  1.0 -0.1364614876
C  C904  1  0.83030000  0.71530000  0.94690000  1.0 -0.1364614876
C  C905  1  0.71530000  0.83030000  0.94690000  1.0 -0.1364614876
C  C906  1  0.66970000  0.21530000  0.44690000  1.0 -0.1364614876
C  C907  1  0.33030000  0.78470000  0.44690000  1.0 -0.1364614876
C  C908  1  0.83030000  0.71530000  0.05310000  1.0 -0.1364614876
C  C909  1  0.28470000  0.16970000  0.94690000  1.0 -0.1364614876
C  C910  1  0.78470000  0.33030000  0.55310000  1.0 -0.1364614876
C  C911  1  0.21530000  0.66970000  0.55310000  1.0 -0.1364614876
C  C912  1  0.16970000  0.28470000  0.05310000  1.0 -0.1364614876
C  C913  1  0.24700000  0.14580000  0.04570000  1.0 0.0145130175
C  C914  1  0.35420000  0.74700000  0.54570000  1.0 0.0145130175
C  C915  1  0.64580000  0.25300000  0.54570000  1.0 0.0145130175
C  C916  1  0.14580000  0.24700000  0.95430000  1.0 0.0145130175
C  C917  1  0.75300000  0.85420000  0.04570000  1.0 0.0145130175
C  C918  1  0.25300000  0.64580000  0.45430000  1.0 0.0145130175
C  C919  1  0.74700000  0.35420000  0.45430000  1.0 0.0145130175
C  C920  1  0.85420000  0.75300000  0.95430000  1.0 0.0145130175
C  C921  1  0.75300000  0.85420000  0.95430000  1.0 0.0145130175
C  C922  1  0.64580000  0.25300000  0.45430000  1.0 0.0145130175
C  C923  1  0.35420000  0.74700000  0.45430000  1.0 0.0145130175
C  C924  1  0.85420000  0.75300000  0.04570000  1.0 0.0145130175
C  C925  1  0.24700000  0.14580000  0.95430000  1.0 0.0145130175
C  C926  1  0.74700000  0.35420000  0.54570000  1.0 0.0145130175
C  C927  1  0.25300000  0.64580000  0.54570000  1.0 0.0145130175
C  C928  1  0.14580000  0.24700000  0.04570000  1.0 0.0145130175
C  C929  1  0.22530000  0.12640000  0.07700000  1.0 -0.0888382207
C  C930  1  0.37360000  0.72530000  0.57700000  1.0 -0.0796172501
C  C931  1  0.62640000  0.27470000  0.57700000  1.0 -0.0796172501
C  C932  1  0.12640000  0.22530000  0.92300000  1.0 -0.0888382207
C  C933  1  0.77470000  0.87360000  0.07700000  1.0 -0.0888382207
C  C934  1  0.27470000  0.62640000  0.42300000  1.0 -0.0888382207
C  C935  1  0.72530000  0.37360000  0.42300000  1.0 -0.0888382207
C  C936  1  0.87360000  0.77470000  0.92300000  1.0 -0.0888382207
C  C937  1  0.77470000  0.87360000  0.92300000  1.0 -0.0888382207
C  C938  1  0.62640000  0.27470000  0.42300000  1.0 -0.0888382207
C  C939  1  0.37360000  0.72530000  0.42300000  1.0 -0.0888382207
C  C940  1  0.87360000  0.77470000  0.07700000  1.0 -0.0888382207
C  C941  1  0.22530000  0.12640000  0.92300000  1.0 -0.0888382207
C  C942  1  0.72530000  0.37360000  0.57700000  1.0 -0.0796172501
C  C943  1  0.27470000  0.62640000  0.57700000  1.0 -0.0796172501
C  C944  1  0.12640000  0.22530000  0.07700000  1.0 -0.0888382207
C  C945  1  0.24040000  0.13100000  0.11500000  1.0 -0.027505746
C  C946  1  0.36900000  0.74040000  0.61500000  1.0 -0.027505746
C  C947  1  0.63100000  0.25960000  0.61500000  1.0 -0.027505746
C  C948  1  0.13100000  0.24040000  0.88500000  1.0 -0.027505746
C  C949  1  0.75960000  0.86900000  0.11500000  1.0 -0.027505746
C  C950  1  0.25960000  0.63100000  0.38500000  1.0 -0.027505746
C  C951  1  0.74040000  0.36900000  0.38500000  1.0 -0.027505746
C  C952  1  0.86900000  0.75960000  0.88500000  1.0 -0.027505746
C  C953  1  0.75960000  0.86900000  0.88500000  1.0 -0.027505746
C  C954  1  0.63100000  0.25960000  0.38500000  1.0 -0.027505746
C  C955  1  0.36900000  0.74040000  0.38500000  1.0 -0.027505746
C  C956  1  0.86900000  0.75960000  0.11500000  1.0 -0.027505746
C  C957  1  0.24040000  0.13100000  0.88500000  1.0 -0.027505746
C  C958  1  0.74040000  0.36900000  0.61500000  1.0 -0.027505746
C  C959  1  0.25960000  0.63100000  0.61500000  1.0 -0.027505746
C  C960  1  0.13100000  0.24040000  0.11500000  1.0 -0.027505746
C  C961  1  0.23980000  0.13490000  0.00000000  1.0 0.1254212963
C  C962  1  0.36510000  0.73980000  0.50000000  1.0 0.1254212963
C  C963  1  0.63490000  0.26020000  0.50000000  1.0 0.1254212963
C  C964  1  0.13490000  0.23980000  0.00000000  1.0 0.1254212963
C  C965  1  0.76020000  0.86510000  0.00000000  1.0 0.1254212963
C  C966  1  0.26020000  0.63490000  0.50000000  1.0 0.1254212963
C  C967  1  0.73980000  0.36510000  0.50000000  1.0 0.1254212963
C  C968  1  0.86510000  0.76020000  0.00000000  1.0 0.1254212963
C  C969  1  0.27900000  0.16600000  0.13000000  1.0 0.0496747115
C  C970  1  0.33400000  0.77900000  0.63000000  1.0 0.0496747115
C  C971  1  0.66600000  0.22100000  0.63000000  1.0 0.0496747115
C  C972  1  0.16600000  0.27900000  0.87000000  1.0 0.0496747115
C  C973  1  0.72100000  0.83400000  0.13000000  1.0 0.0496747115
C  C974  1  0.22100000  0.66600000  0.37000000  1.0 0.0496747115
C  C975  1  0.77900000  0.33400000  0.37000000  1.0 0.0496747115
C  C976  1  0.83400000  0.72100000  0.87000000  1.0 0.0496747115
C  C977  1  0.72100000  0.83400000  0.87000000  1.0 0.0496747115
C  C978  1  0.66600000  0.22100000  0.37000000  1.0 0.0496747115
C  C979  1  0.33400000  0.77900000  0.37000000  1.0 0.0496747115
C  C980  1  0.83400000  0.72100000  0.13000000  1.0 0.0496747115
C  C981  1  0.27900000  0.16600000  0.87000000  1.0 0.0496747115
C  C982  1  0.77900000  0.33400000  0.63000000  1.0 0.0496747115
C  C983  1  0.22100000  0.66600000  0.63000000  1.0 0.0496747115
C  C984  1  0.16600000  0.27900000  0.13000000  1.0 0.0496747115
C  C985  1  0.46400000  0.23620000  0.02900000  1.0 0.0145130175
C  C986  1  0.26380000  0.96400000  0.52900000  1.0 0.0145130175
C  C987  1  0.73620000  0.03600000  0.52900000  1.0 0.0145130175
C  C988  1  0.23620000  0.46400000  0.97100000  1.0 0.0145130175
C  C989  1  0.53600000  0.76380000  0.02900000  1.0 0.0145130175
C  C990  1  0.03600000  0.73620000  0.47100000  1.0 0.0145130175
C  C991  1  0.96400000  0.26380000  0.47100000  1.0 0.0145130175
C  C992  1  0.76380000  0.53600000  0.97100000  1.0 0.0145130175
C  C993  1  0.53600000  0.76380000  0.97100000  1.0 0.0145130175
C  C994  1  0.73620000  0.03600000  0.47100000  1.0 0.0145130175
C  C995  1  0.26380000  0.96400000  0.47100000  1.0 0.0145130175
C  C996  1  0.76380000  0.53600000  0.02900000  1.0 0.0145130175
C  C997  1  0.46400000  0.23620000  0.97100000  1.0 0.0145130175
C  C998  1  0.96400000  0.26380000  0.52900000  1.0 0.0145130175
C  C999  1  0.03600000  0.73620000  0.52900000  1.0 0.0145130175
C  C1000  1  0.23620000  0.46400000  0.02900000  1.0 0.0145130175
C  C1001  1  0.31260000  0.31260000  0.08740000  1.0 0.1107682638
C  C1002  1  0.18740000  0.81260000  0.58740000  1.0 0.1107682638
C  C1003  1  0.81260000  0.18740000  0.58740000  1.0 0.1107682638
C  C1004  1  0.31260000  0.31260000  0.91260000  1.0 0.1107682638
C  C1005  1  0.68740000  0.68740000  0.08740000  1.0 0.1107682638
C  C1006  1  0.18740000  0.81260000  0.41260000  1.0 0.1107682638
C  C1007  1  0.81260000  0.18740000  0.41260000  1.0 0.1107682638
C  C1008  1  0.68740000  0.68740000  0.91260000  1.0 0.1107682638
C  C1009  1  0.36620000  0.33200000  0.04500000  1.0 -0.0189603207
C  C1010  1  0.16800000  0.86620000  0.54500000  1.0 -0.0189603207
C  C1011  1  0.83200000  0.13380000  0.54500000  1.0 -0.0189603207
C  C1012  1  0.33200000  0.36620000  0.95500000  1.0 -0.0189603207
C  C1013  1  0.63380000  0.66800000  0.04500000  1.0 -0.0189603207
C  C1014  1  0.13380000  0.83200000  0.45500000  1.0 -0.0189603207
C  C1015  1  0.86620000  0.16800000  0.45500000  1.0 -0.0189603207
C  C1016  1  0.66800000  0.63380000  0.95500000  1.0 -0.0189603207
C  C1017  1  0.63380000  0.66800000  0.95500000  1.0 -0.0189603207
C  C1018  1  0.83200000  0.13380000  0.45500000  1.0 -0.0189603207
C  C1019  1  0.16800000  0.86620000  0.45500000  1.0 -0.0189603207
C  C1020  1  0.66800000  0.63380000  0.04500000  1.0 -0.0189603207
C  C1021  1  0.36620000  0.33200000  0.95500000  1.0 -0.0189603207
C  C1022  1  0.86620000  0.16800000  0.54500000  1.0 -0.0189603207
C  C1023  1  0.13380000  0.83200000  0.54500000  1.0 -0.0189603207
C  C1024  1  0.33200000  0.36620000  0.04500000  1.0 -0.0189603207
C  C1025  1  0.40330000  0.33640000  0.02090000  1.0 -0.0703441512
C  C1026  1  0.16360000  0.90330000  0.52090000  1.0 -0.0703441512
C  C1027  1  0.83640000  0.09670000  0.52090000  1.0 -0.0625415242
C  C1028  1  0.33640000  0.40330000  0.97910000  1.0 -0.0703441512
C  C1029  1  0.59670000  0.66360000  0.02090000  1.0 -0.0703441512
C  C1030  1  0.09670000  0.83640000  0.47910000  1.0 -0.0703441512
C  C1031  1  0.90330000  0.16360000  0.47910000  1.0 -0.0625415242
C  C1032  1  0.66360000  0.59670000  0.97910000  1.0 -0.0703441512
C  C1033  1  0.59670000  0.66360000  0.97910000  1.0 -0.0703441512
C  C1034  1  0.83640000  0.09670000  0.47910000  1.0 -0.0625415242
C  C1035  1  0.16360000  0.90330000  0.47910000  1.0 -0.0703441512
C  C1036  1  0.66360000  0.59670000  0.02090000  1.0 -0.0703441512
C  C1037  1  0.40330000  0.33640000  0.97910000  1.0 -0.0703441512
C  C1038  1  0.90330000  0.16360000  0.52090000  1.0 -0.0625415242
C  C1039  1  0.09670000  0.83640000  0.52090000  1.0 -0.0703441512
C  C1040  1  0.33640000  0.40330000  0.02090000  1.0 -0.0703441512
C  C1041  1  0.40780000  0.37530000  0.00000000  1.0 0.0312235487
C  C1042  1  0.12470000  0.90780000  0.50000000  1.0 0.0312235487
C  C1043  1  0.87530000  0.09220000  0.50000000  1.0 0.0312235487
C  C1044  1  0.37530000  0.40780000  0.00000000  1.0 0.0312235487
C  C1045  1  0.59220000  0.62470000  0.00000000  1.0 0.0312235487
C  C1046  1  0.09220000  0.87530000  0.50000000  1.0 0.0312235487
C  C1047  1  0.90780000  0.12470000  0.50000000  1.0 0.0312235487
C  C1048  1  0.62470000  0.59220000  0.00000000  1.0 0.0312235487
C  C1049  1  0.44800000  0.38020000  0.97240000  1.0 0.0405108803
C  C1050  1  0.11980000  0.94800000  0.47240000  1.0 0.0405108803
C  C1051  1  0.88020000  0.05200000  0.47240000  1.0 0.0405108803
C  C1052  1  0.38020000  0.44800000  0.02760000  1.0 0.0405108803
C  C1053  1  0.55200000  0.61980000  0.97240000  1.0 0.0405108803
C  C1054  1  0.05200000  0.88020000  0.52760000  1.0 0.0405108803
C  C1055  1  0.94800000  0.11980000  0.52760000  1.0 0.0405108803
C  C1056  1  0.61980000  0.55200000  0.02760000  1.0 0.0405108803
C  C1057  1  0.55200000  0.61980000  0.02760000  1.0 0.0405108803
C  C1058  1  0.88020000  0.05200000  0.52760000  1.0 0.0405108803
C  C1059  1  0.11980000  0.94800000  0.52760000  1.0 0.0405108803
C  C1060  1  0.61980000  0.55200000  0.97240000  1.0 0.0405108803
C  C1061  1  0.44800000  0.38020000  0.02760000  1.0 0.0405108803
C  C1062  1  0.94800000  0.11980000  0.47240000  1.0 0.0405108803
C  C1063  1  0.05200000  0.88020000  0.47240000  1.0 0.0405108803
C  C1064  1  0.38020000  0.44800000  0.97240000  1.0 0.0405108803
C  C1065  1  0.59200000  0.29000000  0.33050000  1.0 -0.2195167456
C  C1066  1  0.21000000  0.09200000  0.83050000  1.0 -0.2195167456
C  C1067  1  0.79000000  0.90800000  0.83050000  1.0 -0.2195167456
C  C1068  1  0.29000000  0.59200000  0.66950000  1.0 -0.2195167456
C  C1069  1  0.40800000  0.71000000  0.33050000  1.0 -0.2195167456
C  C1070  1  0.90800000  0.79000000  0.16950000  1.0 -0.2195167456
C  C1071  1  0.09200000  0.21000000  0.16950000  1.0 -0.2195167456
C  C1072  1  0.71000000  0.40800000  0.66950000  1.0 -0.2195167456
C  C1073  1  0.40800000  0.71000000  0.66950000  1.0 -0.2195167456
C  C1074  1  0.79000000  0.90800000  0.16950000  1.0 -0.2195167456
C  C1075  1  0.21000000  0.09200000  0.16950000  1.0 -0.2195167456
C  C1076  1  0.71000000  0.40800000  0.33050000  1.0 -0.2195167456
C  C1077  1  0.59200000  0.29000000  0.66950000  1.0 -0.2195167456
C  C1078  1  0.09200000  0.21000000  0.83050000  1.0 -0.2195167456
C  C1079  1  0.90800000  0.79000000  0.83050000  1.0 -0.2195167456
C  C1080  1  0.29000000  0.59200000  0.33050000  1.0 -0.2195167456
C  C1081  1  0.53100000  0.32010000  0.33060000  1.0 0.1488287441
C  C1082  1  0.17990000  0.03100000  0.83060000  1.0 0.1580579583
C  C1083  1  0.82010000  0.96900000  0.83060000  1.0 0.1488287441
C  C1084  1  0.32010000  0.53100000  0.66940000  1.0 0.1488287441
C  C1085  1  0.46900000  0.67990000  0.33060000  1.0 0.1580579583
C  C1086  1  0.96900000  0.82010000  0.16940000  1.0 0.1580579583
C  C1087  1  0.03100000  0.17990000  0.16940000  1.0 0.1580579583
C  C1088  1  0.67990000  0.46900000  0.66940000  1.0 0.1488287441
C  C1089  1  0.46900000  0.67990000  0.66940000  1.0 0.1488287441
C  C1090  1  0.82010000  0.96900000  0.16940000  1.0 0.1580579583
C  C1091  1  0.17990000  0.03100000  0.16940000  1.0 0.1580579583
C  C1092  1  0.67990000  0.46900000  0.33060000  1.0 0.1580579583
C  C1093  1  0.53100000  0.32010000  0.66940000  1.0 0.1488287441
C  C1094  1  0.03100000  0.17990000  0.83060000  1.0 0.1580579583
C  C1095  1  0.96900000  0.82010000  0.83060000  1.0 0.1488287441
C  C1096  1  0.32010000  0.53100000  0.33060000  1.0 0.1488287441
C  C1097  1  0.49010000  0.28070000  0.30410000  1.0 -0.1008840167
C  C1098  1  0.21930000  0.99010000  0.80410000  1.0 -0.1008840167
C  C1099  1  0.78070000  0.00990000  0.80410000  1.0 -0.1008840167
C  C1100  1  0.28070000  0.49010000  0.69590000  1.0 -0.1008840167
C  C1101  1  0.50990000  0.71930000  0.30410000  1.0 -0.1008840167
C  C1102  1  0.00990000  0.78070000  0.19590000  1.0 -0.1008840167
C  C1103  1  0.99010000  0.21930000  0.19590000  1.0 -0.1008840167
C  C1104  1  0.71930000  0.50990000  0.69590000  1.0 -0.1008840167
C  C1105  1  0.50990000  0.71930000  0.69590000  1.0 -0.1008840167
C  C1106  1  0.78070000  0.00990000  0.19590000  1.0 -0.1008840167
C  C1107  1  0.21930000  0.99010000  0.19590000  1.0 -0.1008840167
C  C1108  1  0.71930000  0.50990000  0.30410000  1.0 -0.1008840167
C  C1109  1  0.49010000  0.28070000  0.69590000  1.0 -0.1008840167
C  C1110  1  0.99010000  0.21930000  0.80410000  1.0 -0.1008840167
C  C1111  1  0.00990000  0.78070000  0.80410000  1.0 -0.1008840167
C  C1112  1  0.28070000  0.49010000  0.30410000  1.0 -0.1008840167
C  C1113  1  0.55430000  0.35930000  0.36630000  1.0 0.2030043022
C  C1114  1  0.14070000  0.05430000  0.86630000  1.0 0.2030043022
C  C1115  1  0.85930000  0.94570000  0.86630000  1.0 0.2102831583
C  C1116  1  0.35930000  0.55430000  0.63370000  1.0 0.2030043022
C  C1117  1  0.44570000  0.64070000  0.36630000  1.0 0.2102831583
C  C1118  1  0.94570000  0.85930000  0.13370000  1.0 0.2030043022
C  C1119  1  0.05430000  0.14070000  0.13370000  1.0 0.2030043022
C  C1120  1  0.64070000  0.44570000  0.63370000  1.0 0.2102831583
C  C1121  1  0.44570000  0.64070000  0.63370000  1.0 0.2102831583
C  C1122  1  0.85930000  0.94570000  0.13370000  1.0 0.2030043022
C  C1123  1  0.14070000  0.05430000  0.13370000  1.0 0.2030043022
C  C1124  1  0.64070000  0.44570000  0.36630000  1.0 0.2102831583
C  C1125  1  0.55430000  0.35930000  0.63370000  1.0 0.2102831583
C  C1126  1  0.05430000  0.14070000  0.86630000  1.0 0.2030043022
C  C1127  1  0.94570000  0.85930000  0.86630000  1.0 0.2102831583
C  C1128  1  0.35930000  0.55430000  0.36630000  1.0 0.2030043022
N  N1  1  0.34730000  0.16940000  0.24400000  1.0 -0.4199665197
N  N2  1  0.33060000  0.84730000  0.74400000  1.0 -0.4199665197
N  N3  1  0.66940000  0.15270000  0.74400000  1.0 -0.4199665197
N  N4  1  0.16940000  0.34730000  0.75600000  1.0 -0.4199665197
N  N5  1  0.65270000  0.83060000  0.24400000  1.0 -0.4199665197
N  N6  1  0.15270000  0.66940000  0.25600000  1.0 -0.4199665197
N  N7  1  0.84730000  0.33060000  0.25600000  1.0 -0.4199665197
N  N8  1  0.83060000  0.65270000  0.75600000  1.0 -0.4199665197
N  N9  1  0.65270000  0.83060000  0.75600000  1.0 -0.4199665197
N  N10  1  0.66940000  0.15270000  0.25600000  1.0 -0.4199665197
N  N11  1  0.33060000  0.84730000  0.25600000  1.0 -0.4199665197
N  N12  1  0.83060000  0.65270000  0.24400000  1.0 -0.4199665197
N  N13  1  0.34730000  0.16940000  0.75600000  1.0 -0.4199665197
N  N14  1  0.84730000  0.33060000  0.74400000  1.0 -0.4199665197
N  N15  1  0.15270000  0.66940000  0.74400000  1.0 -0.4199665197
N  N16  1  0.16940000  0.34730000  0.24400000  1.0 -0.4199665197
N  N17  1  0.42050000  0.17870000  0.25040000  1.0 -0.3312441901
N  N18  1  0.32130000  0.92050000  0.75040000  1.0 -0.3312441901
N  N19  1  0.67870000  0.07950000  0.75040000  1.0 -0.3312441901
N  N20  1  0.17870000  0.42050000  0.74960000  1.0 -0.3312441901
N  N21  1  0.57950000  0.82130000  0.25040000  1.0 -0.3312441901
N  N22  1  0.07950000  0.67870000  0.24960000  1.0 -0.3312441901
N  N23  1  0.92050000  0.32130000  0.24960000  1.0 -0.3312441901
N  N24  1  0.82130000  0.57950000  0.74960000  1.0 -0.3312441901
N  N25  1  0.57950000  0.82130000  0.74960000  1.0 -0.3312441901
N  N26  1  0.67870000  0.07950000  0.24960000  1.0 -0.3312441901
N  N27  1  0.32130000  0.92050000  0.24960000  1.0 -0.3312441901
N  N28  1  0.82130000  0.57950000  0.25040000  1.0 -0.3312441901
N  N29  1  0.42050000  0.17870000  0.74960000  1.0 -0.3312441901
N  N30  1  0.92050000  0.32130000  0.75040000  1.0 -0.3312441901
N  N31  1  0.07950000  0.67870000  0.75040000  1.0 -0.3312441901
N  N32  1  0.17870000  0.42050000  0.25040000  1.0 -0.3312441901
N  N33  1  0.47130000  0.22070000  0.17420000  1.0 -0.3312441901
N  N34  1  0.27930000  0.97130000  0.67420000  1.0 -0.3312441901
N  N35  1  0.72070000  0.02870000  0.67420000  1.0 -0.3312441901
N  N36  1  0.22070000  0.47130000  0.82580000  1.0 -0.3312441901
N  N37  1  0.52870000  0.77930000  0.17420000  1.0 -0.3312441901
N  N38  1  0.02870000  0.72070000  0.32580000  1.0 -0.3312441901
N  N39  1  0.97130000  0.27930000  0.32580000  1.0 -0.3312441901
N  N40  1  0.77930000  0.52870000  0.82580000  1.0 -0.3312441901
N  N41  1  0.52870000  0.77930000  0.82580000  1.0 -0.3312441901
N  N42  1  0.72070000  0.02870000  0.32580000  1.0 -0.3312441901
N  N43  1  0.27930000  0.97130000  0.32580000  1.0 -0.3312441901
N  N44  1  0.77930000  0.52870000  0.17420000  1.0 -0.3312441901
N  N45  1  0.47130000  0.22070000  0.82580000  1.0 -0.3312441901
N  N46  1  0.97130000  0.27930000  0.67420000  1.0 -0.3312441901
N  N47  1  0.02870000  0.72070000  0.67420000  1.0 -0.3312441901
N  N48  1  0.22070000  0.47130000  0.17420000  1.0 -0.3312441901
N  N49  1  0.43420000  0.24630000  0.12360000  1.0 -0.3778248959
N  N50  1  0.25370000  0.93420000  0.62360000  1.0 -0.3778248959
N  N51  1  0.74630000  0.06580000  0.62360000  1.0 -0.3778248959
N  N52  1  0.24630000  0.43420000  0.87640000  1.0 -0.3778248959
N  N53  1  0.56580000  0.75370000  0.12360000  1.0 -0.3778248959
N  N54  1  0.06580000  0.74630000  0.37640000  1.0 -0.3778248959
N  N55  1  0.93420000  0.25370000  0.37640000  1.0 -0.3778248959
N  N56  1  0.75370000  0.56580000  0.87640000  1.0 -0.3778248959
N  N57  1  0.56580000  0.75370000  0.87640000  1.0 -0.3778248959
N  N58  1  0.74630000  0.06580000  0.37640000  1.0 -0.3778248959
N  N59  1  0.25370000  0.93420000  0.37640000  1.0 -0.3778248959
N  N60  1  0.75370000  0.56580000  0.12360000  1.0 -0.3778248959
N  N61  1  0.43420000  0.24630000  0.87640000  1.0 -0.3778248959
N  N62  1  0.93420000  0.25370000  0.62360000  1.0 -0.3778248959
N  N63  1  0.06580000  0.74630000  0.62360000  1.0 -0.3778248959
N  N64  1  0.24630000  0.43420000  0.12360000  1.0 -0.3778248959
N  N65  1  0.34140000  0.20430000  0.11180000  1.0 -0.2797725619
N  N66  1  0.29570000  0.84140000  0.61180000  1.0 -0.2797725619
N  N67  1  0.70430000  0.15860000  0.61180000  1.0 -0.2797725619
N  N68  1  0.20430000  0.34140000  0.88820000  1.0 -0.2797725619
N  N69  1  0.65860000  0.79570000  0.11180000  1.0 -0.2797725619
N  N70  1  0.15860000  0.70430000  0.38820000  1.0 -0.2797725619
N  N71  1  0.84140000  0.29570000  0.38820000  1.0 -0.2797725619
N  N72  1  0.79570000  0.65860000  0.88820000  1.0 -0.2797725619
N  N73  1  0.65860000  0.79570000  0.88820000  1.0 -0.2797725619
N  N74  1  0.70430000  0.15860000  0.38820000  1.0 -0.2797725619
N  N75  1  0.29570000  0.84140000  0.38820000  1.0 -0.2797725619
N  N76  1  0.79570000  0.65860000  0.11180000  1.0 -0.2797725619
N  N77  1  0.34140000  0.20430000  0.88820000  1.0 -0.2797725619
N  N78  1  0.84140000  0.29570000  0.61180000  1.0 -0.2797725619
N  N79  1  0.15860000  0.70430000  0.61180000  1.0 -0.2797725619
N  N80  1  0.20430000  0.34140000  0.11180000  1.0 -0.2797725619
N  N81  1  0.30510000  0.17060000  0.15930000  1.0 -0.1498283035
N  N82  1  0.32940000  0.80510000  0.65930000  1.0 -0.1498283035
N  N83  1  0.67060000  0.19490000  0.65930000  1.0 -0.1498283035
N  N84  1  0.17060000  0.30510000  0.84070000  1.0 -0.1498283035
N  N85  1  0.69490000  0.82940000  0.15930000  1.0 -0.1498283035
N  N86  1  0.19490000  0.67060000  0.34070000  1.0 -0.1498283035
N  N87  1  0.80510000  0.32940000  0.34070000  1.0 -0.1498283035
N  N88  1  0.82940000  0.69490000  0.84070000  1.0 -0.1498283035
N  N89  1  0.69490000  0.82940000  0.84070000  1.0 -0.1498283035
N  N90  1  0.67060000  0.19490000  0.34070000  1.0 -0.1498283035
N  N91  1  0.32940000  0.80510000  0.34070000  1.0 -0.1498283035
N  N92  1  0.82940000  0.69490000  0.15930000  1.0 -0.1498283035
N  N93  1  0.30510000  0.17060000  0.84070000  1.0 -0.1498283035
N  N94  1  0.80510000  0.32940000  0.65930000  1.0 -0.1498283035
N  N95  1  0.19490000  0.67060000  0.65930000  1.0 -0.1498283035
N  N96  1  0.17060000  0.30510000  0.15930000  1.0 -0.1498283035
N  N97  1  0.24100000  0.18850000  0.23520000  1.0 -0.4013971397
N  N98  1  0.31150000  0.74100000  0.73520000  1.0 -0.4013971397
N  N99  1  0.68850000  0.25900000  0.73520000  1.0 -0.4013971397
N  N100  1  0.18850000  0.24100000  0.76480000  1.0 -0.4013971397
N  N101  1  0.75900000  0.81150000  0.23520000  1.0 -0.4013971397
N  N102  1  0.25900000  0.68850000  0.26480000  1.0 -0.4013971397
N  N103  1  0.74100000  0.31150000  0.26480000  1.0 -0.4013971397
N  N104  1  0.81150000  0.75900000  0.76480000  1.0 -0.4013971397
N  N105  1  0.75900000  0.81150000  0.76480000  1.0 -0.4013971397
N  N106  1  0.68850000  0.25900000  0.26480000  1.0 -0.4013971397
N  N107  1  0.31150000  0.74100000  0.26480000  1.0 -0.4013971397
N  N108  1  0.81150000  0.75900000  0.23520000  1.0 -0.4013971397
N  N109  1  0.24100000  0.18850000  0.76480000  1.0 -0.4013971397
N  N110  1  0.74100000  0.31150000  0.73520000  1.0 -0.4013971397
N  N111  1  0.25900000  0.68850000  0.73520000  1.0 -0.4013971397
N  N112  1  0.18850000  0.24100000  0.23520000  1.0 -0.4013971397
N  N113  1  0.40480000  0.23130000  0.03300000  1.0 -0.2797725619
N  N114  1  0.26870000  0.90480000  0.53300000  1.0 -0.2797725619
N  N115  1  0.73130000  0.09520000  0.53300000  1.0 -0.2797725619
N  N116  1  0.23130000  0.40480000  0.96700000  1.0 -0.2797725619
N  N117  1  0.59520000  0.76870000  0.03300000  1.0 -0.2797725619
N  N118  1  0.09520000  0.73130000  0.46700000  1.0 -0.2797725619
N  N119  1  0.90480000  0.26870000  0.46700000  1.0 -0.2797725619
N  N120  1  0.76870000  0.59520000  0.96700000  1.0 -0.2797725619
N  N121  1  0.59520000  0.76870000  0.96700000  1.0 -0.2797725619
N  N122  1  0.73130000  0.09520000  0.46700000  1.0 -0.2797725619
N  N123  1  0.26870000  0.90480000  0.46700000  1.0 -0.2797725619
N  N124  1  0.76870000  0.59520000  0.03300000  1.0 -0.2797725619
N  N125  1  0.40480000  0.23130000  0.96700000  1.0 -0.2797725619
N  N126  1  0.90480000  0.26870000  0.53300000  1.0 -0.2797725619
N  N127  1  0.09520000  0.73130000  0.53300000  1.0 -0.2797725619
N  N128  1  0.23130000  0.40480000  0.03300000  1.0 -0.2797725619
N  N129  1  0.49770000  0.12600000  0.21350000  1.0 -0.3681911611
N  N130  1  0.37400000  0.99770000  0.71350000  1.0 -0.3681911611
N  N131  1  0.62600000  0.00230000  0.71350000  1.0 -0.3681911611
N  N132  1  0.12600000  0.49770000  0.78650000  1.0 -0.3681911611
N  N133  1  0.50230000  0.87400000  0.21350000  1.0 -0.3681911611
N  N134  1  0.00230000  0.62600000  0.28650000  1.0 -0.3681911611
N  N135  1  0.99770000  0.37400000  0.28650000  1.0 -0.3681911611
N  N136  1  0.87400000  0.50230000  0.78650000  1.0 -0.3681911611
N  N137  1  0.50230000  0.87400000  0.78650000  1.0 -0.3681911611
N  N138  1  0.62600000  0.00230000  0.28650000  1.0 -0.3681911611
N  N139  1  0.37400000  0.99770000  0.28650000  1.0 -0.3681911611
N  N140  1  0.87400000  0.50230000  0.21350000  1.0 -0.3681911611
N  N141  1  0.49770000  0.12600000  0.78650000  1.0 -0.3681911611
N  N142  1  0.99770000  0.37400000  0.71350000  1.0 -0.3681911611
N  N143  1  0.00230000  0.62600000  0.71350000  1.0 -0.3681911611
N  N144  1  0.12600000  0.49770000  0.21350000  1.0 -0.3681911611
N  N145  1  0.50370000  0.05320000  0.22070000  1.0 -0.2965044611
N  N146  1  0.44680000  0.00370000  0.72070000  1.0 -0.2928793737
N  N147  1  0.55320000  0.99630000  0.72070000  1.0 -0.2965044611
N  N148  1  0.05320000  0.50370000  0.77930000  1.0 -0.2965044611
N  N149  1  0.49630000  0.94680000  0.22070000  1.0 -0.2965044611
N  N150  1  0.99630000  0.55320000  0.27930000  1.0 -0.2965044611
N  N151  1  0.00370000  0.44680000  0.27930000  1.0 -0.2928793737
N  N152  1  0.94680000  0.49630000  0.77930000  1.0 -0.2965044611
N  N153  1  0.49630000  0.94680000  0.77930000  1.0 -0.2965044611
N  N154  1  0.55320000  0.99630000  0.27930000  1.0 -0.2965044611
N  N155  1  0.44680000  0.00370000  0.27930000  1.0 -0.2928793737
N  N156  1  0.94680000  0.49630000  0.22070000  1.0 -0.2965044611
N  N157  1  0.50370000  0.05320000  0.77930000  1.0 -0.2965044611
N  N158  1  0.00370000  0.44680000  0.72070000  1.0 -0.2928793737
N  N159  1  0.99630000  0.55320000  0.72070000  1.0 -0.2965044611
N  N160  1  0.05320000  0.50370000  0.22070000  1.0 -0.2965044611
N  N161  1  0.35840000  0.30880000  0.10680000  1.0 -0.1008840167
N  N162  1  0.19120000  0.85840000  0.60680000  1.0 -0.0888382207
N  N163  1  0.80880000  0.14160000  0.60680000  1.0 -0.1008840167
N  N164  1  0.30880000  0.35840000  0.89320000  1.0 -0.0888382207
N  N165  1  0.64160000  0.69120000  0.10680000  1.0 -0.1008840167
N  N166  1  0.14160000  0.80880000  0.39320000  1.0 -0.0888382207
N  N167  1  0.85840000  0.19120000  0.39320000  1.0 -0.1008840167
N  N168  1  0.69120000  0.64160000  0.89320000  1.0 -0.0888382207
N  N169  1  0.64160000  0.69120000  0.89320000  1.0 -0.0888382207
N  N170  1  0.80880000  0.14160000  0.39320000  1.0 -0.1008840167
N  N171  1  0.19120000  0.85840000  0.39320000  1.0 -0.0888382207
N  N172  1  0.69120000  0.64160000  0.10680000  1.0 -0.1008840167
N  N173  1  0.35840000  0.30880000  0.89320000  1.0 -0.0888382207
N  N174  1  0.85840000  0.19120000  0.60680000  1.0 -0.1008840167
N  N175  1  0.14160000  0.80880000  0.60680000  1.0 -0.0888382207
N  N176  1  0.30880000  0.35840000  0.10680000  1.0 -0.1008840167
N  N177  1  0.52680000  0.20990000  0.25880000  1.0 -0.3312441901
N  N178  1  0.29010000  0.02680000  0.75880000  1.0 -0.3312441901
N  N179  1  0.70990000  0.97320000  0.75880000  1.0 -0.3312441901
N  N180  1  0.20990000  0.52680000  0.74120000  1.0 -0.3312441901
N  N181  1  0.47320000  0.79010000  0.25880000  1.0 -0.3312441901
N  N182  1  0.97320000  0.70990000  0.24120000  1.0 -0.3312441901
N  N183  1  0.02680000  0.29010000  0.24120000  1.0 -0.3312441901
N  N184  1  0.79010000  0.47320000  0.74120000  1.0 -0.3312441901
N  N185  1  0.47320000  0.79010000  0.74120000  1.0 -0.3312441901
N  N186  1  0.70990000  0.97320000  0.24120000  1.0 -0.3312441901
N  N187  1  0.29010000  0.02680000  0.24120000  1.0 -0.3312441901
N  N188  1  0.79010000  0.47320000  0.25880000  1.0 -0.3312441901
N  N189  1  0.52680000  0.20990000  0.74120000  1.0 -0.3312441901
N  N190  1  0.02680000  0.29010000  0.75880000  1.0 -0.3312441901
N  N191  1  0.97320000  0.70990000  0.75880000  1.0 -0.3312441901
N  N192  1  0.20990000  0.52680000  0.25880000  1.0 -0.3312441901
N  N193  1  0.59370000  0.22090000  0.27640000  1.0 -0.3136283242
N  N194  1  0.27910000  0.09370000  0.77640000  1.0 -0.3136283242
N  N195  1  0.72090000  0.90630000  0.77640000  1.0 -0.3136283242
N  N196  1  0.22090000  0.59370000  0.72360000  1.0 -0.3136283242
N  N197  1  0.40630000  0.77910000  0.27640000  1.0 -0.3136283242
N  N198  1  0.90630000  0.72090000  0.22360000  1.0 -0.3136283242
N  N199  1  0.09370000  0.27910000  0.22360000  1.0 -0.3136283242
N  N200  1  0.77910000  0.40630000  0.72360000  1.0 -0.3136283242
N  N201  1  0.40630000  0.77910000  0.72360000  1.0 -0.3136283242
N  N202  1  0.72090000  0.90630000  0.22360000  1.0 -0.3136283242
N  N203  1  0.27910000  0.09370000  0.22360000  1.0 -0.3136283242
N  N204  1  0.77910000  0.40630000  0.27640000  1.0 -0.3136283242
N  N205  1  0.59370000  0.22090000  0.72360000  1.0 -0.3136283242
N  N206  1  0.09370000  0.27910000  0.77640000  1.0 -0.3136283242
N  N207  1  0.90630000  0.72090000  0.77640000  1.0 -0.3136283242
N  N208  1  0.22090000  0.59370000  0.27640000  1.0 -0.3136283242
N  N209  1  0.35260000  0.29970000  0.07190000  1.0 -0.1799157016
N  N210  1  0.20030000  0.85260000  0.57190000  1.0 -0.1799157016
N  N211  1  0.79970000  0.14740000  0.57190000  1.0 -0.1799157016
N  N212  1  0.29970000  0.35260000  0.92810000  1.0 -0.1799157016
N  N213  1  0.64740000  0.70030000  0.07190000  1.0 -0.1799157016
N  N214  1  0.14740000  0.79970000  0.42810000  1.0 -0.1799157016
N  N215  1  0.85260000  0.20030000  0.42810000  1.0 -0.1799157016
N  N216  1  0.70030000  0.64740000  0.92810000  1.0 -0.1799157016
N  N217  1  0.64740000  0.70030000  0.92810000  1.0 -0.1799157016
N  N218  1  0.79970000  0.14740000  0.42810000  1.0 -0.1799157016
N  N219  1  0.20030000  0.85260000  0.42810000  1.0 -0.1799157016
N  N220  1  0.70030000  0.64740000  0.07190000  1.0 -0.1799157016
N  N221  1  0.35260000  0.29970000  0.92810000  1.0 -0.1799157016
N  N222  1  0.85260000  0.20030000  0.57190000  1.0 -0.1799157016
N  N223  1  0.14740000  0.79970000  0.57190000  1.0 -0.1799157016
N  N224  1  0.29970000  0.35260000  0.07190000  1.0 -0.1799157016
