# DDEC6 charges by PACMAN v1.1 (https://github.com/mtap-research/PACMAN-charge/)
data_QOKTUH_ASR_pacman
_symmetry_space_group_name_H-M   'P 1'
_cell_length_a   34.22890000
_cell_length_b   34.22890000
_cell_length_c   34.22890000
_cell_angle_alpha   109.47100000
_cell_angle_beta   109.47100000
_cell_angle_gamma   109.47100000
_symmetry_Int_Tables_number   1
_chemical_formula_structural   Dy3H58C76(NO)18
_chemical_formula_sum   'Dy18 H348 C456 N108 O108'
_cell_volume   30871.69569548
_cell_formula_units_Z   6
loop_
 _symmetry_equiv_pos_site_id
 _symmetry_equiv_pos_as_xyz
  1  'x, y, z'
loop_
 _atom_site_type_symbol
 _atom_site_label
 _atom_site_symmetry_multiplicity
 _atom_site_fract_x
 _atom_site_fract_y
 _atom_site_fract_z
 _atom_site_occupancy
 _atom_site_charge
Dy  Dy1  1  0.62462000  0.00000000  0.00000000  1.0 1.7225587378
Dy  Dy2  1  0.00000000  0.00000000  0.62462000  1.0 1.7363475571
Dy  Dy3  1  0.00000000  0.62462000  0.00000000  1.0 1.7363475571
Dy  Dy4  1  0.37538000  0.37538000  0.37538000  1.0 1.7344592819
Dy  Dy5  1  0.44876000  0.00000000  0.44876000  1.0 1.8195987155
Dy  Dy6  1  0.00000000  0.44876000  0.44876000  1.0 1.8195987155
Dy  Dy7  1  0.55124000  0.00000000  0.55124000  1.0 1.8195987155
Dy  Dy8  1  0.00000000  0.55124000  0.55124000  1.0 1.8195987155
Dy  Dy9  1  0.55124000  0.55124000  0.00000000  1.0 1.8195987155
Dy  Dy10  1  0.44876000  0.44876000  0.00000000  1.0 1.8195987155
Dy  Dy11  1  0.00000000  0.00000000  0.49930000  1.0 1.6616130183
Dy  Dy12  1  0.00000000  0.49930000  0.00000000  1.0 1.6616130183
Dy  Dy13  1  0.50070000  0.50070000  0.50070000  1.0 1.6616130183
Dy  Dy14  1  0.49930000  0.00000000  0.00000000  1.0 1.6616130183
Dy  Dy15  1  0.00000000  0.00000000  0.37538000  1.0 0.9294103592
Dy  Dy16  1  0.00000000  0.37538000  0.00000000  1.0 0.9294103592
Dy  Dy17  1  0.62462000  0.62462000  0.62462000  1.0 0.9383180747
Dy  Dy18  1  0.37538000  0.00000000  0.00000000  1.0 0.9294103592
H  H1  1  0.83710000  0.96290000  0.41440000  1.0 0.0990721891
H  H2  1  0.03710000  0.45150000  0.87420000  1.0 0.0990721891
H  H3  1  0.54850000  0.42270000  0.58560000  1.0 0.0990721891
H  H4  1  0.57730000  0.16290000  0.12580000  1.0 0.0990721891
H  H5  1  0.54850000  0.58560000  0.42270000  1.0 0.0990721891
H  H6  1  0.16290000  0.57730000  0.12580000  1.0 0.0990721891
H  H7  1  0.45150000  0.87420000  0.03710000  1.0 0.0990721891
H  H8  1  0.12580000  0.57730000  0.16290000  1.0 0.0990721891
H  H9  1  0.45150000  0.03710000  0.87420000  1.0 0.0990721891
H  H10  1  0.58560000  0.42270000  0.54850000  1.0 0.0990721891
H  H11  1  0.41440000  0.83710000  0.96290000  1.0 0.0990721891
H  H12  1  0.96290000  0.41440000  0.83710000  1.0 0.0990721891
H  H13  1  0.57730000  0.12580000  0.16290000  1.0 0.0990721891
H  H14  1  0.58560000  0.54850000  0.42270000  1.0 0.0990721891
H  H15  1  0.42270000  0.58560000  0.54850000  1.0 0.0990721891
H  H16  1  0.87420000  0.45150000  0.03710000  1.0 0.0990721891
H  H17  1  0.12580000  0.16290000  0.57730000  1.0 0.0990721891
H  H18  1  0.03710000  0.87420000  0.45150000  1.0 0.0990721891
H  H19  1  0.42270000  0.54850000  0.58560000  1.0 0.0990721891
H  H20  1  0.96290000  0.83710000  0.41440000  1.0 0.0990721891
H  H21  1  0.16290000  0.12580000  0.57730000  1.0 0.0990721891
H  H22  1  0.83710000  0.41440000  0.96290000  1.0 0.0990721891
H  H23  1  0.87420000  0.03710000  0.45150000  1.0 0.0990721891
H  H24  1  0.41440000  0.96290000  0.83710000  1.0 0.0990721891
H  H25  1  0.76990000  0.96250000  0.36480000  1.0 0.0788926248
H  H26  1  0.03750000  0.40230000  0.80740000  1.0 0.0788926248
H  H27  1  0.59770000  0.40510000  0.63520000  1.0 0.0788926248
H  H28  1  0.59490000  0.23010000  0.19260000  1.0 0.0788926248
H  H29  1  0.59770000  0.63520000  0.40510000  1.0 0.0788926248
H  H30  1  0.23010000  0.59490000  0.19260000  1.0 0.0788926248
H  H31  1  0.40230000  0.80740000  0.03750000  1.0 0.0788926248
H  H32  1  0.19260000  0.59490000  0.23010000  1.0 0.0788926248
H  H33  1  0.40230000  0.03750000  0.80740000  1.0 0.0788926248
H  H34  1  0.63520000  0.40510000  0.59770000  1.0 0.0788926248
H  H35  1  0.36480000  0.76990000  0.96250000  1.0 0.0788926248
H  H36  1  0.96250000  0.36480000  0.76990000  1.0 0.0788926248
H  H37  1  0.59490000  0.19260000  0.23010000  1.0 0.0788926248
H  H38  1  0.63520000  0.59770000  0.40510000  1.0 0.0788926248
H  H39  1  0.40510000  0.63520000  0.59770000  1.0 0.0788926248
H  H40  1  0.80740000  0.40230000  0.03750000  1.0 0.0788926248
H  H41  1  0.19260000  0.23010000  0.59490000  1.0 0.0788926248
H  H42  1  0.03750000  0.80740000  0.40230000  1.0 0.0788926248
H  H43  1  0.40510000  0.59770000  0.63520000  1.0 0.0788926248
H  H44  1  0.96250000  0.76990000  0.36480000  1.0 0.0788926248
H  H45  1  0.23010000  0.19260000  0.59490000  1.0 0.0788926248
H  H46  1  0.76990000  0.36480000  0.96250000  1.0 0.0788926248
H  H47  1  0.80740000  0.03750000  0.40230000  1.0 0.0788926248
H  H48  1  0.36480000  0.96250000  0.76990000  1.0 0.0788926248
H  H49  1  0.84970000  0.03770000  0.32280000  1.0 0.0933737448
H  H50  1  0.96230000  0.28510000  0.81200000  1.0 0.0933737448
H  H51  1  0.71490000  0.52690000  0.67720000  1.0 0.0990721891
H  H52  1  0.47310000  0.15030000  0.18800000  1.0 0.0933737448
H  H53  1  0.71490000  0.67720000  0.52690000  1.0 0.0933737448
H  H54  1  0.15030000  0.47310000  0.18800000  1.0 0.0933737448
H  H55  1  0.28510000  0.81200000  0.96230000  1.0 0.0933737448
H  H56  1  0.18800000  0.47310000  0.15030000  1.0 0.0933737448
H  H57  1  0.28510000  0.96230000  0.81200000  1.0 0.0933737448
H  H58  1  0.67720000  0.52690000  0.71490000  1.0 0.0933737448
H  H59  1  0.32280000  0.84970000  0.03770000  1.0 0.0933737448
H  H60  1  0.03770000  0.32280000  0.84970000  1.0 0.0933737448
H  H61  1  0.47310000  0.18800000  0.15030000  1.0 0.0933737448
H  H62  1  0.67720000  0.71490000  0.52690000  1.0 0.0933737448
H  H63  1  0.52690000  0.67720000  0.71490000  1.0 0.0933737448
H  H64  1  0.81200000  0.28510000  0.96230000  1.0 0.0933737448
H  H65  1  0.18800000  0.15030000  0.47310000  1.0 0.0933737448
H  H66  1  0.96230000  0.81200000  0.28510000  1.0 0.0933737448
H  H67  1  0.52690000  0.71490000  0.67720000  1.0 0.0933737448
H  H68  1  0.03770000  0.84970000  0.32280000  1.0 0.0933737448
H  H69  1  0.15030000  0.18800000  0.47310000  1.0 0.0933737448
H  H70  1  0.84970000  0.32280000  0.03770000  1.0 0.0933737448
H  H71  1  0.81200000  0.96230000  0.28510000  1.0 0.0933737448
H  H72  1  0.32280000  0.03770000  0.84970000  1.0 0.0933737448
H  H73  1  0.91680000  0.03800000  0.37220000  1.0 0.0933737448
H  H74  1  0.96200000  0.33420000  0.87880000  1.0 0.0933737448
H  H75  1  0.66580000  0.54460000  0.62780000  1.0 0.0933737448
H  H76  1  0.45540000  0.08320000  0.12120000  1.0 0.0933737448
H  H77  1  0.66580000  0.62780000  0.54460000  1.0 0.0933737448
H  H78  1  0.08320000  0.45540000  0.12120000  1.0 0.0933737448
H  H79  1  0.33420000  0.87880000  0.96200000  1.0 0.0933737448
H  H80  1  0.12120000  0.45540000  0.08320000  1.0 0.0933737448
H  H81  1  0.33420000  0.96200000  0.87880000  1.0 0.0933737448
H  H82  1  0.62780000  0.54460000  0.66580000  1.0 0.0933737448
H  H83  1  0.37220000  0.91680000  0.03800000  1.0 0.0933737448
H  H84  1  0.03800000  0.37220000  0.91680000  1.0 0.0933737448
H  H85  1  0.45540000  0.12120000  0.08320000  1.0 0.0933737448
H  H86  1  0.62780000  0.66580000  0.54460000  1.0 0.0933737448
H  H87  1  0.54460000  0.62780000  0.66580000  1.0 0.0933737448
H  H88  1  0.87880000  0.33420000  0.96200000  1.0 0.0933737448
H  H89  1  0.12120000  0.08320000  0.45540000  1.0 0.0933737448
H  H90  1  0.96200000  0.87880000  0.33420000  1.0 0.0933737448
H  H91  1  0.54460000  0.66580000  0.62780000  1.0 0.0933737448
H  H92  1  0.03800000  0.91680000  0.37220000  1.0 0.0933737448
H  H93  1  0.08320000  0.12120000  0.45540000  1.0 0.0933737448
H  H94  1  0.91680000  0.37220000  0.03800000  1.0 0.0933737448
H  H95  1  0.87880000  0.96200000  0.33420000  1.0 0.0933737448
H  H96  1  0.37220000  0.03800000  0.91680000  1.0 0.0933737448
H  H97  1  0.59400000  0.00000000  0.25160000  1.0 0.2479071776
H  H98  1  0.00000000  0.25160000  0.59400000  1.0 0.2479071776
H  H99  1  0.74840000  0.34240000  0.74840000  1.0 0.2479071776
H  H100  1  0.65760000  0.40600000  0.40600000  1.0 0.2479071776
H  H101  1  0.74840000  0.74840000  0.34240000  1.0 0.2479071776
H  H102  1  0.40600000  0.65760000  0.40600000  1.0 0.2479071776
H  H103  1  0.25160000  0.59400000  0.00000000  1.0 0.2479071776
H  H104  1  0.25160000  0.00000000  0.59400000  1.0 0.2479071776
H  H105  1  0.34240000  0.74840000  0.74840000  1.0 0.2479071776
H  H106  1  0.59400000  0.25160000  0.00000000  1.0 0.2479071776
H  H107  1  0.40600000  0.40600000  0.65760000  1.0 0.2479071776
H  H108  1  0.00000000  0.59400000  0.25160000  1.0 0.2479071776
H  H109  1  0.55390000  0.01350000  0.38460000  1.0 0.0788926248
H  H110  1  0.98650000  0.37110000  0.54040000  1.0 0.0788926248
H  H111  1  0.62890000  0.16930000  0.61540000  1.0 0.0788926248
H  H112  1  0.83070000  0.44610000  0.45960000  1.0 0.0788926248
H  H113  1  0.62890000  0.61540000  0.16930000  1.0 0.0788926248
H  H114  1  0.44610000  0.83070000  0.45960000  1.0 0.0788926248
H  H115  1  0.37110000  0.54040000  0.98650000  1.0 0.0788926248
H  H116  1  0.45960000  0.83070000  0.44610000  1.0 0.0788926248
H  H117  1  0.37110000  0.98650000  0.54040000  1.0 0.0788926248
H  H118  1  0.61540000  0.16930000  0.62890000  1.0 0.0788926248
H  H119  1  0.38460000  0.55390000  0.01350000  1.0 0.0788926248
H  H120  1  0.01350000  0.38460000  0.55390000  1.0 0.0788926248
H  H121  1  0.83070000  0.45960000  0.44610000  1.0 0.0788926248
H  H122  1  0.61540000  0.62890000  0.16930000  1.0 0.0788926248
H  H123  1  0.16930000  0.61540000  0.62890000  1.0 0.0788926248
H  H124  1  0.54040000  0.37110000  0.98650000  1.0 0.0788926248
H  H125  1  0.45960000  0.44610000  0.83070000  1.0 0.0788926248
H  H126  1  0.98650000  0.54040000  0.37110000  1.0 0.0788926248
H  H127  1  0.16930000  0.62890000  0.61540000  1.0 0.0788926248
H  H128  1  0.01350000  0.55390000  0.38460000  1.0 0.0788926248
H  H129  1  0.44610000  0.45960000  0.83070000  1.0 0.0788926248
H  H130  1  0.55390000  0.38460000  0.01350000  1.0 0.0788926248
H  H131  1  0.54040000  0.98650000  0.37110000  1.0 0.0788926248
H  H132  1  0.38460000  0.01350000  0.55390000  1.0 0.0788926248
H  H133  1  0.67260000  0.98150000  0.45890000  1.0 0.0690032011
H  H134  1  0.01850000  0.47740000  0.69110000  1.0 0.0690032011
H  H135  1  0.52260000  0.21370000  0.54110000  1.0 0.0690032011
H  H136  1  0.78630000  0.32740000  0.30890000  1.0 0.0690032011
H  H137  1  0.52260000  0.54110000  0.21370000  1.0 0.0690032011
H  H138  1  0.32740000  0.78630000  0.30890000  1.0 0.0690032011
H  H139  1  0.47740000  0.69110000  0.01850000  1.0 0.0690032011
H  H140  1  0.30890000  0.78630000  0.32740000  1.0 0.0690032011
H  H141  1  0.47740000  0.01850000  0.69110000  1.0 0.0690032011
H  H142  1  0.54110000  0.21370000  0.52260000  1.0 0.0690032011
H  H143  1  0.45890000  0.67260000  0.98150000  1.0 0.0690032011
H  H144  1  0.98150000  0.45890000  0.67260000  1.0 0.0690032011
H  H145  1  0.78630000  0.30890000  0.32740000  1.0 0.0690032011
H  H146  1  0.54110000  0.52260000  0.21370000  1.0 0.0690032011
H  H147  1  0.21370000  0.54110000  0.52260000  1.0 0.0690032011
H  H148  1  0.69110000  0.47740000  0.01850000  1.0 0.0690032011
H  H149  1  0.30890000  0.32740000  0.78630000  1.0 0.0690032011
H  H150  1  0.01850000  0.69110000  0.47740000  1.0 0.0690032011
H  H151  1  0.21370000  0.52260000  0.54110000  1.0 0.0690032011
H  H152  1  0.98150000  0.67260000  0.45890000  1.0 0.0690032011
H  H153  1  0.32740000  0.30890000  0.78630000  1.0 0.0690032011
H  H154  1  0.67260000  0.45890000  0.98150000  1.0 0.0690032011
H  H155  1  0.69110000  0.01850000  0.47740000  1.0 0.0690032011
H  H156  1  0.45890000  0.98150000  0.67260000  1.0 0.0690032011
H  H157  1  0.61170000  0.01650000  0.36140000  1.0 0.0690032011
H  H158  1  0.98350000  0.34490000  0.59520000  1.0 0.0690032011
H  H159  1  0.65510000  0.25030000  0.63860000  1.0 0.0690032011
H  H160  1  0.74970000  0.38830000  0.40480000  1.0 0.0690032011
H  H161  1  0.65510000  0.63860000  0.25030000  1.0 0.0690032011
H  H162  1  0.38830000  0.74970000  0.40480000  1.0 0.0690032011
H  H163  1  0.34490000  0.59520000  0.98350000  1.0 0.0690032011
H  H164  1  0.40480000  0.74970000  0.38830000  1.0 0.0690032011
H  H165  1  0.34490000  0.98350000  0.59520000  1.0 0.0690032011
H  H166  1  0.63860000  0.25030000  0.65510000  1.0 0.0690032011
H  H167  1  0.36140000  0.61170000  0.01650000  1.0 0.0788926248
H  H168  1  0.01650000  0.36140000  0.61170000  1.0 0.0690032011
H  H169  1  0.74970000  0.40480000  0.38830000  1.0 0.0690032011
H  H170  1  0.63860000  0.65510000  0.25030000  1.0 0.0690032011
H  H171  1  0.25030000  0.63860000  0.65510000  1.0 0.0690032011
H  H172  1  0.59520000  0.34490000  0.98350000  1.0 0.0690032011
H  H173  1  0.40480000  0.38830000  0.74970000  1.0 0.0690032011
H  H174  1  0.98350000  0.59520000  0.34490000  1.0 0.0690032011
H  H175  1  0.25030000  0.65510000  0.63860000  1.0 0.0690032011
H  H176  1  0.01650000  0.61170000  0.36140000  1.0 0.0690032011
H  H177  1  0.38830000  0.40480000  0.74970000  1.0 0.0690032011
H  H178  1  0.61170000  0.36140000  0.01650000  1.0 0.0788926248
H  H179  1  0.59520000  0.98350000  0.34490000  1.0 0.0690032011
H  H180  1  0.36140000  0.01650000  0.61170000  1.0 0.0690032011
H  H181  1  0.61460000  0.97850000  0.48190000  1.0 0.059591019
H  H182  1  0.02150000  0.50340000  0.63610000  1.0 0.059591019
H  H183  1  0.49660000  0.13270000  0.51810000  1.0 0.059591019
H  H184  1  0.86730000  0.38540000  0.36390000  1.0 0.059591019
H  H185  1  0.49660000  0.51810000  0.13270000  1.0 0.059591019
H  H186  1  0.38540000  0.86730000  0.36390000  1.0 0.059591019
H  H187  1  0.50340000  0.63610000  0.02150000  1.0 0.059591019
H  H188  1  0.36390000  0.86730000  0.38540000  1.0 0.059591019
H  H189  1  0.50340000  0.02150000  0.63610000  1.0 0.059591019
H  H190  1  0.51810000  0.13270000  0.49660000  1.0 0.059591019
H  H191  1  0.48190000  0.61460000  0.97850000  1.0 0.059591019
H  H192  1  0.97850000  0.48190000  0.61460000  1.0 0.059591019
H  H193  1  0.86730000  0.36390000  0.38540000  1.0 0.059591019
H  H194  1  0.51810000  0.49660000  0.13270000  1.0 0.059591019
H  H195  1  0.13270000  0.51810000  0.49660000  1.0 0.059591019
H  H196  1  0.63610000  0.50340000  0.02150000  1.0 0.059591019
H  H197  1  0.36390000  0.38540000  0.86730000  1.0 0.059591019
H  H198  1  0.02150000  0.63610000  0.50340000  1.0 0.059591019
H  H199  1  0.13270000  0.49660000  0.51810000  1.0 0.059591019
H  H200  1  0.97850000  0.61460000  0.48190000  1.0 0.059591019
H  H201  1  0.38540000  0.36390000  0.86730000  1.0 0.059591019
H  H202  1  0.61460000  0.48190000  0.97850000  1.0 0.059591019
H  H203  1  0.63610000  0.02150000  0.50340000  1.0 0.059591019
H  H204  1  0.48190000  0.97850000  0.61460000  1.0 0.059591019
H  H205  1  0.54190000  0.97980000  0.17910000  1.0 0.059591019
H  H206  1  0.02020000  0.19930000  0.56210000  1.0 0.059591019
H  H207  1  0.80070000  0.36280000  0.82090000  1.0 0.059591019
H  H208  1  0.63720000  0.45810000  0.43790000  1.0 0.059591019
H  H209  1  0.80070000  0.82090000  0.36280000  1.0 0.059591019
H  H210  1  0.45810000  0.63720000  0.43790000  1.0 0.059591019
H  H211  1  0.19930000  0.56210000  0.02020000  1.0 0.059591019
H  H212  1  0.43790000  0.63720000  0.45810000  1.0 0.059591019
H  H213  1  0.19930000  0.02020000  0.56210000  1.0 0.059591019
H  H214  1  0.82090000  0.36280000  0.80070000  1.0 0.059591019
H  H215  1  0.17910000  0.54190000  0.97980000  1.0 0.059591019
H  H216  1  0.97980000  0.17910000  0.54190000  1.0 0.059591019
H  H217  1  0.63720000  0.43790000  0.45810000  1.0 0.059591019
H  H218  1  0.82090000  0.80070000  0.36280000  1.0 0.059591019
H  H219  1  0.36280000  0.82090000  0.80070000  1.0 0.059591019
H  H220  1  0.56210000  0.19930000  0.02020000  1.0 0.059591019
H  H221  1  0.43790000  0.45810000  0.63720000  1.0 0.059591019
H  H222  1  0.02020000  0.56210000  0.19930000  1.0 0.059591019
H  H223  1  0.36280000  0.80070000  0.82090000  1.0 0.059591019
H  H224  1  0.97980000  0.54190000  0.17910000  1.0 0.059591019
H  H225  1  0.45810000  0.43790000  0.63720000  1.0 0.059591019
H  H226  1  0.54190000  0.17910000  0.97980000  1.0 0.059591019
H  H227  1  0.56210000  0.02020000  0.19930000  1.0 0.059591019
H  H228  1  0.17910000  0.97980000  0.54190000  1.0 0.059591019
H  H229  1  0.66840000  0.01450000  0.14650000  1.0 0.0933737448
H  H230  1  0.98550000  0.13200000  0.65390000  1.0 0.0933737448
H  H231  1  0.86800000  0.52190000  0.85350000  1.0 0.0933737448
H  H232  1  0.47810000  0.33160000  0.34610000  1.0 0.0933737448
H  H233  1  0.86800000  0.85350000  0.52190000  1.0 0.0933737448
H  H234  1  0.33160000  0.47810000  0.34610000  1.0 0.0933737448
H  H235  1  0.13200000  0.65390000  0.98550000  1.0 0.0933737448
H  H236  1  0.34610000  0.47810000  0.33160000  1.0 0.0933737448
H  H237  1  0.13200000  0.98550000  0.65390000  1.0 0.0933737448
H  H238  1  0.85350000  0.52190000  0.86800000  1.0 0.0933737448
H  H239  1  0.14650000  0.66840000  0.01450000  1.0 0.0933737448
H  H240  1  0.01450000  0.14650000  0.66840000  1.0 0.0933737448
H  H241  1  0.47810000  0.34610000  0.33160000  1.0 0.0933737448
H  H242  1  0.85350000  0.86800000  0.52190000  1.0 0.0933737448
H  H243  1  0.52190000  0.85350000  0.86800000  1.0 0.0933737448
H  H244  1  0.65390000  0.13200000  0.98550000  1.0 0.0933737448
H  H245  1  0.34610000  0.33160000  0.47810000  1.0 0.0933737448
H  H246  1  0.98550000  0.65390000  0.13200000  1.0 0.0933737448
H  H247  1  0.52190000  0.86800000  0.85350000  1.0 0.0933737448
H  H248  1  0.01450000  0.66840000  0.14650000  1.0 0.0933737448
H  H249  1  0.33160000  0.34610000  0.47810000  1.0 0.0933737448
H  H250  1  0.66840000  0.14650000  0.01450000  1.0 0.0933737448
H  H251  1  0.65390000  0.98550000  0.13200000  1.0 0.0933737448
H  H252  1  0.14650000  0.01450000  0.66840000  1.0 0.0933737448
H  H253  1  0.76060000  0.99140000  0.28100000  1.0 0.1544244393
H  H254  1  0.00860000  0.28960000  0.76920000  1.0 0.1544244393
H  H255  1  0.71040000  0.47960000  0.71900000  1.0 0.1544244393
H  H256  1  0.52040000  0.23940000  0.23080000  1.0 0.1544244393
H  H257  1  0.71040000  0.71900000  0.47960000  1.0 0.1544244393
H  H258  1  0.23940000  0.52040000  0.23080000  1.0 0.1544244393
H  H259  1  0.28960000  0.76920000  0.00860000  1.0 0.1544244393
H  H260  1  0.23080000  0.52040000  0.23940000  1.0 0.1544244393
H  H261  1  0.28960000  0.00860000  0.76920000  1.0 0.1544244393
H  H262  1  0.71900000  0.47960000  0.71040000  1.0 0.1544244393
H  H263  1  0.28100000  0.76060000  0.99140000  1.0 0.1544244393
H  H264  1  0.99140000  0.28100000  0.76060000  1.0 0.1544244393
H  H265  1  0.52040000  0.23080000  0.23940000  1.0 0.1544244393
H  H266  1  0.71900000  0.71040000  0.47960000  1.0 0.1544244393
H  H267  1  0.47960000  0.71900000  0.71040000  1.0 0.1544244393
H  H268  1  0.76920000  0.28960000  0.00860000  1.0 0.1544244393
H  H269  1  0.23080000  0.23940000  0.52040000  1.0 0.1544244393
H  H270  1  0.00860000  0.76920000  0.28960000  1.0 0.1544244393
H  H271  1  0.47960000  0.71040000  0.71900000  1.0 0.1544244393
H  H272  1  0.99140000  0.76060000  0.28100000  1.0 0.1544244393
H  H273  1  0.23940000  0.23080000  0.52040000  1.0 0.1544244393
H  H274  1  0.76060000  0.28100000  0.99140000  1.0 0.1544244393
H  H275  1  0.76920000  0.00860000  0.28960000  1.0 0.1544244393
H  H276  1  0.28100000  0.99140000  0.76060000  1.0 0.1544244393
H  H277  1  0.53090000  0.98290000  0.10820000  1.0 0.0690032011
H  H278  1  0.01710000  0.12530000  0.54800000  1.0 0.0690032011
H  H279  1  0.87470000  0.42270000  0.89180000  1.0 0.0690032011
H  H280  1  0.57730000  0.46910000  0.45200000  1.0 0.0690032011
H  H281  1  0.87470000  0.89180000  0.42270000  1.0 0.0690032011
H  H282  1  0.46910000  0.57730000  0.45200000  1.0 0.0690032011
H  H283  1  0.12530000  0.54800000  0.01710000  1.0 0.0690032011
H  H284  1  0.45200000  0.57730000  0.46910000  1.0 0.0690032011
H  H285  1  0.12530000  0.01710000  0.54800000  1.0 0.0690032011
H  H286  1  0.89180000  0.42270000  0.87470000  1.0 0.0690032011
H  H287  1  0.10820000  0.53090000  0.98290000  1.0 0.0690032011
H  H288  1  0.98290000  0.10820000  0.53090000  1.0 0.0690032011
H  H289  1  0.57730000  0.45200000  0.46910000  1.0 0.0690032011
H  H290  1  0.89180000  0.87470000  0.42270000  1.0 0.0690032011
H  H291  1  0.42270000  0.89180000  0.87470000  1.0 0.0690032011
H  H292  1  0.54800000  0.12530000  0.01710000  1.0 0.0690032011
H  H293  1  0.45200000  0.46910000  0.57730000  1.0 0.0690032011
H  H294  1  0.01710000  0.54800000  0.12530000  1.0 0.0690032011
H  H295  1  0.42270000  0.87470000  0.89180000  1.0 0.0690032011
H  H296  1  0.98290000  0.53090000  0.10820000  1.0 0.0690032011
H  H297  1  0.46910000  0.45200000  0.57730000  1.0 0.0690032011
H  H298  1  0.53090000  0.10820000  0.98290000  1.0 0.0690032011
H  H299  1  0.54800000  0.01710000  0.12530000  1.0 0.0690032011
H  H300  1  0.10820000  0.98290000  0.53090000  1.0 0.0690032011
H  H301  1  0.71230000  0.01300000  0.41630000  1.0 0.1079400927
H  H302  1  0.98700000  0.40330000  0.69930000  1.0 0.1079400927
H  H303  1  0.59670000  0.29600000  0.58370000  1.0 0.1079400927
H  H304  1  0.70400000  0.28770000  0.30070000  1.0 0.1079400927
H  H305  1  0.59670000  0.58370000  0.29600000  1.0 0.1079400927
H  H306  1  0.28770000  0.70400000  0.30070000  1.0 0.1079400927
H  H307  1  0.40330000  0.69930000  0.98700000  1.0 0.1079400927
H  H308  1  0.30070000  0.70400000  0.28770000  1.0 0.1079400927
H  H309  1  0.40330000  0.98700000  0.69930000  1.0 0.1079400927
H  H310  1  0.58370000  0.29600000  0.59670000  1.0 0.1079400927
H  H311  1  0.41630000  0.71230000  0.01300000  1.0 0.1079400927
H  H312  1  0.01300000  0.41630000  0.71230000  1.0 0.1079400927
H  H313  1  0.70400000  0.30070000  0.28770000  1.0 0.1079400927
H  H314  1  0.58370000  0.59670000  0.29600000  1.0 0.1079400927
H  H315  1  0.29600000  0.58370000  0.59670000  1.0 0.1079400927
H  H316  1  0.69930000  0.40330000  0.98700000  1.0 0.1079400927
H  H317  1  0.30070000  0.28770000  0.70400000  1.0 0.1079400927
H  H318  1  0.98700000  0.69930000  0.40330000  1.0 0.1079400927
H  H319  1  0.29600000  0.59670000  0.58370000  1.0 0.1079400927
H  H320  1  0.01300000  0.71230000  0.41630000  1.0 0.1079400927
H  H321  1  0.28770000  0.30070000  0.70400000  1.0 0.1079400927
H  H322  1  0.71230000  0.41630000  0.01300000  1.0 0.1079400927
H  H323  1  0.69930000  0.98700000  0.40330000  1.0 0.1079400927
H  H324  1  0.41630000  0.01300000  0.71230000  1.0 0.1079400927
H  H325  1  0.67840000  0.01080000  0.21640000  1.0 0.0933737448
H  H326  1  0.98920000  0.20560000  0.66760000  1.0 0.0933737448
H  H327  1  0.79440000  0.46200000  0.78360000  1.0 0.0933737448
H  H328  1  0.53800000  0.32160000  0.33240000  1.0 0.0933737448
H  H329  1  0.79440000  0.78360000  0.46200000  1.0 0.0933737448
H  H330  1  0.32160000  0.53800000  0.33240000  1.0 0.0933737448
H  H331  1  0.20560000  0.66760000  0.98920000  1.0 0.0933737448
H  H332  1  0.33240000  0.53800000  0.32160000  1.0 0.0933737448
H  H333  1  0.20560000  0.98920000  0.66760000  1.0 0.0933737448
H  H334  1  0.78360000  0.46200000  0.79440000  1.0 0.0933737448
H  H335  1  0.21640000  0.67840000  0.01080000  1.0 0.0933737448
H  H336  1  0.01080000  0.21640000  0.67840000  1.0 0.0933737448
H  H337  1  0.53800000  0.33240000  0.32160000  1.0 0.0933737448
H  H338  1  0.78360000  0.79440000  0.46200000  1.0 0.0933737448
H  H339  1  0.46200000  0.78360000  0.79440000  1.0 0.0933737448
H  H340  1  0.66760000  0.20560000  0.98920000  1.0 0.0933737448
H  H341  1  0.33240000  0.32160000  0.53800000  1.0 0.0933737448
H  H342  1  0.98920000  0.66760000  0.20560000  1.0 0.0933737448
H  H343  1  0.46200000  0.79440000  0.78360000  1.0 0.0933737448
H  H344  1  0.01080000  0.67840000  0.21640000  1.0 0.0933737448
H  H345  1  0.32160000  0.33240000  0.53800000  1.0 0.0933737448
H  H346  1  0.67840000  0.21640000  0.01080000  1.0 0.0933737448
H  H347  1  0.66760000  0.98920000  0.20560000  1.0 0.0933737448
H  H348  1  0.21640000  0.01080000  0.67840000  1.0 0.0933737448
C  C1  1  0.59155000  0.00000000  0.07525000  1.0 0.5506033013
C  C2  1  0.00000000  0.07525000  0.59155000  1.0 0.5506033013
C  C3  1  0.92475000  0.51630000  0.92475000  1.0 0.5506033013
C  C4  1  0.48370000  0.40845000  0.40845000  1.0 0.5506033013
C  C5  1  0.92475000  0.92475000  0.51630000  1.0 0.5506033013
C  C6  1  0.40845000  0.48370000  0.40845000  1.0 0.5506033013
C  C7  1  0.07525000  0.59155000  0.00000000  1.0 0.5506033013
C  C8  1  0.07525000  0.00000000  0.59155000  1.0 0.5506033013
C  C9  1  0.51630000  0.92475000  0.92475000  1.0 0.5506033013
C  C10  1  0.59155000  0.07525000  0.00000000  1.0 0.5506033013
C  C11  1  0.40845000  0.40845000  0.48370000  1.0 0.5506033013
C  C12  1  0.00000000  0.59155000  0.07525000  1.0 0.5506033013
C  C13  1  0.59980000  0.00000000  0.12080000  1.0 -0.0358038428
C  C14  1  0.00000000  0.12080000  0.59980000  1.0 -0.0358038428
C  C15  1  0.87920000  0.47900000  0.87920000  1.0 -0.0358038428
C  C16  1  0.52100000  0.40020000  0.40020000  1.0 -0.0358038428
C  C17  1  0.87920000  0.87920000  0.47900000  1.0 -0.0358038428
C  C18  1  0.40020000  0.52100000  0.40020000  1.0 -0.0358038428
C  C19  1  0.12080000  0.59980000  0.00000000  1.0 -0.0358038428
C  C20  1  0.12080000  0.00000000  0.59980000  1.0 -0.0358038428
C  C21  1  0.47900000  0.87920000  0.87920000  1.0 -0.0358038428
C  C22  1  0.59980000  0.12080000  0.00000000  1.0 -0.0358038428
C  C23  1  0.40020000  0.40020000  0.52100000  1.0 -0.0358038428
C  C24  1  0.00000000  0.59980000  0.12080000  1.0 -0.0358038428
C  C25  1  0.56110000  0.98890000  0.13040000  1.0 -0.0310591562
C  C26  1  0.01110000  0.14150000  0.57220000  1.0 -0.0358038428
C  C27  1  0.85850000  0.43070000  0.86960000  1.0 -0.0310591562
C  C28  1  0.56930000  0.43890000  0.42780000  1.0 -0.0310591562
C  C29  1  0.85850000  0.86960000  0.43070000  1.0 -0.0310591562
C  C30  1  0.43890000  0.56930000  0.42780000  1.0 -0.0310591562
C  C31  1  0.14150000  0.57220000  0.01110000  1.0 -0.0358038428
C  C32  1  0.42780000  0.56930000  0.43890000  1.0 -0.0310591562
C  C33  1  0.14150000  0.01110000  0.57220000  1.0 -0.0358038428
C  C34  1  0.86960000  0.43070000  0.85850000  1.0 -0.0310591562
C  C35  1  0.13040000  0.56110000  0.98890000  1.0 -0.0358038428
C  C36  1  0.98890000  0.13040000  0.56110000  1.0 -0.0310591562
C  C37  1  0.56930000  0.42780000  0.43890000  1.0 -0.0310591562
C  C38  1  0.86960000  0.85850000  0.43070000  1.0 -0.0310591562
C  C39  1  0.43070000  0.86960000  0.85850000  1.0 -0.0310591562
C  C40  1  0.57220000  0.14150000  0.01110000  1.0 -0.0310591562
C  C41  1  0.42780000  0.43890000  0.56930000  1.0 -0.0310591562
C  C42  1  0.01110000  0.57220000  0.14150000  1.0 -0.0358038428
C  C43  1  0.43070000  0.85850000  0.86960000  1.0 -0.0310591562
C  C44  1  0.98890000  0.56110000  0.13040000  1.0 -0.0310591562
C  C45  1  0.43890000  0.42780000  0.56930000  1.0 -0.0310591562
C  C46  1  0.56110000  0.13040000  0.98890000  1.0 -0.0358038428
C  C47  1  0.57220000  0.01110000  0.14150000  1.0 -0.0358038428
C  C48  1  0.13040000  0.98890000  0.56110000  1.0 -0.0358038428
C  C49  1  0.56750000  0.98780000  0.17230000  1.0 -0.0499813356
C  C50  1  0.01220000  0.18450000  0.57970000  1.0 -0.0499813356
C  C51  1  0.81550000  0.39520000  0.82770000  1.0 -0.0499813356
C  C52  1  0.60480000  0.43250000  0.42030000  1.0 -0.0499813356
C  C53  1  0.81550000  0.82770000  0.39520000  1.0 -0.0499813356
C  C54  1  0.43250000  0.60480000  0.42030000  1.0 -0.0499813356
C  C55  1  0.18450000  0.57970000  0.01220000  1.0 -0.0499813356
C  C56  1  0.42030000  0.60480000  0.43250000  1.0 -0.0499813356
C  C57  1  0.18450000  0.01220000  0.57970000  1.0 -0.0499813356
C  C58  1  0.82770000  0.39520000  0.81550000  1.0 -0.0499813356
C  C59  1  0.17230000  0.56750000  0.98780000  1.0 -0.0499813356
C  C60  1  0.98780000  0.17230000  0.56750000  1.0 -0.0499813356
C  C61  1  0.60480000  0.42030000  0.43250000  1.0 -0.0499813356
C  C62  1  0.82770000  0.81550000  0.39520000  1.0 -0.0499813356
C  C63  1  0.39520000  0.82770000  0.81550000  1.0 -0.0499813356
C  C64  1  0.57970000  0.18450000  0.01220000  1.0 -0.0499813356
C  C65  1  0.42030000  0.43250000  0.60480000  1.0 -0.0499813356
C  C66  1  0.01220000  0.57970000  0.18450000  1.0 -0.0499813356
C  C67  1  0.39520000  0.81550000  0.82770000  1.0 -0.0499813356
C  C68  1  0.98780000  0.56750000  0.17230000  1.0 -0.0499813356
C  C69  1  0.43250000  0.42030000  0.60480000  1.0 -0.0499813356
C  C70  1  0.56750000  0.17230000  0.98780000  1.0 -0.0499813356
C  C71  1  0.57970000  0.01220000  0.18450000  1.0 -0.0499813356
C  C72  1  0.17230000  0.98780000  0.56750000  1.0 -0.0499813356
C  C73  1  0.61510000  0.00000000  0.20450000  1.0 0.0933737448
C  C74  1  0.00000000  0.20450000  0.61510000  1.0 0.0933737448
C  C75  1  0.79550000  0.41060000  0.79550000  1.0 0.0933737448
C  C76  1  0.58940000  0.38490000  0.38490000  1.0 0.0933737448
C  C77  1  0.79550000  0.79550000  0.41060000  1.0 0.0933737448
C  C78  1  0.38490000  0.58940000  0.38490000  1.0 0.0933737448
C  C79  1  0.20450000  0.61510000  0.00000000  1.0 0.0933737448
C  C80  1  0.20450000  0.00000000  0.61510000  1.0 0.0933737448
C  C81  1  0.41060000  0.79550000  0.79550000  1.0 0.0933737448
C  C82  1  0.61510000  0.20450000  0.00000000  1.0 0.0933737448
C  C83  1  0.38490000  0.38490000  0.58940000  1.0 0.0933737448
C  C84  1  0.00000000  0.61510000  0.20450000  1.0 0.0933737448
C  C85  1  0.64880000  0.00650000  0.19490000  1.0 -0.1410128676
C  C86  1  0.99350000  0.18840000  0.64230000  1.0 -0.1410128676
C  C87  1  0.81160000  0.45390000  0.80510000  1.0 -0.1410128676
C  C88  1  0.54610000  0.35120000  0.35770000  1.0 -0.1410128676
C  C89  1  0.81160000  0.80510000  0.45390000  1.0 -0.1410128676
C  C90  1  0.35120000  0.54610000  0.35770000  1.0 -0.1410128676
C  C91  1  0.18840000  0.64230000  0.99350000  1.0 -0.1410128676
C  C92  1  0.35770000  0.54610000  0.35120000  1.0 -0.1410128676
C  C93  1  0.18840000  0.99350000  0.64230000  1.0 -0.1410128676
C  C94  1  0.80510000  0.45390000  0.81160000  1.0 -0.1410128676
C  C95  1  0.19490000  0.64880000  0.00650000  1.0 -0.1410128676
C  C96  1  0.00650000  0.19490000  0.64880000  1.0 -0.1410128676
C  C97  1  0.54610000  0.35770000  0.35120000  1.0 -0.1410128676
C  C98  1  0.80510000  0.81160000  0.45390000  1.0 -0.1410128676
C  C99  1  0.45390000  0.80510000  0.81160000  1.0 -0.1410128676
C  C100  1  0.64230000  0.18840000  0.99350000  1.0 -0.1410128676
C  C101  1  0.35770000  0.35120000  0.54610000  1.0 -0.1410128676
C  C102  1  0.99350000  0.64230000  0.18840000  1.0 -0.1410128676
C  C103  1  0.45390000  0.81160000  0.80510000  1.0 -0.1410128676
C  C104  1  0.00650000  0.64880000  0.19490000  1.0 -0.1410128676
C  C105  1  0.35120000  0.35770000  0.54610000  1.0 -0.1410128676
C  C106  1  0.64880000  0.19490000  0.00650000  1.0 -0.1410128676
C  C107  1  0.64230000  0.99350000  0.18840000  1.0 -0.1410128676
C  C108  1  0.19490000  0.00650000  0.64880000  1.0 -0.1410128676
C  C109  1  0.64248000  0.00758000  0.15310000  1.0 -0.0638874
C  C110  1  0.99242000  0.14552000  0.63490000  1.0 -0.0638874
C  C111  1  0.85448000  0.48938000  0.84690000  1.0 -0.0638874
C  C112  1  0.51062000  0.35752000  0.36510000  1.0 -0.0638874
C  C113  1  0.85448000  0.84690000  0.48938000  1.0 -0.0666928831
C  C114  1  0.35752000  0.51062000  0.36510000  1.0 -0.0666928831
C  C115  1  0.14552000  0.63490000  0.99242000  1.0 -0.0666928831
C  C116  1  0.36510000  0.51062000  0.35752000  1.0 -0.0666928831
C  C117  1  0.14552000  0.99242000  0.63490000  1.0 -0.0638874
C  C118  1  0.84690000  0.48938000  0.85448000  1.0 -0.0638874
C  C119  1  0.15310000  0.64248000  0.00758000  1.0 -0.0666928831
C  C120  1  0.00758000  0.15310000  0.64248000  1.0 -0.0666928831
C  C121  1  0.51062000  0.36510000  0.35752000  1.0 -0.0638874
C  C122  1  0.84690000  0.85448000  0.48938000  1.0 -0.0666928831
C  C123  1  0.48938000  0.84690000  0.85448000  1.0 -0.0666928831
C  C124  1  0.63490000  0.14552000  0.99242000  1.0 -0.0638874
C  C125  1  0.36510000  0.35752000  0.51062000  1.0 -0.0638874
C  C126  1  0.99242000  0.63490000  0.14552000  1.0 -0.0666928831
C  C127  1  0.48938000  0.85448000  0.84690000  1.0 -0.0666928831
C  C128  1  0.00758000  0.64248000  0.15310000  1.0 -0.0638874
C  C129  1  0.35752000  0.36510000  0.51062000  1.0 -0.0638874
C  C130  1  0.64248000  0.15310000  0.00758000  1.0 -0.0638874
C  C131  1  0.63490000  0.99242000  0.14552000  1.0 -0.0666928831
C  C132  1  0.15310000  0.00758000  0.64248000  1.0 -0.0666928831
C  C133  1  0.92567000  0.00000000  0.43013000  1.0 0.4792157632
C  C134  1  0.00000000  0.43013000  0.92567000  1.0 0.4792157632
C  C135  1  0.56987000  0.49554000  0.56987000  1.0 0.4792157632
C  C136  1  0.50446000  0.07433000  0.07433000  1.0 0.4792157632
C  C137  1  0.56987000  0.56987000  0.49554000  1.0 0.4792157632
C  C138  1  0.07433000  0.50446000  0.07433000  1.0 0.4792157632
C  C139  1  0.43013000  0.92567000  0.00000000  1.0 0.4792157632
C  C140  1  0.43013000  0.00000000  0.92567000  1.0 0.4792157632
C  C141  1  0.49554000  0.56987000  0.56987000  1.0 0.4792157632
C  C142  1  0.92567000  0.43013000  0.00000000  1.0 0.4792157632
C  C143  1  0.07433000  0.07433000  0.50446000  1.0 0.4792157632
C  C144  1  0.00000000  0.92567000  0.43013000  1.0 0.4792157632
C  C145  1  0.88247000  0.00000000  0.39793000  1.0 0.0105661714
C  C146  1  0.00000000  0.39794000  0.88247000  1.0 0.0105661714
C  C147  1  0.60206000  0.48453000  0.60206000  1.0 0.0105661714
C  C148  1  0.51547000  0.11754000  0.11754000  1.0 0.0105661714
C  C149  1  0.60206000  0.60206000  0.48453000  1.0 0.0105661714
C  C150  1  0.11754000  0.51547000  0.11754000  1.0 0.0105661714
C  C151  1  0.39793000  0.88247000  0.00000000  1.0 0.0105661714
C  C152  1  0.39794000  0.00000000  0.88247000  1.0 0.0105661714
C  C153  1  0.48453000  0.60206000  0.60206000  1.0 0.0105661714
C  C154  1  0.88247000  0.39793000  0.00000000  1.0 0.0105661714
C  C155  1  0.11754000  0.11754000  0.51547000  1.0 0.0105661714
C  C156  1  0.00000000  0.88247000  0.39793000  1.0 0.0105661714
C  C157  1  0.83891000  0.97781000  0.39550000  1.0 -0.0793860976
C  C158  1  0.02219000  0.41769000  0.86110000  1.0 -0.0793860976
C  C159  1  0.58231000  0.44341000  0.60450000  1.0 -0.0793860976
C  C160  1  0.55659000  0.16109000  0.13890000  1.0 -0.0793860976
C  C161  1  0.58231000  0.60450000  0.44341000  1.0 -0.0793860976
C  C162  1  0.16109000  0.55659000  0.13890000  1.0 -0.0793860976
C  C163  1  0.41769000  0.86110000  0.02219000  1.0 -0.0793860976
C  C164  1  0.13890000  0.55659000  0.16109000  1.0 -0.0793860976
C  C165  1  0.41769000  0.02219000  0.86110000  1.0 -0.0793860976
C  C166  1  0.60450000  0.44341000  0.58231000  1.0 -0.0793860976
C  C167  1  0.39550000  0.83891000  0.97781000  1.0 -0.0793860976
C  C168  1  0.97781000  0.39550000  0.83891000  1.0 -0.0793860976
C  C169  1  0.55659000  0.13890000  0.16109000  1.0 -0.0793860976
C  C170  1  0.60450000  0.58231000  0.44341000  1.0 -0.0793860976
C  C171  1  0.44341000  0.60450000  0.58231000  1.0 -0.0793860976
C  C172  1  0.86110000  0.41769000  0.02219000  1.0 -0.0793860976
C  C173  1  0.13890000  0.16109000  0.55659000  1.0 -0.0793860976
C  C174  1  0.02219000  0.86110000  0.41769000  1.0 -0.0793860976
C  C175  1  0.44341000  0.58231000  0.60450000  1.0 -0.0793860976
C  C176  1  0.97781000  0.83891000  0.39550000  1.0 -0.0793860976
C  C177  1  0.16109000  0.13890000  0.55659000  1.0 -0.0793860976
C  C178  1  0.83891000  0.39550000  0.97781000  1.0 -0.0793860976
C  C179  1  0.86110000  0.02219000  0.41769000  1.0 -0.0793860976
C  C180  1  0.39550000  0.97781000  0.83891000  1.0 -0.0793860976
C  C181  1  0.79948000  0.97778000  0.36610000  1.0 -0.0961909902
C  C182  1  0.02222000  0.38832000  0.82170000  1.0 -0.0961909902
C  C183  1  0.61168000  0.43338000  0.63390000  1.0 -0.0961909902
C  C184  1  0.56662000  0.20052000  0.17830000  1.0 -0.0961909902
C  C185  1  0.61168000  0.63390000  0.43338000  1.0 -0.0961909902
C  C186  1  0.20052000  0.56662000  0.17830000  1.0 -0.0961909902
C  C187  1  0.38832000  0.82170000  0.02222000  1.0 -0.0961909902
C  C188  1  0.17830000  0.56662000  0.20052000  1.0 -0.0961909902
C  C189  1  0.38832000  0.02222000  0.82170000  1.0 -0.0961909902
C  C190  1  0.63390000  0.43338000  0.61168000  1.0 -0.0961909902
C  C191  1  0.36610000  0.79948000  0.97778000  1.0 -0.0961909902
C  C192  1  0.97778000  0.36610000  0.79948000  1.0 -0.0961909902
C  C193  1  0.56662000  0.17830000  0.20052000  1.0 -0.0961909902
C  C194  1  0.63390000  0.61168000  0.43338000  1.0 -0.0961909902
C  C195  1  0.43338000  0.63390000  0.61168000  1.0 -0.0961909902
C  C196  1  0.82170000  0.38832000  0.02222000  1.0 -0.0961909902
C  C197  1  0.17830000  0.20052000  0.56662000  1.0 -0.0961909902
C  C198  1  0.02222000  0.82170000  0.38832000  1.0 -0.0961909902
C  C199  1  0.43338000  0.61168000  0.63390000  1.0 -0.0961909902
C  C200  1  0.97778000  0.79948000  0.36610000  1.0 -0.0961909902
C  C201  1  0.20052000  0.17830000  0.56662000  1.0 -0.0961909902
C  C202  1  0.79948000  0.36610000  0.97778000  1.0 -0.0961909902
C  C203  1  0.82170000  0.02222000  0.38832000  1.0 -0.0961909902
C  C204  1  0.36610000  0.97778000  0.79948000  1.0 -0.0961909902
C  C205  1  0.80360000  0.00000000  0.33920000  1.0 0.1171155842
C  C206  1  0.00000000  0.33920000  0.80360000  1.0 0.1171155842
C  C207  1  0.66080000  0.46440000  0.66080000  1.0 0.1171155842
C  C208  1  0.53560000  0.19640000  0.19640000  1.0 0.1171155842
C  C209  1  0.66080000  0.66080000  0.46440000  1.0 0.1171155842
C  C210  1  0.19640000  0.53560000  0.19640000  1.0 0.1171155842
C  C211  1  0.33920000  0.80360000  0.00000000  1.0 0.1171155842
C  C212  1  0.33920000  0.00000000  0.80360000  1.0 0.1171155842
C  C213  1  0.46440000  0.66080000  0.66080000  1.0 0.1171155842
C  C214  1  0.80360000  0.33920000  0.00000000  1.0 0.1171155842
C  C215  1  0.19640000  0.19640000  0.53560000  1.0 0.1171155842
C  C216  1  0.00000000  0.80360000  0.33920000  1.0 0.1171155842
C  C217  1  0.84725000  0.02235000  0.34170000  1.0 -0.0906855901
C  C218  1  0.97765000  0.31935000  0.82490000  1.0 -0.0906855901
C  C219  1  0.68065000  0.50555000  0.65830000  1.0 -0.0906855901
C  C220  1  0.49445000  0.15275000  0.17510000  1.0 -0.0906855901
C  C221  1  0.68065000  0.65830000  0.50555000  1.0 -0.0906855901
C  C222  1  0.15275000  0.49445000  0.17510000  1.0 -0.0906855901
C  C223  1  0.31935000  0.82490000  0.97765000  1.0 -0.0906855901
C  C224  1  0.17510000  0.49445000  0.15275000  1.0 -0.0906855901
C  C225  1  0.31935000  0.97765000  0.82490000  1.0 -0.0906855901
C  C226  1  0.65830000  0.50555000  0.68065000  1.0 -0.0906855901
C  C227  1  0.34170000  0.84725000  0.02235000  1.0 -0.0906855901
C  C228  1  0.02235000  0.34170000  0.84725000  1.0 -0.0906855901
C  C229  1  0.49445000  0.17510000  0.15275000  1.0 -0.0906855901
C  C230  1  0.65830000  0.68065000  0.50555000  1.0 -0.0906855901
C  C231  1  0.50555000  0.65830000  0.68065000  1.0 -0.0906855901
C  C232  1  0.82490000  0.31935000  0.97765000  1.0 -0.0906855901
C  C233  1  0.17510000  0.15275000  0.49445000  1.0 -0.0906855901
C  C234  1  0.97765000  0.82490000  0.31935000  1.0 -0.0906855901
C  C235  1  0.50555000  0.68065000  0.65830000  1.0 -0.0906855901
C  C236  1  0.02235000  0.84725000  0.34170000  1.0 -0.0906855901
C  C237  1  0.15275000  0.17510000  0.49445000  1.0 -0.0906855901
C  C238  1  0.84725000  0.34170000  0.02235000  1.0 -0.0906855901
C  C239  1  0.82490000  0.97765000  0.31935000  1.0 -0.0906855901
C  C240  1  0.34170000  0.02235000  0.84725000  1.0 -0.0906855901
C  C241  1  0.88667000  0.02227000  0.37100000  1.0 -0.0793860976
C  C242  1  0.97773000  0.34873000  0.86440000  1.0 -0.0793860976
C  C243  1  0.65127000  0.51567000  0.62900000  1.0 -0.0793860976
C  C244  1  0.48433000  0.11333000  0.13560000  1.0 -0.0793860976
C  C245  1  0.65127000  0.62900000  0.51567000  1.0 -0.0793860976
C  C246  1  0.11333000  0.48433000  0.13560000  1.0 -0.0793860976
C  C247  1  0.34873000  0.86440000  0.97773000  1.0 -0.0793860976
C  C248  1  0.13560000  0.48433000  0.11333000  1.0 -0.0793860976
C  C249  1  0.34873000  0.97773000  0.86440000  1.0 -0.0793860976
C  C250  1  0.62900000  0.51567000  0.65127000  1.0 -0.0793860976
C  C251  1  0.37100000  0.88667000  0.02227000  1.0 -0.0793860976
C  C252  1  0.02227000  0.37100000  0.88667000  1.0 -0.0793860976
C  C253  1  0.48433000  0.13560000  0.11333000  1.0 -0.0793860976
C  C254  1  0.62900000  0.65127000  0.51567000  1.0 -0.0793860976
C  C255  1  0.51567000  0.62900000  0.65127000  1.0 -0.0793860976
C  C256  1  0.86440000  0.34873000  0.97773000  1.0 -0.0793860976
C  C257  1  0.13560000  0.11333000  0.48433000  1.0 -0.0793860976
C  C258  1  0.97773000  0.86440000  0.34873000  1.0 -0.0793860976
C  C259  1  0.51567000  0.65127000  0.62900000  1.0 -0.0793860976
C  C260  1  0.02227000  0.88667000  0.37100000  1.0 -0.0793860976
C  C261  1  0.11333000  0.13560000  0.48433000  1.0 -0.0793860976
C  C262  1  0.88667000  0.37100000  0.02227000  1.0 -0.0793860976
C  C263  1  0.86440000  0.97773000  0.34873000  1.0 -0.0793860976
C  C264  1  0.37100000  0.02227000  0.88667000  1.0 -0.0793860976
C  C265  1  0.54549000  0.00000000  0.45191000  1.0 0.4792157632
C  C266  1  0.00000000  0.45191000  0.54549000  1.0 0.4792157632
C  C267  1  0.54809000  0.09358000  0.54809000  1.0 0.4792157632
C  C268  1  0.90642000  0.45451000  0.45451000  1.0 0.4792157632
C  C269  1  0.54809000  0.54809000  0.09358000  1.0 0.4792157632
C  C270  1  0.45451000  0.90642000  0.45451000  1.0 0.4792157632
C  C271  1  0.45191000  0.54549000  0.00000000  1.0 0.4792157632
C  C272  1  0.45191000  0.00000000  0.54549000  1.0 0.4792157632
C  C273  1  0.09358000  0.54809000  0.54809000  1.0 0.4792157632
C  C274  1  0.54549000  0.45191000  0.00000000  1.0 0.4792157632
C  C275  1  0.45451000  0.45451000  0.90642000  1.0 0.4792157632
C  C276  1  0.00000000  0.54549000  0.45191000  1.0 0.4792157632
C  C277  1  0.58228000  0.00000000  0.43632000  1.0 -0.0499813356
C  C278  1  0.00000000  0.43632000  0.58228000  1.0 -0.0499813356
C  C279  1  0.56368000  0.14596000  0.56368000  1.0 -0.0499813356
C  C280  1  0.85404000  0.41772000  0.41772000  1.0 -0.0499813356
C  C281  1  0.56368000  0.56368000  0.14596000  1.0 -0.0499813356
C  C282  1  0.41772000  0.85404000  0.41772000  1.0 -0.0499813356
C  C283  1  0.43632000  0.58228000  0.00000000  1.0 -0.0499813356
C  C284  1  0.43632000  0.00000000  0.58228000  1.0 -0.0499813356
C  C285  1  0.14596000  0.56368000  0.56368000  1.0 -0.0499813356
C  C286  1  0.58228000  0.43632000  0.00000000  1.0 -0.0499813356
C  C287  1  0.41772000  0.41772000  0.85404000  1.0 -0.0499813356
C  C288  1  0.00000000  0.58228000  0.43632000  1.0 -0.0499813356
C  C289  1  0.61638000  0.98928000  0.45790000  1.0 -0.0310591562
C  C290  1  0.01072000  0.46862000  0.62710000  1.0 -0.0310591562
C  C291  1  0.53138000  0.15848000  0.54210000  1.0 -0.0310591562
C  C292  1  0.84152000  0.38362000  0.37290000  1.0 -0.0310591562
C  C293  1  0.53138000  0.54210000  0.15848000  1.0 -0.0310591562
C  C294  1  0.38362000  0.84152000  0.37290000  1.0 -0.0310591562
C  C295  1  0.46862000  0.62710000  0.01072000  1.0 -0.0310591562
C  C296  1  0.37290000  0.84152000  0.38362000  1.0 -0.0310591562
C  C297  1  0.46862000  0.01072000  0.62710000  1.0 -0.0310591562
C  C298  1  0.54210000  0.15848000  0.53138000  1.0 -0.0310591562
C  C299  1  0.45790000  0.61638000  0.98928000  1.0 -0.0310591562
C  C300  1  0.98928000  0.45790000  0.61638000  1.0 -0.0310591562
C  C301  1  0.84152000  0.37290000  0.38362000  1.0 -0.0310591562
C  C302  1  0.54210000  0.53138000  0.15848000  1.0 -0.0310591562
C  C303  1  0.15848000  0.54210000  0.53138000  1.0 -0.0310591562
C  C304  1  0.62710000  0.46862000  0.01072000  1.0 -0.0310591562
C  C305  1  0.37290000  0.38362000  0.84152000  1.0 -0.0310591562
C  C306  1  0.01072000  0.62710000  0.46862000  1.0 -0.0310591562
C  C307  1  0.15848000  0.53138000  0.54210000  1.0 -0.0310591562
C  C308  1  0.98928000  0.61638000  0.45790000  1.0 -0.0310591562
C  C309  1  0.38362000  0.37290000  0.84152000  1.0 -0.0310591562
C  C310  1  0.61638000  0.45790000  0.98928000  1.0 -0.0310591562
C  C311  1  0.62710000  0.01072000  0.46862000  1.0 -0.0310591562
C  C312  1  0.45790000  0.98928000  0.61638000  1.0 -0.0310591562
C  C313  1  0.64982000  0.98952000  0.44350000  1.0 -0.0499813356
C  C314  1  0.01048000  0.45398000  0.66030000  1.0 -0.0499813356
C  C315  1  0.54602000  0.20632000  0.55650000  1.0 -0.0499813356
C  C316  1  0.79368000  0.35018000  0.33970000  1.0 -0.0499813356
C  C317  1  0.54602000  0.55650000  0.20632000  1.0 -0.0499813356
C  C318  1  0.35018000  0.79368000  0.33970000  1.0 -0.0499813356
C  C319  1  0.45398000  0.66030000  0.01048000  1.0 -0.0499813356
C  C320  1  0.33970000  0.79368000  0.35018000  1.0 -0.0499813356
C  C321  1  0.45398000  0.01048000  0.66030000  1.0 -0.0499813356
C  C322  1  0.55650000  0.20632000  0.54602000  1.0 -0.0499813356
C  C323  1  0.44350000  0.64982000  0.98952000  1.0 -0.0499813356
C  C324  1  0.98952000  0.44350000  0.64982000  1.0 -0.0499813356
C  C325  1  0.79368000  0.33970000  0.35018000  1.0 -0.0499813356
C  C326  1  0.55650000  0.54602000  0.20632000  1.0 -0.0499813356
C  C327  1  0.20632000  0.55650000  0.54602000  1.0 -0.0499813356
C  C328  1  0.66030000  0.45398000  0.01048000  1.0 -0.0499813356
C  C329  1  0.33970000  0.35018000  0.79368000  1.0 -0.0499813356
C  C330  1  0.01048000  0.66030000  0.45398000  1.0 -0.0499813356
C  C331  1  0.20632000  0.54602000  0.55650000  1.0 -0.0499813356
C  C332  1  0.98952000  0.64982000  0.44350000  1.0 -0.0499813356
C  C333  1  0.35018000  0.33970000  0.79368000  1.0 -0.0499813356
C  C334  1  0.64982000  0.44350000  0.98952000  1.0 -0.0499813356
C  C335  1  0.66030000  0.01048000  0.45398000  1.0 -0.0499813356
C  C336  1  0.44350000  0.98952000  0.64982000  1.0 -0.0499813356
C  C337  1  0.64900000  0.00000000  0.40740000  1.0 -0.0310591562
C  C338  1  0.00000000  0.40740000  0.64900000  1.0 -0.0310591562
C  C339  1  0.59260000  0.24160000  0.59260000  1.0 -0.0310591562
C  C340  1  0.75840000  0.35100000  0.35100000  1.0 -0.0310591562
C  C341  1  0.59260000  0.59260000  0.24160000  1.0 -0.0310591562
C  C342  1  0.35100000  0.75840000  0.35100000  1.0 -0.0310591562
C  C343  1  0.40740000  0.64900000  0.00000000  1.0 -0.0310591562
C  C344  1  0.40740000  0.00000000  0.64900000  1.0 -0.0310591562
C  C345  1  0.24160000  0.59260000  0.59260000  1.0 -0.0310591562
C  C346  1  0.64900000  0.40740000  0.00000000  1.0 -0.0310591562
C  C347  1  0.35100000  0.35100000  0.75840000  1.0 -0.0310591562
C  C348  1  0.00000000  0.64900000  0.40740000  1.0 -0.0310591562
C  C349  1  0.61447000  0.01017000  0.38570000  1.0 -0.0310591562
C  C350  1  0.98983000  0.37553000  0.60430000  1.0 -0.0310591562
C  C351  1  0.62447000  0.22877000  0.61430000  1.0 -0.0310591562
C  C352  1  0.77123000  0.38553000  0.39570000  1.0 -0.0310591562
C  C353  1  0.62447000  0.61430000  0.22877000  1.0 -0.0310591562
C  C354  1  0.38553000  0.77123000  0.39570000  1.0 -0.0310591562
C  C355  1  0.37553000  0.60430000  0.98983000  1.0 -0.0310591562
C  C356  1  0.39570000  0.77123000  0.38553000  1.0 -0.0310591562
C  C357  1  0.37553000  0.98983000  0.60430000  1.0 -0.0243417779
C  C358  1  0.61430000  0.22877000  0.62447000  1.0 -0.0310591562
C  C359  1  0.38570000  0.61447000  0.01017000  1.0 -0.0310591562
C  C360  1  0.01017000  0.38570000  0.61447000  1.0 -0.0310591562
C  C361  1  0.77123000  0.39570000  0.38553000  1.0 -0.0310591562
C  C362  1  0.61430000  0.62447000  0.22877000  1.0 -0.0310591562
C  C363  1  0.22877000  0.61430000  0.62447000  1.0 -0.0310591562
C  C364  1  0.60430000  0.37553000  0.98983000  1.0 -0.0310591562
C  C365  1  0.39570000  0.38553000  0.77123000  1.0 -0.0310591562
C  C366  1  0.98983000  0.60430000  0.37553000  1.0 -0.0243417779
C  C367  1  0.22877000  0.62447000  0.61430000  1.0 -0.0310591562
C  C368  1  0.01017000  0.61447000  0.38570000  1.0 -0.0310591562
C  C369  1  0.38553000  0.39570000  0.77123000  1.0 -0.0310591562
C  C370  1  0.61447000  0.38570000  0.01017000  1.0 -0.0310591562
C  C371  1  0.60430000  0.98983000  0.37553000  1.0 -0.0310591562
C  C372  1  0.38570000  0.01017000  0.61447000  1.0 -0.0310591562
C  C373  1  0.58094000  0.01005000  0.40011000  1.0 -0.0666928831
C  C374  1  0.98995000  0.39006000  0.57089000  1.0 -0.0666928831
C  C375  1  0.60994000  0.18083000  0.59989000  1.0 -0.0666928831
C  C376  1  0.81917000  0.41906000  0.42911000  1.0 -0.0666928831
C  C377  1  0.60994000  0.59989000  0.18083000  1.0 -0.0666928831
C  C378  1  0.41906000  0.81917000  0.42911000  1.0 -0.0666928831
C  C379  1  0.39006000  0.57089000  0.98995000  1.0 -0.0666928831
C  C380  1  0.42911000  0.81917000  0.41906000  1.0 -0.0666928831
C  C381  1  0.39006000  0.98995000  0.57089000  1.0 -0.0666928831
C  C382  1  0.59989000  0.18083000  0.60994000  1.0 -0.0666928831
C  C383  1  0.40011000  0.58094000  0.01005000  1.0 -0.0638874
C  C384  1  0.01005000  0.40011000  0.58094000  1.0 -0.0666928831
C  C385  1  0.81917000  0.42911000  0.41906000  1.0 -0.0666928831
C  C386  1  0.59989000  0.60994000  0.18083000  1.0 -0.0638874
C  C387  1  0.18083000  0.59989000  0.60994000  1.0 -0.0666928831
C  C388  1  0.57089000  0.39006000  0.98995000  1.0 -0.0666928831
C  C389  1  0.42911000  0.41906000  0.81917000  1.0 -0.0666928831
C  C390  1  0.98995000  0.57089000  0.39006000  1.0 -0.0666928831
C  C391  1  0.18083000  0.60994000  0.59989000  1.0 -0.0666928831
C  C392  1  0.01005000  0.58094000  0.40011000  1.0 -0.0666928831
C  C393  1  0.41906000  0.42911000  0.81917000  1.0 -0.0666928831
C  C394  1  0.58094000  0.40011000  0.01005000  1.0 -0.0666928831
C  C395  1  0.57089000  0.98995000  0.39006000  1.0 -0.0666928831
C  C396  1  0.40011000  0.01005000  0.58094000  1.0 -0.0666928831
C  C397  1  0.67830000  0.98180000  0.34790000  1.0 0.2018380368
C  C398  1  0.01820000  0.36610000  0.69650000  1.0 0.2018380368
C  C399  1  0.63390000  0.33040000  0.65210000  1.0 0.2018380368
C  C400  1  0.66960000  0.32170000  0.30350000  1.0 0.2018380368
C  C401  1  0.63390000  0.65210000  0.33040000  1.0 0.2018380368
C  C402  1  0.32170000  0.66960000  0.30350000  1.0 0.2018380368
C  C403  1  0.36610000  0.69650000  0.01820000  1.0 0.2018380368
C  C404  1  0.30350000  0.66960000  0.32170000  1.0 0.2018380368
C  C405  1  0.36610000  0.01820000  0.69650000  1.0 0.2018380368
C  C406  1  0.65210000  0.33040000  0.63390000  1.0 0.2018380368
C  C407  1  0.34790000  0.67830000  0.98180000  1.0 0.2018380368
C  C408  1  0.98180000  0.34790000  0.67830000  1.0 0.2018380368
C  C409  1  0.66960000  0.30350000  0.32170000  1.0 0.2018380368
C  C410  1  0.65210000  0.63390000  0.33040000  1.0 0.2018380368
C  C411  1  0.33040000  0.65210000  0.63390000  1.0 0.2018380368
C  C412  1  0.69650000  0.36610000  0.01820000  1.0 0.2018380368
C  C413  1  0.30350000  0.32170000  0.66960000  1.0 0.2018380368
C  C414  1  0.01820000  0.69650000  0.36610000  1.0 0.2018380368
C  C415  1  0.33040000  0.63390000  0.65210000  1.0 0.2018380368
C  C416  1  0.98180000  0.67830000  0.34790000  1.0 0.2018380368
C  C417  1  0.32170000  0.30350000  0.66960000  1.0 0.2018380368
C  C418  1  0.67830000  0.34790000  0.98180000  1.0 0.2018380368
C  C419  1  0.69650000  0.01820000  0.36610000  1.0 0.2018380368
C  C420  1  0.34790000  0.98180000  0.67830000  1.0 0.2018380368
C  C421  1  0.72450000  0.00530000  0.31180000  1.0 0.0105661714
C  C422  1  0.99470000  0.30650000  0.71920000  1.0 0.0105661714
C  C423  1  0.69350000  0.41270000  0.68820000  1.0 0.0105661714
C  C424  1  0.58730000  0.27550000  0.28080000  1.0 0.0105661714
C  C425  1  0.69350000  0.68820000  0.41270000  1.0 0.0105661714
C  C426  1  0.27550000  0.58730000  0.28080000  1.0 0.0105661714
C  C427  1  0.30650000  0.71920000  0.99470000  1.0 0.0105661714
C  C428  1  0.28080000  0.58730000  0.27550000  1.0 0.0105661714
C  C429  1  0.30650000  0.99470000  0.71920000  1.0 0.0105661714
C  C430  1  0.68820000  0.41270000  0.69350000  1.0 0.0105661714
C  C431  1  0.31180000  0.72450000  0.00530000  1.0 0.0105661714
C  C432  1  0.00530000  0.31180000  0.72450000  1.0 0.0105661714
C  C433  1  0.58730000  0.28080000  0.27550000  1.0 0.0105661714
C  C434  1  0.68820000  0.69350000  0.41270000  1.0 0.0105661714
C  C435  1  0.41270000  0.68820000  0.69350000  1.0 0.0105661714
C  C436  1  0.71920000  0.30650000  0.99470000  1.0 0.0105661714
C  C437  1  0.28080000  0.27550000  0.58730000  1.0 0.0105661714
C  C438  1  0.99470000  0.71920000  0.30650000  1.0 0.0105661714
C  C439  1  0.41270000  0.69350000  0.68820000  1.0 0.0105661714
C  C440  1  0.00530000  0.72450000  0.31180000  1.0 0.0105661714
C  C441  1  0.27550000  0.28080000  0.58730000  1.0 0.0105661714
C  C442  1  0.72450000  0.31180000  0.00530000  1.0 0.0105661714
C  C443  1  0.71920000  0.99470000  0.30650000  1.0 0.0105661714
C  C444  1  0.31180000  0.00530000  0.72450000  1.0 0.0105661714
C  C445  1  0.64750000  0.00000000  0.28610000  1.0 0.2586377968
C  C446  1  0.00000000  0.28610000  0.64750000  1.0 0.2586377968
C  C447  1  0.71390000  0.36140000  0.71390000  1.0 0.2586377968
C  C448  1  0.63860000  0.35250000  0.35250000  1.0 0.2586377968
C  C449  1  0.71390000  0.71390000  0.36140000  1.0 0.2586377968
C  C450  1  0.35250000  0.63860000  0.35250000  1.0 0.2586377968
C  C451  1  0.28610000  0.64750000  0.00000000  1.0 0.2586377968
C  C452  1  0.28610000  0.00000000  0.64750000  1.0 0.2586377968
C  C453  1  0.36140000  0.71390000  0.71390000  1.0 0.2586377968
C  C454  1  0.64750000  0.28610000  0.00000000  1.0 0.2586377968
C  C455  1  0.35250000  0.35250000  0.63860000  1.0 0.2586377968
C  C456  1  0.00000000  0.64750000  0.28610000  1.0 0.2586377968
N  N1  1  0.76462000  0.00000000  0.31018000  1.0 -0.304154184
N  N2  1  0.00000000  0.31018000  0.76462000  1.0 -0.304154184
N  N3  1  0.68982000  0.45444000  0.68982000  1.0 -0.304154184
N  N4  1  0.54556000  0.23538000  0.23538000  1.0 -0.304154184
N  N5  1  0.68982000  0.68982000  0.45444000  1.0 -0.304154184
N  N6  1  0.23538000  0.54556000  0.23538000  1.0 -0.304154184
N  N7  1  0.31018000  0.76462000  0.00000000  1.0 -0.304154184
N  N8  1  0.31018000  0.00000000  0.76462000  1.0 -0.304154184
N  N9  1  0.45444000  0.68982000  0.68982000  1.0 -0.304154184
N  N10  1  0.76462000  0.31018000  0.00000000  1.0 -0.304154184
N  N11  1  0.23538000  0.23538000  0.54556000  1.0 -0.304154184
N  N12  1  0.00000000  0.76462000  0.31018000  1.0 -0.304154184
N  N13  1  0.61870000  0.00000000  0.24750000  1.0 -0.4312727252
N  N14  1  0.00000000  0.24750000  0.61870000  1.0 -0.4312727252
N  N15  1  0.75250000  0.37120000  0.75250000  1.0 -0.4312727252
N  N16  1  0.62880000  0.38130000  0.38130000  1.0 -0.4312727252
N  N17  1  0.75250000  0.75250000  0.37120000  1.0 -0.4312727252
N  N18  1  0.38130000  0.62880000  0.38130000  1.0 -0.4312727252
N  N19  1  0.24750000  0.61870000  0.00000000  1.0 -0.4312727252
N  N20  1  0.24750000  0.00000000  0.61870000  1.0 -0.4312727252
N  N21  1  0.37120000  0.75250000  0.75250000  1.0 -0.4312727252
N  N22  1  0.61870000  0.24750000  0.00000000  1.0 -0.4248215546
N  N23  1  0.38130000  0.38130000  0.62880000  1.0 -0.4312727252
N  N24  1  0.00000000  0.61870000  0.24750000  1.0 -0.4312727252
N  N25  1  0.68190000  0.00000000  0.39310000  1.0 -0.3386885839
N  N26  1  0.00000000  0.39310000  0.68190000  1.0 -0.3386885839
N  N27  1  0.60690000  0.28880000  0.60690000  1.0 -0.3386885839
N  N28  1  0.71120000  0.31810000  0.31810000  1.0 -0.3386885839
N  N29  1  0.60690000  0.60690000  0.28880000  1.0 -0.3386885839
N  N30  1  0.31810000  0.71120000  0.31810000  1.0 -0.3386885839
N  N31  1  0.39310000  0.68190000  0.00000000  1.0 -0.3386885839
N  N32  1  0.39310000  0.00000000  0.68190000  1.0 -0.3386885839
N  N33  1  0.28880000  0.60690000  0.60690000  1.0 -0.3386885839
N  N34  1  0.68190000  0.39310000  0.00000000  1.0 -0.3341475715
N  N35  1  0.31810000  0.31810000  0.71120000  1.0 -0.3386885839
N  N36  1  0.00000000  0.68190000  0.39310000  1.0 -0.3386885839
N  N37  1  0.68840000  0.00940000  0.28260000  1.0 -0.0666928831
N  N38  1  0.99060000  0.27320000  0.67900000  1.0 -0.0666928831
N  N39  1  0.72680000  0.40580000  0.71740000  1.0 -0.0666928831
N  N40  1  0.59420000  0.31160000  0.32100000  1.0 -0.0666928831
N  N41  1  0.72680000  0.71740000  0.40580000  1.0 -0.0666928831
N  N42  1  0.31160000  0.59420000  0.32100000  1.0 -0.0666928831
N  N43  1  0.27320000  0.67900000  0.99060000  1.0 -0.0666928831
N  N44  1  0.32100000  0.59420000  0.31160000  1.0 -0.0666928831
N  N45  1  0.27320000  0.99060000  0.67900000  1.0 -0.0666928831
N  N46  1  0.71740000  0.40580000  0.72680000  1.0 -0.0666928831
N  N47  1  0.28260000  0.68840000  0.00940000  1.0 -0.0666928831
N  N48  1  0.00940000  0.28260000  0.68840000  1.0 -0.0666928831
N  N49  1  0.59420000  0.32100000  0.31160000  1.0 -0.0666928831
N  N50  1  0.71740000  0.72680000  0.40580000  1.0 -0.0638874
N  N51  1  0.40580000  0.71740000  0.72680000  1.0 -0.0666928831
N  N52  1  0.67900000  0.27320000  0.99060000  1.0 -0.0666928831
N  N53  1  0.32100000  0.31160000  0.59420000  1.0 -0.0666928831
N  N54  1  0.99060000  0.67900000  0.27320000  1.0 -0.0666928831
N  N55  1  0.40580000  0.72680000  0.71740000  1.0 -0.0666928831
N  N56  1  0.00940000  0.68840000  0.28260000  1.0 -0.0666928831
N  N57  1  0.31160000  0.32100000  0.59420000  1.0 -0.0666928831
N  N58  1  0.68840000  0.28260000  0.00940000  1.0 -0.0666928831
N  N59  1  0.67900000  0.99060000  0.27320000  1.0 -0.0666928831
N  N60  1  0.28260000  0.00940000  0.68840000  1.0 -0.0666928831
N  N61  1  0.71940000  0.99140000  0.34440000  1.0 -0.0906855901
N  N62  1  0.00860000  0.35300000  0.72800000  1.0 -0.0906855901
N  N63  1  0.64700000  0.37500000  0.65560000  1.0 -0.0906855901
N  N64  1  0.62500000  0.28060000  0.27200000  1.0 -0.0906855901
N  N65  1  0.64700000  0.65560000  0.37500000  1.0 -0.0906855901
N  N66  1  0.28060000  0.62500000  0.27200000  1.0 -0.0906855901
N  N67  1  0.35300000  0.72800000  0.00860000  1.0 -0.0906855901
N  N68  1  0.27200000  0.62500000  0.28060000  1.0 -0.0906855901
N  N69  1  0.35300000  0.00860000  0.72800000  1.0 -0.0906855901
N  N70  1  0.65560000  0.37500000  0.64700000  1.0 -0.0906855901
N  N71  1  0.34440000  0.71940000  0.99140000  1.0 -0.0906855901
N  N72  1  0.99140000  0.34440000  0.71940000  1.0 -0.0906855901
N  N73  1  0.62500000  0.27200000  0.28060000  1.0 -0.0906855901
N  N74  1  0.65560000  0.64700000  0.37500000  1.0 -0.0906855901
N  N75  1  0.37500000  0.65560000  0.64700000  1.0 -0.0906855901
N  N76  1  0.72800000  0.35300000  0.00860000  1.0 -0.0906855901
N  N77  1  0.27200000  0.28060000  0.62500000  1.0 -0.0906855901
N  N78  1  0.00860000  0.72800000  0.35300000  1.0 -0.0793860976
N  N79  1  0.37500000  0.64700000  0.65560000  1.0 -0.0906855901
N  N80  1  0.99140000  0.71940000  0.34440000  1.0 -0.0793860976
N  N81  1  0.28060000  0.27200000  0.62500000  1.0 -0.0906855901
N  N82  1  0.71940000  0.34440000  0.99140000  1.0 -0.0906855901
N  N83  1  0.72800000  0.00860000  0.35300000  1.0 -0.0906855901
N  N84  1  0.34440000  0.99140000  0.71940000  1.0 -0.0906855901
N  N85  1  0.64220000  0.98590000  0.31870000  1.0 -0.1112311249
N  N86  1  0.01410000  0.33280000  0.65630000  1.0 -0.1160750259
N  N87  1  0.66720000  0.32350000  0.68130000  1.0 -0.1160750259
N  N88  1  0.67650000  0.35780000  0.34370000  1.0 -0.1160750259
N  N89  1  0.66720000  0.68130000  0.32350000  1.0 -0.1160750259
N  N90  1  0.35780000  0.67650000  0.34370000  1.0 -0.1160750259
N  N91  1  0.33280000  0.65630000  0.01410000  1.0 -0.1160750259
N  N92  1  0.34370000  0.67650000  0.35780000  1.0 -0.1160750259
N  N93  1  0.33280000  0.01410000  0.65630000  1.0 -0.1160750259
N  N94  1  0.68130000  0.32350000  0.66720000  1.0 -0.1160750259
N  N95  1  0.31870000  0.64220000  0.98590000  1.0 -0.1160750259
N  N96  1  0.98590000  0.31870000  0.64220000  1.0 -0.1160750259
N  N97  1  0.67650000  0.34370000  0.35780000  1.0 -0.1160750259
N  N98  1  0.68130000  0.66720000  0.32350000  1.0 -0.1160750259
N  N99  1  0.32350000  0.68130000  0.66720000  1.0 -0.1160750259
N  N100  1  0.65630000  0.33280000  0.01410000  1.0 -0.1160750259
N  N101  1  0.34370000  0.35780000  0.67650000  1.0 -0.1160750259
N  N102  1  0.01410000  0.65630000  0.33280000  1.0 -0.1112311249
N  N103  1  0.32350000  0.66720000  0.68130000  1.0 -0.1160750259
N  N104  1  0.98590000  0.64220000  0.31870000  1.0 -0.1112311249
N  N105  1  0.35780000  0.34370000  0.67650000  1.0 -0.1160750259
N  N106  1  0.64220000  0.31870000  0.98590000  1.0 -0.1160750259
N  N107  1  0.65630000  0.01410000  0.33280000  1.0 -0.1160750259
N  N108  1  0.31870000  0.98590000  0.64220000  1.0 -0.1160750259
O  O1  1  0.55430000  0.00000000  0.05530000  1.0 -0.6061578979
O  O2  1  0.00000000  0.05530000  0.55430000  1.0 -0.6061578979
O  O3  1  0.94470000  0.49900000  0.94470000  1.0 -0.6061578979
O  O4  1  0.50100000  0.44570000  0.44570000  1.0 -0.6061578979
O  O5  1  0.94470000  0.94470000  0.49900000  1.0 -0.6061578979
O  O6  1  0.44570000  0.50100000  0.44570000  1.0 -0.6061578979
O  O7  1  0.05530000  0.55430000  0.00000000  1.0 -0.6061578979
O  O8  1  0.05530000  0.00000000  0.55430000  1.0 -0.6061578979
O  O9  1  0.49900000  0.94470000  0.94470000  1.0 -0.6061578979
O  O10  1  0.55430000  0.05530000  0.00000000  1.0 -0.6037798514
O  O11  1  0.44570000  0.44570000  0.50100000  1.0 -0.6061578979
O  O12  1  0.00000000  0.55430000  0.05530000  1.0 -0.6061578979
O  O13  1  0.61880000  0.00000000  0.05920000  1.0 -0.6569944312
O  O14  1  0.00000000  0.05920000  0.61880000  1.0 -0.6569944312
O  O15  1  0.94080000  0.55960000  0.94080000  1.0 -0.6569944312
O  O16  1  0.44040000  0.38120000  0.38120000  1.0 -0.6569944312
O  O17  1  0.94080000  0.94080000  0.55960000  1.0 -0.6569944312
O  O18  1  0.38120000  0.44040000  0.38120000  1.0 -0.6569944312
O  O19  1  0.05920000  0.61880000  0.00000000  1.0 -0.6569944312
O  O20  1  0.05920000  0.00000000  0.61880000  1.0 -0.6569944312
O  O21  1  0.55960000  0.94080000  0.94080000  1.0 -0.6569944312
O  O22  1  0.61880000  0.05920000  0.00000000  1.0 -0.6569944312
O  O23  1  0.38120000  0.38120000  0.44040000  1.0 -0.6569944312
O  O24  1  0.00000000  0.61880000  0.05920000  1.0 -0.6569944312
O  O25  1  0.94788000  0.00000000  0.40832000  1.0 -0.5654239049
O  O26  1  0.00000000  0.40832000  0.94788000  1.0 -0.5644208779
O  O27  1  0.59168000  0.53956000  0.59168000  1.0 -0.5654239049
O  O28  1  0.46044000  0.05212000  0.05212000  1.0 -0.5644208779
O  O29  1  0.59168000  0.59168000  0.53956000  1.0 -0.5654239049
O  O30  1  0.05212000  0.46044000  0.05212000  1.0 -0.5644208779
O  O31  1  0.40832000  0.94788000  0.00000000  1.0 -0.5644208779
O  O32  1  0.40832000  0.00000000  0.94788000  1.0 -0.5644208779
O  O33  1  0.53956000  0.59168000  0.59168000  1.0 -0.5654239049
O  O34  1  0.94788000  0.40832000  0.00000000  1.0 -0.5644208779
O  O35  1  0.05212000  0.05212000  0.46044000  1.0 -0.5654239049
O  O36  1  0.00000000  0.94788000  0.40832000  1.0 -0.5644208779
O  O37  1  0.94530000  0.01740000  0.47390000  1.0 -0.2679662241
O  O38  1  0.98260000  0.45650000  0.92790000  1.0 -0.2679662241
O  O39  1  0.54350000  0.47140000  0.52610000  1.0 -0.2679662241
O  O40  1  0.52860000  0.05470000  0.07210000  1.0 -0.2679662241
O  O41  1  0.54350000  0.52610000  0.47140000  1.0 -0.2679662241
O  O42  1  0.05470000  0.52860000  0.07210000  1.0 -0.2679662241
O  O43  1  0.45650000  0.92790000  0.98260000  1.0 -0.2679662241
O  O44  1  0.07210000  0.52860000  0.05470000  1.0 -0.2679662241
O  O45  1  0.45650000  0.98260000  0.92790000  1.0 -0.2679662241
O  O46  1  0.52610000  0.47140000  0.54350000  1.0 -0.2679662241
O  O47  1  0.47390000  0.94530000  0.01740000  1.0 -0.2679662241
O  O48  1  0.01740000  0.47390000  0.94530000  1.0 -0.2679662241
O  O49  1  0.52860000  0.07210000  0.05470000  1.0 -0.2649204572
O  O50  1  0.52610000  0.54350000  0.47140000  1.0 -0.2679662241
O  O51  1  0.47140000  0.52610000  0.54350000  1.0 -0.2679662241
O  O52  1  0.92790000  0.45650000  0.98260000  1.0 -0.2679662241
O  O53  1  0.07210000  0.05470000  0.52860000  1.0 -0.2679662241
O  O54  1  0.98260000  0.92790000  0.45650000  1.0 -0.2679662241
O  O55  1  0.47140000  0.54350000  0.52610000  1.0 -0.2679662241
O  O56  1  0.01740000  0.94530000  0.47390000  1.0 -0.2679662241
O  O57  1  0.05470000  0.07210000  0.52860000  1.0 -0.2679662241
O  O58  1  0.94530000  0.47390000  0.01740000  1.0 -0.2679662241
O  O59  1  0.92790000  0.98260000  0.45650000  1.0 -0.2679662241
O  O60  1  0.47390000  0.01740000  0.94530000  1.0 -0.2679662241
O  O61  1  0.51040000  0.00000000  0.42640000  1.0 -0.5236509334
O  O62  1  0.00000000  0.42640000  0.51040000  1.0 -0.5236509334
O  O63  1  0.57360000  0.08400000  0.57360000  1.0 -0.5236509334
O  O64  1  0.91600000  0.48960000  0.48960000  1.0 -0.5236509334
O  O65  1  0.57360000  0.57360000  0.08400000  1.0 -0.5236509334
O  O66  1  0.48960000  0.91600000  0.48960000  1.0 -0.5236509334
O  O67  1  0.42640000  0.51040000  0.00000000  1.0 -0.5236509334
O  O68  1  0.42640000  0.00000000  0.51040000  1.0 -0.5236509334
O  O69  1  0.08400000  0.57360000  0.57360000  1.0 -0.5236509334
O  O70  1  0.51040000  0.42640000  0.00000000  1.0 -0.5236509334
O  O71  1  0.48960000  0.48960000  0.91600000  1.0 -0.5236509334
O  O72  1  0.00000000  0.51040000  0.42640000  1.0 -0.5236509334
O  O73  1  0.55337000  0.00000000  0.48943000  1.0 -0.6440348616
O  O74  1  0.00000000  0.48943000  0.55337000  1.0 -0.6440348616
O  O75  1  0.51057000  0.06394000  0.51057000  1.0 -0.6440348616
O  O76  1  0.93606000  0.44663000  0.44663000  1.0 -0.6440348616
O  O77  1  0.51057000  0.51057000  0.06394000  1.0 -0.6440348616
O  O78  1  0.44663000  0.93606000  0.44663000  1.0 -0.6453922381
O  O79  1  0.48943000  0.55337000  0.00000000  1.0 -0.6440348616
O  O80  1  0.48943000  0.00000000  0.55337000  1.0 -0.6440348616
O  O81  1  0.06394000  0.51057000  0.51057000  1.0 -0.6440348616
O  O82  1  0.55337000  0.48943000  0.00000000  1.0 -0.6440348616
O  O83  1  0.44663000  0.44663000  0.93606000  1.0 -0.6440348616
O  O84  1  0.00000000  0.55337000  0.48943000  1.0 -0.6440348616
O  O85  1  0.37280000  0.96800000  0.40420000  1.0 -0.2815186645
O  O86  1  0.03200000  0.43620000  0.40480000  1.0 -0.2815186645
O  O87  1  0.56380000  0.96860000  0.59580000  1.0 -0.2815186645
O  O88  1  0.03140000  0.62720000  0.59520000  1.0 -0.2815186645
O  O89  1  0.56380000  0.59580000  0.96860000  1.0 -0.2815186645
O  O90  1  0.62720000  0.03140000  0.59520000  1.0 -0.2815186645
O  O91  1  0.43620000  0.40480000  0.03200000  1.0 -0.2815186645
O  O92  1  0.59520000  0.03140000  0.62720000  1.0 -0.2815186645
O  O93  1  0.43620000  0.03200000  0.40480000  1.0 -0.2815186645
O  O94  1  0.59580000  0.96860000  0.56380000  1.0 -0.2815186645
O  O95  1  0.40420000  0.37280000  0.96800000  1.0 -0.2815186645
O  O96  1  0.96800000  0.40420000  0.37280000  1.0 -0.2815186645
O  O97  1  0.03140000  0.59520000  0.62720000  1.0 -0.2815186645
O  O98  1  0.59580000  0.56380000  0.96860000  1.0 -0.2815186645
O  O99  1  0.96860000  0.59580000  0.56380000  1.0 -0.2815186645
O  O100  1  0.40480000  0.43620000  0.03200000  1.0 -0.2815186645
O  O101  1  0.59520000  0.62720000  0.03140000  1.0 -0.2815186645
O  O102  1  0.03200000  0.40480000  0.43620000  1.0 -0.2815186645
O  O103  1  0.96860000  0.56380000  0.59580000  1.0 -0.2815186645
O  O104  1  0.96800000  0.37280000  0.40420000  1.0 -0.2815186645
O  O105  1  0.62720000  0.59520000  0.03140000  1.0 -0.2815186645
O  O106  1  0.37280000  0.40420000  0.96800000  1.0 -0.2815186645
O  O107  1  0.40480000  0.03200000  0.43620000  1.0 -0.2815186645
O  O108  1  0.40420000  0.96800000  0.37280000  1.0 -0.2815186645
