# DDEC6 charges by PACMAN v1.1 (https://github.com/mtap-research/PACMAN-charge/)
data_QOLVET_ASR_pacman
_symmetry_space_group_name_H-M   'P 1'
_cell_length_a   8.23670000
_cell_length_b   9.16640000
_cell_length_c   17.55000000
_cell_angle_alpha   90.00000000
_cell_angle_beta   90.00000000
_cell_angle_gamma   90.00000000
_symmetry_Int_Tables_number   1
_chemical_formula_structural   AlPO4
_chemical_formula_sum   'Al12 P12 O48'
_cell_volume   1325.04056474
_cell_formula_units_Z   12
loop_
 _symmetry_equiv_pos_site_id
 _symmetry_equiv_pos_as_xyz
  1  'x, y, z'
loop_
 _atom_site_type_symbol
 _atom_site_label
 _atom_site_symmetry_multiplicity
 _atom_site_fract_x
 _atom_site_fract_y
 _atom_site_fract_z
 _atom_site_occupancy
 _atom_site_charge
Al  Al1  1  0.86075000  0.13091000  0.93403000  1.0 1.7695558195
Al  Al2  1  0.63925000  0.86909000  0.43403000  1.0 1.7695558195
Al  Al3  1  0.13925000  0.63091000  0.56597000  1.0 1.7695558195
Al  Al4  1  0.36075000  0.36909000  0.06597000  1.0 1.7695558195
Al  Al5  1  0.94224000  0.08437000  0.16659000  1.0 1.7401728009
Al  Al6  1  0.55776000  0.91563000  0.66659000  1.0 1.7401728009
Al  Al7  1  0.05776000  0.58437000  0.33341000  1.0 1.7401728009
Al  Al8  1  0.44224000  0.41563000  0.83341000  1.0 1.7401728009
Al  Al9  1  0.93968000  0.58575000  0.03164000  1.0 1.7401728009
Al  Al10  1  0.56032000  0.41425000  0.53164000  1.0 1.7401728009
Al  Al11  1  0.06032000  0.08575000  0.46836000  1.0 1.7401728009
Al  Al12  1  0.43968000  0.91425000  0.96836000  1.0 1.7401728009
P  P1  1  0.06417000  0.41440000  0.17325000  1.0 1.5084363346
P  P2  1  0.43583000  0.58560000  0.67325000  1.0 1.5084363346
P  P3  1  0.93583000  0.91440000  0.32675000  1.0 1.503903759
P  P4  1  0.56417000  0.08560000  0.82675000  1.0 1.5084363346
P  P5  1  0.06985000  0.90793000  0.02627000  1.0 1.537305889
P  P6  1  0.43015000  0.09207000  0.52627000  1.0 1.537305889
P  P7  1  0.93015000  0.40793000  0.47373000  1.0 1.537305889
P  P8  1  0.56985000  0.59207000  0.97373000  1.0 1.537305889
P  P9  1  0.13346000  0.36723000  0.92880000  1.0 1.537305889
P  P10  1  0.36654000  0.63277000  0.42880000  1.0 1.537305889
P  P11  1  0.86654000  0.86723000  0.57120000  1.0 1.537305889
P  P12  1  0.63346000  0.13277000  0.07120000  1.0 1.537305889
O  O1  1  0.00410000  0.26360000  0.89910000  1.0 -0.8035765315
O  O2  1  0.49590000  0.73640000  0.39910000  1.0 -0.8074006513
O  O3  1  0.99590000  0.76360000  0.60090000  1.0 -0.8074006513
O  O4  1  0.50410000  0.23640000  0.10090000  1.0 -0.8074006513
O  O5  1  0.23890000  0.42080000  0.14760000  1.0 -0.8288462525
O  O6  1  0.26110000  0.57920000  0.64760000  1.0 -0.8288462525
O  O7  1  0.76110000  0.92080000  0.35240000  1.0 -0.8288462525
O  O8  1  0.73890000  0.07920000  0.85240000  1.0 -0.8175686324
O  O9  1  0.96130000  0.96620000  0.96390000  1.0 -0.8391416346
O  O10  1  0.53870000  0.03380000  0.46390000  1.0 -0.8456653828
O  O11  1  0.03870000  0.46620000  0.53610000  1.0 -0.8456653828
O  O12  1  0.46130000  0.53380000  0.03610000  1.0 -0.8391416346
O  O13  1  0.23840000  0.29540000  0.98930000  1.0 -0.8702197249
O  O14  1  0.26160000  0.70460000  0.48930000  1.0 -0.8702197249
O  O15  1  0.76160000  0.79540000  0.51070000  1.0 -0.8702197249
O  O16  1  0.73840000  0.20460000  0.01070000  1.0 -0.8702197249
O  O17  1  0.00900000  0.25810000  0.18220000  1.0 -0.8074006513
O  O18  1  0.49100000  0.74190000  0.68220000  1.0 -0.8074006513
O  O19  1  0.99100000  0.75810000  0.31780000  1.0 -0.8074006513
O  O20  1  0.50900000  0.24190000  0.81780000  1.0 -0.8074006513
O  O21  1  0.04620000  0.48850000  0.24900000  1.0 -0.7814638491
O  O22  1  0.45380000  0.51150000  0.74900000  1.0 -0.7814638491
O  O23  1  0.95380000  0.98850000  0.25100000  1.0 -0.7814638491
O  O24  1  0.54620000  0.01150000  0.75100000  1.0 -0.7814638491
O  O25  1  0.06390000  0.00490000  0.09740000  1.0 -0.8391416346
O  O26  1  0.43610000  0.99510000  0.59740000  1.0 -0.8391416346
O  O27  1  0.93610000  0.50490000  0.40260000  1.0 -0.8391416346
O  O28  1  0.56390000  0.49510000  0.90260000  1.0 -0.8391416346
O  O29  1  0.23560000  0.41320000  0.86020000  1.0 -0.8035765315
O  O30  1  0.26440000  0.58680000  0.36020000  1.0 -0.8035765315
O  O31  1  0.76440000  0.91320000  0.63980000  1.0 -0.8074006513
O  O32  1  0.73560000  0.08680000  0.13980000  1.0 -0.8035765315
O  O33  1  0.05460000  0.50510000  0.96040000  1.0 -0.8288462525
O  O34  1  0.44540000  0.49490000  0.46040000  1.0 -0.8288462525
O  O35  1  0.94540000  0.00510000  0.53960000  1.0 -0.8288462525
O  O36  1  0.55460000  0.99490000  0.03960000  1.0 -0.8288462525
O  O37  1  0.01530000  0.75810000  0.05060000  1.0 -0.8175686324
O  O38  1  0.48470000  0.24190000  0.55060000  1.0 -0.8175686324
O  O39  1  0.98470000  0.25810000  0.44940000  1.0 -0.8175686324
O  O40  1  0.51530000  0.74190000  0.94940000  1.0 -0.8074006513
O  O41  1  0.24360000  0.90070000  0.99780000  1.0 -0.7814638491
O  O42  1  0.25640000  0.09930000  0.49780000  1.0 -0.7814638491
O  O43  1  0.75640000  0.40070000  0.50220000  1.0 -0.7814638491
O  O44  1  0.74360000  0.59930000  0.00220000  1.0 -0.7814638491
O  O45  1  0.95220000  0.48580000  0.11530000  1.0 -0.8288462525
O  O46  1  0.54780000  0.51420000  0.61530000  1.0 -0.8288462525
O  O47  1  0.04780000  0.98580000  0.38470000  1.0 -0.8288462525
O  O48  1  0.45220000  0.01420000  0.88470000  1.0 -0.8288462525
