# DDEC6 charges by PACMAN v1.1 (https://github.com/mtap-research/PACMAN-charge/)
data_QOSJOZ_FSR_pacman
_symmetry_space_group_name_H-M   'P 1'
_cell_length_a   13.95800000
_cell_length_b   30.68200000
_cell_length_c   22.98680000
_cell_angle_alpha   90.00000000
_cell_angle_beta   118.05300000
_cell_angle_gamma   90.00000000
_symmetry_Int_Tables_number   1
_chemical_formula_structural   Gd2Cu3H44C42(N2O13)3
_chemical_formula_sum   'Gd8 Cu12 H176 C168 N24 O156'
_cell_volume   8687.73289484
_cell_formula_units_Z   4
loop_
 _symmetry_equiv_pos_site_id
 _symmetry_equiv_pos_as_xyz
  1  'x, y, z'
loop_
 _atom_site_type_symbol
 _atom_site_label
 _atom_site_symmetry_multiplicity
 _atom_site_fract_x
 _atom_site_fract_y
 _atom_site_fract_z
 _atom_site_occupancy
 _atom_site_charge
Gd  Gd1  1  0.35074000  0.44915000  0.37493000  1.0 1.9623250157
Gd  Gd2  1  0.64926000  0.94915000  0.12507000  1.0 1.9623250157
Gd  Gd3  1  0.64926000  0.55085000  0.62507000  1.0 1.9623250157
Gd  Gd4  1  0.35074000  0.05085000  0.87493000  1.0 1.9623250157
Gd  Gd5  1  0.35693000  0.31033000  0.89563000  1.0 1.9754764229
Gd  Gd6  1  0.64307000  0.81033000  0.60437000  1.0 1.9754764229
Gd  Gd7  1  0.64307000  0.68967000  0.10437000  1.0 1.9754764229
Gd  Gd8  1  0.35693000  0.18967000  0.39563000  1.0 1.9754764229
Cu  Cu1  1  0.72870000  0.47799000  0.22040000  1.0 0.7502634168
Cu  Cu2  1  0.27130000  0.97799000  0.27960000  1.0 0.7502634168
Cu  Cu3  1  0.27130000  0.52201000  0.77960000  1.0 0.7502634168
Cu  Cu4  1  0.72870000  0.02201000  0.72040000  1.0 0.7502634168
Cu  Cu5  1  0.13806000  0.31523000  0.11138000  1.0 0.7715406805
Cu  Cu6  1  0.86194000  0.81523000  0.38862000  1.0 0.7715406805
Cu  Cu7  1  0.86194000  0.68477000  0.88862000  1.0 0.7715406805
Cu  Cu8  1  0.13806000  0.18477000  0.61138000  1.0 0.7715406805
Cu  Cu9  1  0.73807000  0.15767000  0.24263000  1.0 0.742721656
Cu  Cu10  1  0.26193000  0.65767000  0.25737000  1.0 0.742721656
Cu  Cu11  1  0.26193000  0.84233000  0.75737000  1.0 0.742721656
Cu  Cu12  1  0.73807000  0.34233000  0.74263000  1.0 0.742721656
H  H1  1  0.05800000  0.33830000  0.98900000  1.0 0.3574694783
H  H2  1  0.94200000  0.83830000  0.51100000  1.0 0.3574694783
H  H3  1  0.94200000  0.66170000  0.01100000  1.0 0.3574694783
H  H4  1  0.05800000  0.16170000  0.48900000  1.0 0.3574694783
H  H5  1  0.01900000  0.29390000  0.97200000  1.0 0.3811836928
H  H6  1  0.98100000  0.79390000  0.52800000  1.0 0.3811836928
H  H7  1  0.98100000  0.70610000  0.02800000  1.0 0.3811836928
H  H8  1  0.01900000  0.20610000  0.47200000  1.0 0.3811836928
H  H9  1  0.49100000  0.40880000  0.48000000  1.0 0.3680208887
H  H10  1  0.50900000  0.90880000  0.02000000  1.0 0.3680208887
H  H11  1  0.50900000  0.59120000  0.52000000  1.0 0.3680208887
H  H12  1  0.49100000  0.09120000  0.98000000  1.0 0.3680208887
H  H13  1  0.56800000  0.41700000  0.45500000  1.0 0.3916166354
H  H14  1  0.43200000  0.91700000  0.04500000  1.0 0.3916166354
H  H15  1  0.43200000  0.58300000  0.54500000  1.0 0.3916166354
H  H16  1  0.56800000  0.08300000  0.95500000  1.0 0.3916166354
H  H17  1  0.23700000  0.36300000  0.32600000  1.0 0.3916166354
H  H18  1  0.76300000  0.86300000  0.17400000  1.0 0.3916166354
H  H19  1  0.76300000  0.63700000  0.67400000  1.0 0.3916166354
H  H20  1  0.23700000  0.13700000  0.82600000  1.0 0.3916166354
H  H21  1  0.30500000  0.37400000  0.29600000  1.0 0.3916166354
H  H22  1  0.69500000  0.87400000  0.20400000  1.0 0.3916166354
H  H23  1  0.69500000  0.62600000  0.70400000  1.0 0.3916166354
H  H24  1  0.30500000  0.12600000  0.79600000  1.0 0.3916166354
H  H25  1  0.23800000  0.41700000  0.42700000  1.0 0.3574694783
H  H26  1  0.76200000  0.91700000  0.07300000  1.0 0.3574694783
H  H27  1  0.76200000  0.58300000  0.57300000  1.0 0.3574694783
H  H28  1  0.23800000  0.08300000  0.92700000  1.0 0.3574694783
H  H29  1  0.30700000  0.37910000  0.45600000  1.0 0.3916166354
H  H30  1  0.69300000  0.87910000  0.04400000  1.0 0.3916166354
H  H31  1  0.69300000  0.62090000  0.54400000  1.0 0.3916166354
H  H32  1  0.30700000  0.12090000  0.95600000  1.0 0.3916166354
H  H33  1  0.30410000  0.49300000  0.47200000  1.0 0.3811836928
H  H34  1  0.69590000  0.99300000  0.02800000  1.0 0.3811836928
H  H35  1  0.69590000  0.50700000  0.52800000  1.0 0.3811836928
H  H36  1  0.30410000  0.00700000  0.97200000  1.0 0.3811836928
H  H37  1  0.40300000  0.51350000  0.48100000  1.0 0.3811836928
H  H38  1  0.59700000  0.01350000  0.01900000  1.0 0.3811836928
H  H39  1  0.59700000  0.48650000  0.51900000  1.0 0.3811836928
H  H40  1  0.40300000  0.98650000  0.98100000  1.0 0.3811836928
H  H41  1  0.45000000  0.53420000  0.38400000  1.0 0.4000467822
H  H42  1  0.55000000  0.03420000  0.11600000  1.0 0.4000467822
H  H43  1  0.55000000  0.46580000  0.61600000  1.0 0.4000467822
H  H44  1  0.45000000  0.96580000  0.88400000  1.0 0.4000467822
H  H45  1  0.53170000  0.50500000  0.38400000  1.0 0.3916166354
H  H46  1  0.46830000  0.00500000  0.11600000  1.0 0.3916166354
H  H47  1  0.46830000  0.49500000  0.61600000  1.0 0.3916166354
H  H48  1  0.53170000  0.99500000  0.88400000  1.0 0.3916166354
H  H49  1  0.75700000  0.44900000  0.31900000  1.0 0.3185875207
H  H50  1  0.24300000  0.94900000  0.18100000  1.0 0.3185875207
H  H51  1  0.24300000  0.55100000  0.68100000  1.0 0.3185875207
H  H52  1  0.75700000  0.05100000  0.81900000  1.0 0.3185875207
H  H53  1  0.86400000  0.46700000  0.35700000  1.0 0.3680208887
H  H54  1  0.13600000  0.96700000  0.14300000  1.0 0.3680208887
H  H55  1  0.13600000  0.53300000  0.64300000  1.0 0.3680208887
H  H56  1  0.86400000  0.03300000  0.85700000  1.0 0.3680208887
H  H57  1  0.52500000  0.35000000  0.01300000  1.0 0.4000467822
H  H58  1  0.47500000  0.85000000  0.48700000  1.0 0.4000467822
H  H59  1  0.47500000  0.65000000  0.98700000  1.0 0.4000467822
H  H60  1  0.52500000  0.15000000  0.51300000  1.0 0.4000467822
H  H61  1  0.44600000  0.38470000  0.98000000  1.0 0.3916166354
H  H62  1  0.55400000  0.88470000  0.52000000  1.0 0.3916166354
H  H63  1  0.55400000  0.61530000  0.02000000  1.0 0.3916166354
H  H64  1  0.44600000  0.11530000  0.48000000  1.0 0.3916166354
H  H65  1  0.27900000  0.39070000  0.91300000  1.0 0.3811836928
H  H66  1  0.72100000  0.89070000  0.58700000  1.0 0.3811836928
H  H67  1  0.72100000  0.60930000  0.08700000  1.0 0.3811836928
H  H68  1  0.27900000  0.10930000  0.41300000  1.0 0.3811836928
H  H69  1  0.18920000  0.36600000  0.91100000  1.0 0.3916166354
H  H70  1  0.81080000  0.86600000  0.58900000  1.0 0.3916166354
H  H71  1  0.81080000  0.63400000  0.08900000  1.0 0.3916166354
H  H72  1  0.18920000  0.13400000  0.41100000  1.0 0.3916166354
H  H73  1  0.39100000  0.21780000  0.87500000  1.0 0.3811836928
H  H74  1  0.60900000  0.71780000  0.62500000  1.0 0.3811836928
H  H75  1  0.60900000  0.78220000  0.12500000  1.0 0.3811836928
H  H76  1  0.39100000  0.28220000  0.37500000  1.0 0.3811836928
H  H77  1  0.29700000  0.23000000  0.81400000  1.0 0.4000467822
H  H78  1  0.70300000  0.73000000  0.68600000  1.0 0.4000467822
H  H79  1  0.70300000  0.77000000  0.18600000  1.0 0.4000467822
H  H80  1  0.29700000  0.27000000  0.31400000  1.0 0.4000467822
H  H81  1  0.60800000  0.28600000  0.97300000  1.0 0.4081848726
H  H82  1  0.39200000  0.78600000  0.52700000  1.0 0.4081848726
H  H83  1  0.39200000  0.71400000  0.02700000  1.0 0.4081848726
H  H84  1  0.60800000  0.21400000  0.47300000  1.0 0.4081848726
H  H85  1  0.52200000  0.25420000  0.94700000  1.0 0.3680208887
H  H86  1  0.47800000  0.75420000  0.55300000  1.0 0.3680208887
H  H87  1  0.47800000  0.74580000  0.05300000  1.0 0.3680208887
H  H88  1  0.52200000  0.24580000  0.44700000  1.0 0.3680208887
H  H89  1  0.42630000  0.51880000  0.22980000  1.0 0.1322819233
H  H90  1  0.57370000  0.01880000  0.27020000  1.0 0.1322819233
H  H91  1  0.57370000  0.48120000  0.77020000  1.0 0.1322819233
H  H92  1  0.42630000  0.98120000  0.72980000  1.0 0.1322819233
H  H93  1  0.32070000  0.56110000  0.26090000  1.0 0.109605664
H  H94  1  0.67930000  0.06110000  0.23910000  1.0 0.109605664
H  H95  1  0.67930000  0.43890000  0.73910000  1.0 0.109605664
H  H96  1  0.32070000  0.93890000  0.76090000  1.0 0.109605664
H  H97  1  0.41110000  0.66800000  0.20440000  1.0 0.0991843631
H  H98  1  0.58890000  0.16800000  0.29560000  1.0 0.0991843631
H  H99  1  0.58890000  0.33200000  0.79560000  1.0 0.0991843631
H  H100  1  0.41110000  0.83200000  0.70440000  1.0 0.0991843631
H  H101  1  0.59290000  0.46080000  0.27980000  1.0 0.0991843631
H  H102  1  0.40710000  0.96080000  0.22020000  1.0 0.0991843631
H  H103  1  0.40710000  0.53920000  0.72020000  1.0 0.0991843631
H  H104  1  0.59290000  0.03920000  0.77980000  1.0 0.0991843631
H  H105  1  0.57070000  0.41560000  0.11320000  1.0 0.1204089339
H  H106  1  0.42930000  0.91560000  0.38680000  1.0 0.1204089339
H  H107  1  0.42930000  0.58440000  0.88680000  1.0 0.1204089339
H  H108  1  0.57070000  0.08440000  0.61320000  1.0 0.1204089339
H  H109  1  0.41080000  0.37930000  0.08930000  1.0 0.1322819233
H  H110  1  0.58920000  0.87930000  0.41070000  1.0 0.1322819233
H  H111  1  0.58920000  0.62070000  0.91070000  1.0 0.1322819233
H  H112  1  0.41080000  0.12070000  0.58930000  1.0 0.1322819233
H  H113  1  0.90270000  0.32630000  0.04660000  1.0 0.0907125339
H  H114  1  0.09730000  0.82630000  0.45340000  1.0 0.0907125339
H  H115  1  0.09730000  0.67370000  0.95340000  1.0 0.0907125339
H  H116  1  0.90270000  0.17370000  0.54660000  1.0 0.0907125339
H  H117  1  0.13560000  0.39410000  0.18750000  1.0 0.109605664
H  H118  1  0.86440000  0.89410000  0.31250000  1.0 0.109605664
H  H119  1  0.86440000  0.60590000  0.81250000  1.0 0.109605664
H  H120  1  0.13560000  0.10590000  0.68750000  1.0 0.109605664
H  H121  1  0.01070000  0.43250000  0.20600000  1.0 0.1322819233
H  H122  1  0.98930000  0.93250000  0.29400000  1.0 0.1322819233
H  H123  1  0.98930000  0.56750000  0.79400000  1.0 0.1322819233
H  H124  1  0.01070000  0.06750000  0.70600000  1.0 0.1322819233
H  H125  1  0.42760000  0.20570000  0.22730000  1.0 0.1322819233
H  H126  1  0.57240000  0.70570000  0.27270000  1.0 0.1322819233
H  H127  1  0.57240000  0.79430000  0.77270000  1.0 0.1322819233
H  H128  1  0.42760000  0.29430000  0.72730000  1.0 0.1322819233
H  H129  1  0.27460000  0.24680000  0.20550000  1.0 0.1204089339
H  H130  1  0.72540000  0.74680000  0.29450000  1.0 0.1204089339
H  H131  1  0.72540000  0.75320000  0.79450000  1.0 0.1204089339
H  H132  1  0.27460000  0.25320000  0.70550000  1.0 0.1204089339
H  H133  1  0.26400000  0.29390000  0.04290000  1.0 0.109605664
H  H134  1  0.73600000  0.79390000  0.45710000  1.0 0.109605664
H  H135  1  0.73600000  0.70610000  0.95710000  1.0 0.109605664
H  H136  1  0.26400000  0.20610000  0.54290000  1.0 0.109605664
H  H137  1  0.06950000  0.11580000  0.26810000  1.0 0.1322819233
H  H138  1  0.93050000  0.61580000  0.23190000  1.0 0.1322819233
H  H139  1  0.93050000  0.88420000  0.73190000  1.0 0.1322819233
H  H140  1  0.06950000  0.38420000  0.76810000  1.0 0.1322819233
H  H141  1  0.22050000  0.07290000  0.29350000  1.0 0.1204089339
H  H142  1  0.77950000  0.57290000  0.20650000  1.0 0.1204089339
H  H143  1  0.77950000  0.92710000  0.70650000  1.0 0.1204089339
H  H144  1  0.22050000  0.42710000  0.79350000  1.0 0.1204089339
H  H145  1  0.03550000  0.96950000  0.21940000  1.0 0.109605664
H  H146  1  0.96450000  0.46950000  0.28060000  1.0 0.109605664
H  H147  1  0.96450000  0.03050000  0.78060000  1.0 0.109605664
H  H148  1  0.03550000  0.53050000  0.71940000  1.0 0.109605664
H  H149  1  0.96500000  0.32120000  0.80530000  1.0 0.0907125339
H  H150  1  0.03500000  0.82120000  0.69470000  1.0 0.0907125339
H  H151  1  0.03500000  0.67880000  0.19470000  1.0 0.0907125339
H  H152  1  0.96500000  0.17880000  0.30530000  1.0 0.0907125339
H  H153  1  0.72710000  0.28170000  0.63530000  1.0 0.1322819233
H  H154  1  0.27290000  0.78170000  0.86470000  1.0 0.1322819233
H  H155  1  0.27290000  0.71830000  0.36470000  1.0 0.1322819233
H  H156  1  0.72710000  0.21830000  0.13530000  1.0 0.1322819233
H  H157  1  0.84760000  0.24470000  0.61000000  1.0 0.1357989699
H  H158  1  0.15240000  0.74470000  0.89000000  1.0 0.1357989699
H  H159  1  0.15240000  0.75530000  0.39000000  1.0 0.1357989699
H  H160  1  0.84760000  0.25530000  0.11000000  1.0 0.1357989699
H  H161  1  0.79180000  0.11640000  0.38870000  1.0 0.1621374503
H  H162  1  0.20820000  0.61640000  0.11130000  1.0 0.1621374503
H  H163  1  0.20820000  0.88360000  0.61130000  1.0 0.1621374503
H  H164  1  0.79180000  0.38360000  0.88870000  1.0 0.1621374503
H  H165  1  0.81380000  0.13240000  0.45870000  1.0 0.2414806426
H  H166  1  0.18620000  0.63240000  0.04130000  1.0 0.2414806426
H  H167  1  0.18620000  0.86760000  0.54130000  1.0 0.2414806426
H  H168  1  0.81380000  0.36760000  0.95870000  1.0 0.2414806426
H  H169  1  0.82300000  0.15110000  0.38990000  1.0 0.2414806426
H  H170  1  0.17700000  0.65110000  0.11010000  1.0 0.2414806426
H  H171  1  0.17700000  0.84890000  0.61010000  1.0 0.2414806426
H  H172  1  0.82300000  0.34890000  0.88990000  1.0 0.2414806426
H  H173  1  0.78430000  0.12550000  0.43410000  1.0 0.2031360172
H  H174  1  0.21570000  0.62550000  0.06590000  1.0 0.2031360172
H  H175  1  0.21570000  0.87450000  0.56590000  1.0 0.2031360172
H  H176  1  0.78430000  0.37450000  0.93410000  1.0 0.2031360172
C  C1  1  0.56170000  0.54020000  0.18410000  1.0 0.569356977
C  C2  1  0.43830000  0.04020000  0.31590000  1.0 0.569356977
C  C3  1  0.43830000  0.45980000  0.81590000  1.0 0.569356977
C  C4  1  0.56170000  0.95980000  0.68410000  1.0 0.569356977
C  C5  1  0.49180000  0.56890000  0.20200000  1.0 0.0213659676
C  C6  1  0.50820000  0.06890000  0.29800000  1.0 0.0213659676
C  C7  1  0.50820000  0.43110000  0.79800000  1.0 0.0213659676
C  C8  1  0.49180000  0.93110000  0.70200000  1.0 0.0213659676
C  C9  1  0.42650000  0.54960000  0.22560000  1.0 -0.1725723728
C  C10  1  0.57350000  0.04960000  0.27440000  1.0 -0.1725723728
C  C11  1  0.57350000  0.45040000  0.77440000  1.0 -0.1725723728
C  C12  1  0.42650000  0.95040000  0.72560000  1.0 -0.1725723728
C  C13  1  0.36200000  0.57490000  0.24310000  1.0 0.074961552
C  C14  1  0.63800000  0.07490000  0.25690000  1.0 0.074961552
C  C15  1  0.63800000  0.42510000  0.75690000  1.0 0.074961552
C  C16  1  0.36200000  0.92510000  0.74310000  1.0 0.074961552
C  C17  1  0.41640000  0.63730000  0.21090000  1.0 0.0393372317
C  C18  1  0.58360000  0.13730000  0.28910000  1.0 0.0393372317
C  C19  1  0.58360000  0.36270000  0.78910000  1.0 0.0393372317
C  C20  1  0.41640000  0.86270000  0.71090000  1.0 0.0393372317
C  C21  1  0.48620000  0.61440000  0.19400000  1.0 -0.0788028672
C  C22  1  0.51380000  0.11440000  0.30600000  1.0 -0.0788028672
C  C23  1  0.51380000  0.38560000  0.80600000  1.0 -0.0788028672
C  C24  1  0.48620000  0.88560000  0.69400000  1.0 -0.0788028672
C  C25  1  0.55290000  0.63960000  0.17000000  1.0 0.569356977
C  C26  1  0.44710000  0.13960000  0.33000000  1.0 0.569356977
C  C27  1  0.44710000  0.36040000  0.83000000  1.0 0.569356977
C  C28  1  0.55290000  0.86040000  0.67000000  1.0 0.569356977
C  C29  1  0.41910000  0.43100000  0.27910000  1.0 0.569356977
C  C30  1  0.58090000  0.93100000  0.22090000  1.0 0.569356977
C  C31  1  0.58090000  0.56900000  0.72090000  1.0 0.569356977
C  C32  1  0.41910000  0.06900000  0.77910000  1.0 0.569356977
C  C33  1  0.45970000  0.42370000  0.22940000  1.0 -0.0471573196
C  C34  1  0.54030000  0.92370000  0.27060000  1.0 -0.0471573196
C  C35  1  0.54030000  0.57630000  0.77060000  1.0 -0.0471573196
C  C36  1  0.45970000  0.07630000  0.72940000  1.0 -0.0471573196
C  C37  1  0.55490000  0.44420000  0.24070000  1.0 0.0021443226
C  C38  1  0.44510000  0.94420000  0.25930000  1.0 0.0021443226
C  C39  1  0.44510000  0.55580000  0.75930000  1.0 0.0021443226
C  C40  1  0.55490000  0.05580000  0.74070000  1.0 0.0021443226
C  C41  1  0.54220000  0.41750000  0.14340000  1.0 0.109605664
C  C42  1  0.45780000  0.91750000  0.35660000  1.0 0.109605664
C  C43  1  0.45780000  0.58250000  0.85660000  1.0 0.109605664
C  C44  1  0.54220000  0.08250000  0.64340000  1.0 0.109605664
C  C45  1  0.44700000  0.39560000  0.12890000  1.0 -0.1508489732
C  C46  1  0.55300000  0.89560000  0.37110000  1.0 -0.1508489732
C  C47  1  0.55300000  0.60440000  0.87110000  1.0 -0.1508489732
C  C48  1  0.44700000  0.10440000  0.62890000  1.0 -0.1508489732
C  C49  1  0.40470000  0.39770000  0.17340000  1.0 0.0213659676
C  C50  1  0.59530000  0.89770000  0.32660000  1.0 0.0213659676
C  C51  1  0.59530000  0.60230000  0.82660000  1.0 0.0213659676
C  C52  1  0.40470000  0.10230000  0.67340000  1.0 0.0213659676
C  C53  1  0.31020000  0.37008000  0.16590000  1.0 0.5513216645
C  C54  1  0.68980000  0.87008000  0.33410000  1.0 0.5513216645
C  C55  1  0.68980000  0.62992000  0.83410000  1.0 0.5513216645
C  C56  1  0.31020000  0.12992000  0.66590000  1.0 0.5513216645
C  C57  1  0.72720000  0.35690000  0.04510000  1.0 0.5513216645
C  C58  1  0.27280000  0.85690000  0.45490000  1.0 0.5513216645
C  C59  1  0.27280000  0.64310000  0.95490000  1.0 0.5513216645
C  C60  1  0.72720000  0.14310000  0.54510000  1.0 0.5513216645
C  C61  1  0.84470000  0.37050000  0.08670000  1.0 -0.0888197016
C  C62  1  0.15530000  0.87050000  0.41330000  1.0 -0.0888197016
C  C63  1  0.15530000  0.62950000  0.91330000  1.0 -0.0888197016
C  C64  1  0.84470000  0.12950000  0.58670000  1.0 -0.0888197016
C  C65  1  0.92430000  0.34820000  0.07950000  1.0 0.0213659676
C  C66  1  0.07570000  0.84820000  0.42050000  1.0 0.0213659676
C  C67  1  0.07570000  0.65180000  0.92050000  1.0 0.0213659676
C  C68  1  0.92430000  0.15180000  0.57950000  1.0 0.0213659676
C  C69  1  0.06080000  0.38750000  0.16190000  1.0 0.0907125339
C  C70  1  0.93920000  0.88750000  0.33810000  1.0 0.0907125339
C  C71  1  0.93920000  0.61250000  0.83810000  1.0 0.0907125339
C  C72  1  0.06080000  0.11250000  0.66190000  1.0 0.0907125339
C  C73  1  0.98650000  0.41090000  0.17250000  1.0 -0.1508489732
C  C74  1  0.01350000  0.91090000  0.32750000  1.0 -0.1508489732
C  C75  1  0.01350000  0.58910000  0.82750000  1.0 -0.1508489732
C  C76  1  0.98650000  0.08910000  0.67250000  1.0 -0.1508489732
C  C77  1  0.87590000  0.40310000  0.13430000  1.0 0.0327210118
C  C78  1  0.12410000  0.90310000  0.36570000  1.0 0.0327210118
C  C79  1  0.12410000  0.59690000  0.86570000  1.0 0.0327210118
C  C80  1  0.87590000  0.09690000  0.63430000  1.0 0.0327210118
C  C81  1  0.79510000  0.43070000  0.14390000  1.0 0.5513216645
C  C82  1  0.20490000  0.93070000  0.35610000  1.0 0.5513216645
C  C83  1  0.20490000  0.56930000  0.85610000  1.0 0.5513216645
C  C84  1  0.79510000  0.06930000  0.64390000  1.0 0.5513216645
C  C85  1  0.53410000  0.19550000  0.15880000  1.0 0.5632179022
C  C86  1  0.46590000  0.69550000  0.34120000  1.0 0.5632179022
C  C87  1  0.46590000  0.80450000  0.84120000  1.0 0.5632179022
C  C88  1  0.53410000  0.30450000  0.65880000  1.0 0.5632179022
C  C89  1  0.43930000  0.22520000  0.14590000  1.0 0.0327210118
C  C90  1  0.56070000  0.72520000  0.35410000  1.0 0.0327210118
C  C91  1  0.56070000  0.77480000  0.85410000  1.0 0.0327210118
C  C92  1  0.43930000  0.27480000  0.64590000  1.0 0.0327210118
C  C93  1  0.39540000  0.22350000  0.18910000  1.0 -0.1508489732
C  C94  1  0.60460000  0.72350000  0.31090000  1.0 -0.1508489732
C  C95  1  0.60460000  0.77650000  0.81090000  1.0 -0.1508489732
C  C96  1  0.39540000  0.27650000  0.68910000  1.0 -0.1508489732
C  C97  1  0.30400000  0.24820000  0.17580000  1.0 0.0907125339
C  C98  1  0.69600000  0.74820000  0.32420000  1.0 0.0907125339
C  C99  1  0.69600000  0.75180000  0.82420000  1.0 0.0907125339
C  C100  1  0.30400000  0.25180000  0.67580000  1.0 0.0907125339
C  C101  1  0.29770000  0.27570000  0.08060000  1.0 0.0490259171
C  C102  1  0.70230000  0.77570000  0.41940000  1.0 0.0490259171
C  C103  1  0.70230000  0.72430000  0.91940000  1.0 0.0490259171
C  C104  1  0.29770000  0.22430000  0.58060000  1.0 0.0490259171
C  C105  1  0.38910000  0.25190000  0.09050000  1.0 -0.0698771424
C  C106  1  0.61090000  0.75190000  0.40950000  1.0 -0.0698771424
C  C107  1  0.61090000  0.74810000  0.90950000  1.0 -0.0698771424
C  C108  1  0.38910000  0.24810000  0.59050000  1.0 -0.0698771424
C  C109  1  0.43250000  0.25750000  0.04180000  1.0 0.6028350383
C  C110  1  0.56750000  0.75750000  0.45820000  1.0 0.6028350383
C  C111  1  0.56750000  0.74250000  0.95820000  1.0 0.6028350383
C  C112  1  0.43250000  0.24250000  0.54180000  1.0 0.6028350383
C  C113  1  0.85920000  0.09660000  0.20910000  1.0 0.569356977
C  C114  1  0.14080000  0.59660000  0.29090000  1.0 0.569356977
C  C115  1  0.14080000  0.90340000  0.79090000  1.0 0.569356977
C  C116  1  0.85920000  0.40340000  0.70910000  1.0 0.569356977
C  C117  1  0.95720000  0.06720000  0.22910000  1.0 0.0393372317
C  C118  1  0.04280000  0.56720000  0.27090000  1.0 0.0393372317
C  C119  1  0.04280000  0.93280000  0.77090000  1.0 0.0393372317
C  C120  1  0.95720000  0.43280000  0.72910000  1.0 0.0393372317
C  C121  1  0.06060000  0.08550000  0.25830000  1.0 -0.1621031498
C  C122  1  0.93940000  0.58550000  0.24170000  1.0 -0.1621031498
C  C123  1  0.93940000  0.91450000  0.74170000  1.0 -0.1621031498
C  C124  1  0.06060000  0.41450000  0.75830000  1.0 -0.1621031498
C  C125  1  0.15070000  0.05980000  0.27320000  1.0 0.109605664
C  C126  1  0.84930000  0.55980000  0.22680000  1.0 0.109605664
C  C127  1  0.84930000  0.94020000  0.72680000  1.0 0.109605664
C  C128  1  0.15070000  0.44020000  0.77320000  1.0 0.109605664
C  C129  1  0.04250000  0.99950000  0.23080000  1.0 0.0393372317
C  C130  1  0.95750000  0.49950000  0.26920000  1.0 0.0393372317
C  C131  1  0.95750000  0.00050000  0.76920000  1.0 0.0393372317
C  C132  1  0.04250000  0.50050000  0.73080000  1.0 0.0393372317
C  C133  1  0.94960000  0.02270000  0.21640000  1.0 -0.0698771424
C  C134  1  0.05040000  0.52270000  0.28360000  1.0 -0.0698771424
C  C135  1  0.05040000  0.97730000  0.78360000  1.0 -0.0698771424
C  C136  1  0.94960000  0.47730000  0.71640000  1.0 -0.0698771424
C  C137  1  0.84300000  0.99830000  0.18820000  1.0 0.569356977
C  C138  1  0.15700000  0.49830000  0.31180000  1.0 0.569356977
C  C139  1  0.15700000  0.00170000  0.81180000  1.0 0.569356977
C  C140  1  0.84300000  0.50170000  0.68820000  1.0 0.569356977
C  C141  1  0.13760000  0.29160000  0.80070000  1.0 0.569356977
C  C142  1  0.86240000  0.79160000  0.69930000  1.0 0.569356977
C  C143  1  0.86240000  0.70840000  0.19930000  1.0 0.569356977
C  C144  1  0.13760000  0.20840000  0.30070000  1.0 0.569356977
C  C145  1  0.01980000  0.28540000  0.75260000  1.0 -0.0577486627
C  C146  1  0.98020000  0.78540000  0.74740000  1.0 -0.0577486627
C  C147  1  0.98020000  0.71460000  0.24740000  1.0 -0.0577486627
C  C148  1  0.01980000  0.21460000  0.25260000  1.0 -0.0577486627
C  C149  1  0.94170000  0.30580000  0.76500000  1.0 0.0327210118
C  C150  1  0.05830000  0.80580000  0.73500000  1.0 0.0327210118
C  C151  1  0.05830000  0.69420000  0.23500000  1.0 0.0327210118
C  C152  1  0.94170000  0.19420000  0.26500000  1.0 0.0327210118
C  C153  1  0.80240000  0.28240000  0.66580000  1.0 0.0991843631
C  C154  1  0.19760000  0.78240000  0.83420000  1.0 0.0991843631
C  C155  1  0.19760000  0.71760000  0.33420000  1.0 0.0991843631
C  C156  1  0.80240000  0.21760000  0.16580000  1.0 0.0991843631
C  C157  1  0.87370000  0.26050000  0.65010000  1.0 -0.1369724109
C  C158  1  0.12630000  0.76050000  0.84990000  1.0 -0.1369724109
C  C159  1  0.12630000  0.73950000  0.34990000  1.0 -0.1369724109
C  C160  1  0.87370000  0.23950000  0.15010000  1.0 -0.1369724109
C  C161  1  0.98400000  0.26200000  0.69360000  1.0 0.0101611592
C  C162  1  0.01600000  0.76200000  0.80640000  1.0 0.0101611592
C  C163  1  0.01600000  0.73800000  0.30640000  1.0 0.0101611592
C  C164  1  0.98400000  0.23800000  0.19360000  1.0 0.0101611592
C  C165  1  0.06520000  0.23530000  0.68210000  1.0 0.5513216645
C  C166  1  0.93480000  0.73530000  0.81790000  1.0 0.5513216645
C  C167  1  0.93480000  0.76470000  0.31790000  1.0 0.5513216645
C  C168  1  0.06520000  0.26470000  0.18210000  1.0 0.5513216645
N  N1  1  0.35620000  0.61873000  0.23570000  1.0 -0.2593048125
N  N2  1  0.64380000  0.11873000  0.26430000  1.0 -0.2593048125
N  N3  1  0.64380000  0.38127000  0.76430000  1.0 -0.2593048125
N  N4  1  0.35620000  0.88127000  0.73570000  1.0 -0.2593048125
N  N5  1  0.59590000  0.44138000  0.19810000  1.0 -0.2296409294
N  N6  1  0.40410000  0.94138000  0.30190000  1.0 -0.2296409294
N  N7  1  0.40410000  0.55862000  0.80190000  1.0 -0.2296409294
N  N8  1  0.59590000  0.05862000  0.69810000  1.0 -0.2296409294
N  N9  1  0.03150000  0.35603000  0.11700000  1.0 -0.2226193656
N  N10  1  0.96850000  0.85603000  0.38300000  1.0 -0.2226193656
N  N11  1  0.96850000  0.64397000  0.88300000  1.0 -0.2226193656
N  N12  1  0.03150000  0.14397000  0.61700000  1.0 -0.2226193656
N  N13  1  0.25520000  0.27399000  0.12220000  1.0 -0.2226193656
N  N14  1  0.74480000  0.77399000  0.37780000  1.0 -0.2226193656
N  N15  1  0.74480000  0.72601000  0.87780000  1.0 -0.2226193656
N  N16  1  0.25520000  0.22601000  0.62220000  1.0 -0.2226193656
N  N17  1  0.83530000  0.30462000  0.72250000  1.0 -0.2226193656
N  N18  1  0.16470000  0.80462000  0.77750000  1.0 -0.2226193656
N  N19  1  0.16470000  0.69538000  0.27750000  1.0 -0.2226193656
N  N20  1  0.83530000  0.19538000  0.22250000  1.0 -0.2226193656
N  N21  1  0.14310000  0.01704000  0.26020000  1.0 -0.2400275379
N  N22  1  0.85690000  0.51704000  0.23980000  1.0 -0.2400275379
N  N23  1  0.85690000  0.98296000  0.73980000  1.0 -0.2400275379
N  N24  1  0.14310000  0.48296000  0.76020000  1.0 -0.2400275379
O  O1  1  0.52810000  0.52755000  0.12730000  1.0 -0.4928852901
O  O2  1  0.47190000  0.02755000  0.37270000  1.0 -0.4928852901
O  O3  1  0.47190000  0.47245000  0.87270000  1.0 -0.4928852901
O  O4  1  0.52810000  0.97245000  0.62730000  1.0 -0.4928852901
O  O5  1  0.65170000  0.52825000  0.23310000  1.0 -0.5699515054
O  O6  1  0.34830000  0.02825000  0.26690000  1.0 -0.5699515054
O  O7  1  0.34830000  0.47175000  0.76690000  1.0 -0.5699515054
O  O8  1  0.65170000  0.97175000  0.73310000  1.0 -0.5699515054
O  O9  1  0.61540000  0.61977000  0.15390000  1.0 -0.5972907752
O  O10  1  0.38460000  0.11977000  0.34610000  1.0 -0.5972907752
O  O11  1  0.38460000  0.38023000  0.84610000  1.0 -0.5972907752
O  O12  1  0.61540000  0.88023000  0.65390000  1.0 -0.5972907752
O  O13  1  0.54340000  0.68051000  0.16680000  1.0 -0.6125633726
O  O14  1  0.45660000  0.18051000  0.33320000  1.0 -0.6125633726
O  O15  1  0.45660000  0.31949000  0.83320000  1.0 -0.6125633726
O  O16  1  0.54340000  0.81949000  0.66680000  1.0 -0.6125633726
O  O17  1  0.32740000  0.44881000  0.26000000  1.0 -0.6125633726
O  O18  1  0.67260000  0.94881000  0.24000000  1.0 -0.6125633726
O  O19  1  0.67260000  0.55119000  0.74000000  1.0 -0.6125633726
O  O20  1  0.32740000  0.05119000  0.76000000  1.0 -0.6125633726
O  O21  1  0.47970000  0.42100000  0.33800000  1.0 -0.6326723903
O  O22  1  0.52030000  0.92100000  0.16200000  1.0 -0.6326723903
O  O23  1  0.52030000  0.57900000  0.66200000  1.0 -0.6326723903
O  O24  1  0.47970000  0.07900000  0.83800000  1.0 -0.6326723903
O  O25  1  0.31720000  0.35348000  0.21760000  1.0 -0.5595211669
O  O26  1  0.68280000  0.85348000  0.28240000  1.0 -0.5595211669
O  O27  1  0.68280000  0.64652000  0.78240000  1.0 -0.5595211669
O  O28  1  0.31720000  0.14652000  0.71760000  1.0 -0.5595211669
O  O29  1  0.23320000  0.36364000  0.10870000  1.0 -0.5540447444
O  O30  1  0.76680000  0.86364000  0.39130000  1.0 -0.5540447444
O  O31  1  0.76680000  0.63636000  0.89130000  1.0 -0.5540447444
O  O32  1  0.23320000  0.13636000  0.60870000  1.0 -0.5540447444
O  O33  1  0.69850000  0.34530000  0.98660000  1.0 -0.5699515054
O  O34  1  0.30150000  0.84530000  0.51340000  1.0 -0.5699515054
O  O35  1  0.30150000  0.65470000  0.01340000  1.0 -0.5699515054
O  O36  1  0.69850000  0.15470000  0.48660000  1.0 -0.5699515054
O  O37  1  0.66890000  0.35597000  0.07280000  1.0 -0.5167334288
O  O38  1  0.33110000  0.85597000  0.42720000  1.0 -0.5167334288
O  O39  1  0.33110000  0.64403000  0.92720000  1.0 -0.5167334288
O  O40  1  0.66890000  0.14403000  0.57280000  1.0 -0.5167334288
O  O41  1  0.80300000  0.42945000  0.20170000  1.0 -0.5595211669
O  O42  1  0.19700000  0.92945000  0.29830000  1.0 -0.5595211669
O  O43  1  0.19700000  0.57055000  0.79830000  1.0 -0.5595211669
O  O44  1  0.80300000  0.07055000  0.70170000  1.0 -0.5595211669
O  O45  1  0.73100000  0.45380000  0.09940000  1.0 -0.5137584716
O  O46  1  0.26900000  0.95380000  0.40060000  1.0 -0.5137584716
O  O47  1  0.26900000  0.54620000  0.90060000  1.0 -0.5137584716
O  O48  1  0.73100000  0.04620000  0.59940000  1.0 -0.5137584716
O  O49  1  0.62340000  0.20335000  0.20900000  1.0 -0.5420938789
O  O50  1  0.37660000  0.70335000  0.29100000  1.0 -0.5420938789
O  O51  1  0.37660000  0.79665000  0.79100000  1.0 -0.5420938789
O  O52  1  0.62340000  0.29665000  0.70900000  1.0 -0.5420938789
O  O53  1  0.51400000  0.16312000  0.12200000  1.0 -0.5699515054
O  O54  1  0.48600000  0.66312000  0.37800000  1.0 -0.5699515054
O  O55  1  0.48600000  0.83688000  0.87800000  1.0 -0.5699515054
O  O56  1  0.51400000  0.33688000  0.62200000  1.0 -0.5699515054
O  O57  1  0.53140000  0.25050000  0.06210000  1.0 -0.5322297673
O  O58  1  0.46860000  0.75050000  0.43790000  1.0 -0.5322297673
O  O59  1  0.46860000  0.74950000  0.93790000  1.0 -0.5322297673
O  O60  1  0.53140000  0.24950000  0.56210000  1.0 -0.5322297673
O  O61  1  0.36500000  0.27053000  0.98510000  1.0 -0.6845069438
O  O62  1  0.63500000  0.77053000  0.51490000  1.0 -0.6845069438
O  O63  1  0.63500000  0.72947000  0.01490000  1.0 -0.6845069438
O  O64  1  0.36500000  0.22947000  0.48510000  1.0 -0.6845069438
O  O65  1  0.83760000  0.10797000  0.25430000  1.0 -0.5540447444
O  O66  1  0.16240000  0.60797000  0.24570000  1.0 -0.5540447444
O  O67  1  0.16240000  0.89203000  0.74570000  1.0 -0.5540447444
O  O68  1  0.83760000  0.39203000  0.75430000  1.0 -0.5540447444
O  O69  1  0.81100000  0.10931000  0.15060000  1.0 -0.5322297673
O  O70  1  0.18900000  0.60931000  0.34940000  1.0 -0.5322297673
O  O71  1  0.18900000  0.89069000  0.84940000  1.0 -0.5322297673
O  O72  1  0.81100000  0.39069000  0.65060000  1.0 -0.5322297673
O  O73  1  0.75800000  0.01730000  0.17890000  1.0 -0.5781494587
O  O74  1  0.24200000  0.51730000  0.32110000  1.0 -0.5781494587
O  O75  1  0.24200000  0.98270000  0.82110000  1.0 -0.5781494587
O  O76  1  0.75800000  0.48270000  0.67890000  1.0 -0.5781494587
O  O77  1  0.84370000  0.95835000  0.17490000  1.0 -0.6644404739
O  O78  1  0.15630000  0.45835000  0.32510000  1.0 -0.6644404739
O  O79  1  0.15630000  0.04165000  0.82510000  1.0 -0.6644404739
O  O80  1  0.84370000  0.54165000  0.67490000  1.0 -0.6644404739
O  O81  1  0.17010000  0.28166000  0.86070000  1.0 -0.6236227959
O  O82  1  0.82990000  0.78166000  0.63930000  1.0 -0.6236227959
O  O83  1  0.82990000  0.71834000  0.13930000  1.0 -0.6236227959
O  O84  1  0.17010000  0.21834000  0.36070000  1.0 -0.6236227959
O  O85  1  0.19930000  0.30863000  0.78110000  1.0 -0.6125633726
O  O86  1  0.80070000  0.80863000  0.71890000  1.0 -0.6125633726
O  O87  1  0.80070000  0.69137000  0.21890000  1.0 -0.6125633726
O  O88  1  0.19930000  0.19137000  0.28110000  1.0 -0.6125633726
O  O89  1  0.13860000  0.21601000  0.73020000  1.0 -0.5781494587
O  O90  1  0.86140000  0.71601000  0.76980000  1.0 -0.5781494587
O  O91  1  0.86140000  0.78399000  0.26980000  1.0 -0.5781494587
O  O92  1  0.13860000  0.28399000  0.23020000  1.0 -0.5781494587
O  O93  1  0.05120000  0.23350000  0.62320000  1.0 -0.5420938789
O  O94  1  0.94880000  0.73350000  0.87680000  1.0 -0.5420938789
O  O95  1  0.94880000  0.76650000  0.37680000  1.0 -0.5420938789
O  O96  1  0.05120000  0.26650000  0.12320000  1.0 -0.5420938789
O  O97  1  0.04820000  0.31343000  0.00160000  1.0 -0.7012836545
O  O98  1  0.95180000  0.81343000  0.49840000  1.0 -0.7012836545
O  O99  1  0.95180000  0.68657000  0.99840000  1.0 -0.7012836545
O  O100  1  0.04820000  0.18657000  0.50160000  1.0 -0.7012836545
O  O101  1  0.52290000  0.42700000  0.46680000  1.0 -0.7678427359
O  O102  1  0.47710000  0.92700000  0.03320000  1.0 -0.7678427359
O  O103  1  0.47710000  0.57300000  0.53320000  1.0 -0.7678427359
O  O104  1  0.52290000  0.07300000  0.96680000  1.0 -0.7678427359
O  O105  1  0.29090000  0.37764000  0.32820000  1.0 -0.7993759721
O  O106  1  0.70910000  0.87764000  0.17180000  1.0 -0.7993759721
O  O107  1  0.70910000  0.62236000  0.67180000  1.0 -0.7993759721
O  O108  1  0.29090000  0.12236000  0.82820000  1.0 -0.7993759721
O  O109  1  0.30170000  0.40570000  0.44420000  1.0 -0.779206714
O  O110  1  0.69830000  0.90570000  0.05580000  1.0 -0.779206714
O  O111  1  0.69830000  0.59430000  0.55580000  1.0 -0.779206714
O  O112  1  0.30170000  0.09430000  0.94420000  1.0 -0.779206714
O  O113  1  0.35710000  0.49330000  0.46370000  1.0 -0.779206714
O  O114  1  0.64290000  0.99330000  0.03630000  1.0 -0.779206714
O  O115  1  0.64290000  0.50670000  0.53630000  1.0 -0.779206714
O  O116  1  0.35710000  0.00670000  0.96370000  1.0 -0.779206714
O  O117  1  0.47050000  0.50816000  0.38330000  1.0 -0.779206714
O  O118  1  0.52950000  0.00816000  0.11670000  1.0 -0.779206714
O  O119  1  0.52950000  0.49184000  0.61670000  1.0 -0.779206714
O  O120  1  0.47050000  0.99184000  0.88330000  1.0 -0.779206714
O  O121  1  0.80560000  0.45650000  0.32850000  1.0 -0.5322297673
O  O122  1  0.19440000  0.95650000  0.17150000  1.0 -0.5322297673
O  O123  1  0.19440000  0.54350000  0.67150000  1.0 -0.5322297673
O  O124  1  0.80560000  0.04350000  0.82850000  1.0 -0.5322297673
O  O125  1  0.45980000  0.35761000  0.98720000  1.0 -0.7993759721
O  O126  1  0.54020000  0.85761000  0.51280000  1.0 -0.7993759721
O  O127  1  0.54020000  0.64239000  0.01280000  1.0 -0.7993759721
O  O128  1  0.45980000  0.14239000  0.48720000  1.0 -0.7993759721
O  O129  1  0.23970000  0.36789000  0.90030000  1.0 -0.7678427359
O  O130  1  0.76030000  0.86789000  0.59970000  1.0 -0.7678427359
O  O131  1  0.76030000  0.63211000  0.09970000  1.0 -0.7678427359
O  O132  1  0.23970000  0.13211000  0.40030000  1.0 -0.7678427359
O  O133  1  0.34760000  0.23735000  0.85100000  1.0 -0.7645650416
O  O134  1  0.65240000  0.73735000  0.64900000  1.0 -0.7645650416
O  O135  1  0.65240000  0.76265000  0.14900000  1.0 -0.7645650416
O  O136  1  0.34760000  0.26265000  0.35100000  1.0 -0.7645650416
O  O137  1  0.54080000  0.28054000  0.95450000  1.0 -0.7678427359
O  O138  1  0.45920000  0.78054000  0.54550000  1.0 -0.7678427359
O  O139  1  0.45920000  0.71946000  0.04550000  1.0 -0.7678427359
O  O140  1  0.54080000  0.21946000  0.45450000  1.0 -0.7678427359
O  O141  1  0.83160000  0.17160000  0.35160000  1.0 -0.1621031498
O  O142  1  0.16840000  0.67160000  0.14840000  1.0 -0.1621031498
O  O143  1  0.16840000  0.82840000  0.64840000  1.0 -0.1621031498
O  O144  1  0.83160000  0.32840000  0.85160000  1.0 -0.1621031498
O  O145  1  0.79660000  0.19570000  0.33520000  1.0 -0.0185130149
O  O146  1  0.20340000  0.69570000  0.16480000  1.0 -0.0185130149
O  O147  1  0.20340000  0.80430000  0.66480000  1.0 -0.0185130149
O  O148  1  0.79660000  0.30430000  0.83520000  1.0 -0.0185130149
O  O149  1  0.81190000  0.10740000  0.43300000  1.0 -0.1369724109
O  O150  1  0.18810000  0.60740000  0.06700000  1.0 -0.1369724109
O  O151  1  0.18810000  0.89260000  0.56700000  1.0 -0.1369724109
O  O152  1  0.81190000  0.39260000  0.93300000  1.0 -0.1369724109
O  O153  1  0.84160000  0.14290000  0.43430000  1.0 -0.1621031498
O  O154  1  0.15840000  0.64290000  0.06570000  1.0 -0.1621031498
O  O155  1  0.15840000  0.85710000  0.56570000  1.0 -0.1621031498
O  O156  1  0.84160000  0.35710000  0.93430000  1.0 -0.1621031498
