# DDEC6 charges by PACMAN v1.1 (https://github.com/mtap-research/PACMAN-charge/)
data_QOSXOM_ASR_pacman
_symmetry_space_group_name_H-M   'P 1'
_cell_length_a   17.63560000
_cell_length_b   24.55390000
_cell_length_c   48.06440000
_cell_angle_alpha   90.00000000
_cell_angle_beta   90.00000000
_cell_angle_gamma   90.00000000
_symmetry_Int_Tables_number   1
_chemical_formula_structural   Zn3(C19N6)2
_chemical_formula_sum   'Zn48 C608 N192'
_cell_volume   20812.97908999
_cell_formula_units_Z   16
loop_
 _symmetry_equiv_pos_site_id
 _symmetry_equiv_pos_as_xyz
  1  'x, y, z'
loop_
 _atom_site_type_symbol
 _atom_site_label
 _atom_site_symmetry_multiplicity
 _atom_site_fract_x
 _atom_site_fract_y
 _atom_site_fract_z
 _atom_site_occupancy
 _atom_site_charge
Zn  Zn1  1  0.43144000  0.19066000  0.31068000  1.0 0.7313022888
Zn  Zn2  1  0.06856000  0.69066000  0.68932000  1.0 0.7313022888
Zn  Zn3  1  0.56856000  0.80934000  0.81068000  1.0 0.7313022888
Zn  Zn4  1  0.93144000  0.30934000  0.18932000  1.0 0.7313022888
Zn  Zn5  1  0.56856000  0.80934000  0.68932000  1.0 0.7313022888
Zn  Zn6  1  0.93144000  0.30934000  0.31068000  1.0 0.7313022888
Zn  Zn7  1  0.43144000  0.19066000  0.18932000  1.0 0.7313022888
Zn  Zn8  1  0.06856000  0.69066000  0.81068000  1.0 0.7313022888
Zn  Zn9  1  0.37310000  0.09006000  0.41909000  1.0 0.7172231949
Zn  Zn10  1  0.12690000  0.59006000  0.58091000  1.0 0.7172231949
Zn  Zn11  1  0.62690000  0.90994000  0.91909000  1.0 0.7172231949
Zn  Zn12  1  0.87310000  0.40994000  0.08091000  1.0 0.7172231949
Zn  Zn13  1  0.62690000  0.90994000  0.58091000  1.0 0.7172231949
Zn  Zn14  1  0.87310000  0.40994000  0.41909000  1.0 0.7172231949
Zn  Zn15  1  0.37310000  0.09006000  0.08091000  1.0 0.7172231949
Zn  Zn16  1  0.12690000  0.59006000  0.91909000  1.0 0.7172231949
Zn  Zn17  1  0.43122000  0.19597000  0.52716000  1.0 0.7439663115
Zn  Zn18  1  0.06878000  0.69597000  0.47284000  1.0 0.7478559498
Zn  Zn19  1  0.56878000  0.80403000  0.02716000  1.0 0.7478559498
Zn  Zn20  1  0.93122000  0.30403000  0.97284000  1.0 0.7478559498
Zn  Zn21  1  0.56878000  0.80403000  0.47284000  1.0 0.7439663115
Zn  Zn22  1  0.93122000  0.30403000  0.52716000  1.0 0.7478559498
Zn  Zn23  1  0.43122000  0.19597000  0.97284000  1.0 0.7439663115
Zn  Zn24  1  0.06878000  0.69597000  0.02716000  1.0 0.7478559498
Zn  Zn25  1  0.74393000  0.10564000  0.52447000  1.0 0.7478559498
Zn  Zn26  1  0.75607000  0.60564000  0.47553000  1.0 0.7439663115
Zn  Zn27  1  0.25607000  0.89436000  0.02447000  1.0 0.7478559498
Zn  Zn28  1  0.24393000  0.39436000  0.97553000  1.0 0.7439663115
Zn  Zn29  1  0.25607000  0.89436000  0.47553000  1.0 0.7439663115
Zn  Zn30  1  0.24393000  0.39436000  0.52447000  1.0 0.7439663115
Zn  Zn31  1  0.74393000  0.10564000  0.97553000  1.0 0.7439663115
Zn  Zn32  1  0.75607000  0.60564000  0.02447000  1.0 0.7439663115
Zn  Zn33  1  0.68835000  0.99938000  0.41684000  1.0 0.7686910904
Zn  Zn34  1  0.81165000  0.49938000  0.58316000  1.0 0.7686910904
Zn  Zn35  1  0.31165000  0.00062000  0.91684000  1.0 0.7686910904
Zn  Zn36  1  0.18835000  0.50062000  0.08316000  1.0 0.7686910904
Zn  Zn37  1  0.31165000  0.00062000  0.58316000  1.0 0.7686910904
Zn  Zn38  1  0.18835000  0.50062000  0.41684000  1.0 0.7686910904
Zn  Zn39  1  0.68835000  0.99938000  0.08316000  1.0 0.7686910904
Zn  Zn40  1  0.81165000  0.49938000  0.91684000  1.0 0.7686910904
Zn  Zn41  1  0.74858000  0.10569000  0.31082000  1.0 0.7478559498
Zn  Zn42  1  0.75142000  0.60569000  0.68918000  1.0 0.7439663115
Zn  Zn43  1  0.25142000  0.89431000  0.81082000  1.0 0.7478559498
Zn  Zn44  1  0.24858000  0.39431000  0.18918000  1.0 0.7478559498
Zn  Zn45  1  0.25142000  0.89431000  0.68918000  1.0 0.7478559498
Zn  Zn46  1  0.24858000  0.39431000  0.31082000  1.0 0.7478559498
Zn  Zn47  1  0.74858000  0.10569000  0.18918000  1.0 0.7478559498
Zn  Zn48  1  0.75142000  0.60569000  0.81082000  1.0 0.7439663115
C  C1  1  0.40140000  0.13860000  0.36450000  1.0 0.1206997687
C  C2  1  0.09860000  0.63860000  0.63550000  1.0 0.1206997687
C  C3  1  0.59860000  0.86140000  0.86450000  1.0 0.1206997687
C  C4  1  0.90140000  0.36140000  0.13550000  1.0 0.1206997687
C  C5  1  0.59860000  0.86140000  0.63550000  1.0 0.1206997687
C  C6  1  0.90140000  0.36140000  0.36450000  1.0 0.1206997687
C  C7  1  0.40140000  0.13860000  0.13550000  1.0 0.1206997687
C  C8  1  0.09860000  0.63860000  0.86450000  1.0 0.1206997687
C  C9  1  0.29400000  0.15210000  0.34360000  1.0 0.1034975065
C  C10  1  0.20600000  0.65210000  0.65640000  1.0 0.1034975065
C  C11  1  0.70600000  0.84790000  0.84360000  1.0 0.1034975065
C  C12  1  0.79400000  0.34790000  0.15640000  1.0 0.1034975065
C  C13  1  0.70600000  0.84790000  0.65640000  1.0 0.1034975065
C  C14  1  0.79400000  0.34790000  0.34360000  1.0 0.1034975065
C  C15  1  0.29400000  0.15210000  0.15640000  1.0 0.1034975065
C  C16  1  0.20600000  0.65210000  0.84360000  1.0 0.1034975065
C  C17  1  0.23510000  0.15760000  0.32460000  1.0 -0.0925924988
C  C18  1  0.26490000  0.65760000  0.67540000  1.0 -0.0925924988
C  C19  1  0.76490000  0.84240000  0.82460000  1.0 -0.0925924988
C  C20  1  0.73510000  0.34240000  0.17540000  1.0 -0.0925924988
C  C21  1  0.76490000  0.84240000  0.67540000  1.0 -0.0925924988
C  C22  1  0.73510000  0.34240000  0.32460000  1.0 -0.0925924988
C  C23  1  0.23510000  0.15760000  0.17540000  1.0 -0.0925924988
C  C24  1  0.26490000  0.65760000  0.82460000  1.0 -0.0925924988
C  C25  1  0.16220000  0.14120000  0.33180000  1.0 -0.0202004244
C  C26  1  0.33780000  0.64120000  0.66820000  1.0 -0.0202004244
C  C27  1  0.83780000  0.85880000  0.83180000  1.0 -0.0145287221
C  C28  1  0.66220000  0.35880000  0.16820000  1.0 -0.0202004244
C  C29  1  0.83780000  0.85880000  0.66820000  1.0 -0.0145287221
C  C30  1  0.66220000  0.35880000  0.33180000  1.0 -0.0202004244
C  C31  1  0.16220000  0.14120000  0.16820000  1.0 -0.0202004244
C  C32  1  0.33780000  0.64120000  0.83180000  1.0 -0.0202004244
C  C33  1  0.14830000  0.11940000  0.35800000  1.0 0.1110939756
C  C34  1  0.35170000  0.61940000  0.64200000  1.0 0.1110939756
C  C35  1  0.85170000  0.88060000  0.85800000  1.0 0.1110939756
C  C36  1  0.64830000  0.38060000  0.14200000  1.0 0.1110939756
C  C37  1  0.85170000  0.88060000  0.64200000  1.0 0.1110939756
C  C38  1  0.64830000  0.38060000  0.35800000  1.0 0.1110939756
C  C39  1  0.14830000  0.11940000  0.14200000  1.0 0.1110939756
C  C40  1  0.35170000  0.61940000  0.85800000  1.0 0.1110939756
C  C41  1  0.20720000  0.11390000  0.37700000  1.0 -0.1201212124
C  C42  1  0.29280000  0.61390000  0.62300000  1.0 -0.1201212124
C  C43  1  0.79280000  0.88610000  0.87700000  1.0 -0.1201212124
C  C44  1  0.70720000  0.38610000  0.12300000  1.0 -0.1201212124
C  C45  1  0.79280000  0.88610000  0.62300000  1.0 -0.1201212124
C  C46  1  0.70720000  0.38610000  0.37700000  1.0 -0.1201212124
C  C47  1  0.20720000  0.11390000  0.12300000  1.0 -0.1201212124
C  C48  1  0.29280000  0.61390000  0.87700000  1.0 -0.1201212124
C  C49  1  0.28010000  0.13030000  0.36980000  1.0 0.1477161895
C  C50  1  0.21990000  0.63030000  0.63020000  1.0 0.1477161895
C  C51  1  0.71990000  0.86970000  0.86980000  1.0 0.1477161895
C  C52  1  0.78010000  0.36970000  0.13020000  1.0 0.1477161895
C  C53  1  0.71990000  0.86970000  0.63020000  1.0 0.1477161895
C  C54  1  0.78010000  0.36970000  0.36980000  1.0 0.1477161895
C  C55  1  0.28010000  0.13030000  0.13020000  1.0 0.1477161895
C  C56  1  0.21990000  0.63030000  0.86980000  1.0 0.1477161895
C  C57  1  0.06760000  0.08940000  0.36260000  1.0 -0.148436152
C  C58  1  0.43240000  0.58940000  0.63740000  1.0 -0.1602009857
C  C59  1  0.93240000  0.91060000  0.86260000  1.0 -0.148436152
C  C60  1  0.56760000  0.41060000  0.13740000  1.0 -0.1602009857
C  C61  1  0.93240000  0.91060000  0.63740000  1.0 -0.148436152
C  C62  1  0.56760000  0.41060000  0.36260000  1.0 -0.1602009857
C  C63  1  0.06760000  0.08940000  0.13740000  1.0 -0.148436152
C  C64  1  0.43240000  0.58940000  0.86260000  1.0 -0.1602009857
C  C65  1  0.39860000  0.14740000  0.47060000  1.0 0.1206997687
C  C66  1  0.10140000  0.64740000  0.52940000  1.0 0.1293462188
C  C67  1  0.60140000  0.85260000  0.97060000  1.0 0.1206997687
C  C68  1  0.89860000  0.35260000  0.02940000  1.0 0.1206997687
C  C69  1  0.60140000  0.85260000  0.52940000  1.0 0.1206997687
C  C70  1  0.89860000  0.35260000  0.47060000  1.0 0.1206997687
C  C71  1  0.39860000  0.14740000  0.02940000  1.0 0.1206997687
C  C72  1  0.10140000  0.64740000  0.97060000  1.0 0.1206997687
C  C73  1  0.27840000  0.13620000  0.46680000  1.0 0.1206997687
C  C74  1  0.22160000  0.63620000  0.53320000  1.0 0.1206997687
C  C75  1  0.72160000  0.86380000  0.96680000  1.0 0.1206997687
C  C76  1  0.77840000  0.36380000  0.03320000  1.0 0.1206997687
C  C77  1  0.72160000  0.86380000  0.53320000  1.0 0.1206997687
C  C78  1  0.77840000  0.36380000  0.46680000  1.0 0.1206997687
C  C79  1  0.27840000  0.13620000  0.03320000  1.0 0.1206997687
C  C80  1  0.22160000  0.63620000  0.96680000  1.0 0.1206997687
C  C81  1  0.20450000  0.12030000  0.46080000  1.0 -0.1201212124
C  C82  1  0.29550000  0.62030000  0.53920000  1.0 -0.1201212124
C  C83  1  0.79550000  0.87970000  0.96080000  1.0 -0.1201212124
C  C84  1  0.70450000  0.37970000  0.03920000  1.0 -0.1201212124
C  C85  1  0.79550000  0.87970000  0.53920000  1.0 -0.1201212124
C  C86  1  0.70450000  0.37970000  0.46080000  1.0 -0.1201212124
C  C87  1  0.20450000  0.12030000  0.03920000  1.0 -0.1201212124
C  C88  1  0.29550000  0.62030000  0.96080000  1.0 -0.1201212124
C  C89  1  0.14720000  0.12880000  0.48020000  1.0 0.0803995645
C  C90  1  0.35280000  0.62880000  0.51980000  1.0 0.0803995645
C  C91  1  0.85280000  0.87120000  0.98020000  1.0 0.0803995645
C  C92  1  0.64720000  0.37120000  0.01980000  1.0 0.0803995645
C  C93  1  0.85280000  0.87120000  0.51980000  1.0 0.0803995645
C  C94  1  0.64720000  0.37120000  0.48020000  1.0 0.0803995645
C  C95  1  0.14720000  0.12880000  0.01980000  1.0 0.0803995645
C  C96  1  0.35280000  0.62880000  0.98020000  1.0 0.0803995645
C  C97  1  0.16370000  0.15330000  0.50550000  1.0 -0.0202004244
C  C98  1  0.33630000  0.65330000  0.49450000  1.0 -0.0202004244
C  C99  1  0.83630000  0.84670000  0.00550000  1.0 -0.0202004244
C  C100  1  0.66370000  0.34670000  0.99450000  1.0 -0.0202004244
C  C101  1  0.83630000  0.84670000  0.49450000  1.0 -0.0202004244
C  C102  1  0.66370000  0.34670000  0.50550000  1.0 -0.0202004244
C  C103  1  0.16370000  0.15330000  0.99450000  1.0 -0.0202004244
C  C104  1  0.33630000  0.65330000  0.00550000  1.0 -0.0202004244
C  C105  1  0.23760000  0.16920000  0.51150000  1.0 -0.1068403372
C  C106  1  0.26240000  0.66920000  0.48850000  1.0 -0.1068403372
C  C107  1  0.76240000  0.83080000  0.01150000  1.0 -0.1068403372
C  C108  1  0.73760000  0.33080000  0.98850000  1.0 -0.1068403372
C  C109  1  0.76240000  0.83080000  0.48850000  1.0 -0.1068403372
C  C110  1  0.73760000  0.33080000  0.51150000  1.0 -0.1068403372
C  C111  1  0.23760000  0.16920000  0.98850000  1.0 -0.1068403372
C  C112  1  0.26240000  0.66920000  0.01150000  1.0 -0.1068403372
C  C113  1  0.29490000  0.16070000  0.49220000  1.0 0.1431787805
C  C114  1  0.20510000  0.66070000  0.50780000  1.0 0.1431787805
C  C115  1  0.70510000  0.83930000  0.99220000  1.0 0.1431787805
C  C116  1  0.79490000  0.33930000  0.00780000  1.0 0.1431787805
C  C117  1  0.70510000  0.83930000  0.50780000  1.0 0.1431787805
C  C118  1  0.79490000  0.33930000  0.49220000  1.0 0.1431787805
C  C119  1  0.29490000  0.16070000  0.00780000  1.0 0.1431787805
C  C120  1  0.20510000  0.66070000  0.99220000  1.0 0.1431787805
C  C121  1  0.06230000  0.10440000  0.47630000  1.0 -0.1975288787
C  C122  1  0.43770000  0.60440000  0.52370000  1.0 -0.1711857194
C  C123  1  0.93770000  0.89560000  0.97630000  1.0 -0.1975288787
C  C124  1  0.56230000  0.39560000  0.02370000  1.0 -0.1711857194
C  C125  1  0.93770000  0.89560000  0.52370000  1.0 -0.1975288787
C  C126  1  0.56230000  0.39560000  0.47630000  1.0 -0.1711857194
C  C127  1  0.06230000  0.10440000  0.02370000  1.0 -0.1975288787
C  C128  1  0.43770000  0.60440000  0.97630000  1.0 -0.1711857194
C  C129  1  0.58880000  0.15260000  0.52880000  1.0 0.0421767704
C  C130  1  0.91120000  0.65260000  0.47120000  1.0 0.0421767704
C  C131  1  0.41120000  0.84740000  0.02880000  1.0 0.0421767704
C  C132  1  0.08880000  0.34740000  0.97120000  1.0 0.0421767704
C  C133  1  0.41120000  0.84740000  0.47120000  1.0 0.0421767704
C  C134  1  0.08880000  0.34740000  0.52880000  1.0 0.0421767704
C  C135  1  0.58880000  0.15260000  0.97120000  1.0 0.0421767704
C  C136  1  0.91120000  0.65260000  0.02880000  1.0 0.0421767704
C  C137  1  0.58700000  0.21010000  0.49420000  1.0 0.1563537395
C  C138  1  0.91300000  0.71010000  0.50580000  1.0 0.1563537395
C  C139  1  0.41300000  0.78990000  0.99420000  1.0 0.1563537395
C  C140  1  0.08700000  0.28990000  0.00580000  1.0 0.1563537395
C  C141  1  0.41300000  0.78990000  0.50580000  1.0 0.1563537395
C  C142  1  0.08700000  0.28990000  0.49420000  1.0 0.1563537395
C  C143  1  0.58700000  0.21010000  0.00580000  1.0 0.1563537395
C  C144  1  0.91300000  0.71010000  0.99420000  1.0 0.1563537395
C  C145  1  0.55500000  0.24530000  0.47480000  1.0 -0.1201212124
C  C146  1  0.94500000  0.74530000  0.52520000  1.0 -0.1201212124
C  C147  1  0.44500000  0.75470000  0.97480000  1.0 -0.1201212124
C  C148  1  0.05500000  0.25470000  0.02520000  1.0 -0.1201212124
C  C149  1  0.44500000  0.75470000  0.52520000  1.0 -0.1201212124
C  C150  1  0.05500000  0.25470000  0.47480000  1.0 -0.1201212124
C  C151  1  0.55500000  0.24530000  0.02520000  1.0 -0.1201212124
C  C152  1  0.94500000  0.74530000  0.97480000  1.0 -0.1201212124
C  C153  1  0.59500000  0.25960000  0.45100000  1.0 -0.002301451
C  C154  1  0.90500000  0.75960000  0.54900000  1.0 -0.002301451
C  C155  1  0.40500000  0.74040000  0.95100000  1.0 -0.002301451
C  C156  1  0.09500000  0.24040000  0.04900000  1.0 -0.002301451
C  C157  1  0.40500000  0.74040000  0.54900000  1.0 -0.002301451
C  C158  1  0.09500000  0.24040000  0.45100000  1.0 -0.002301451
C  C159  1  0.59500000  0.25960000  0.04900000  1.0 -0.002301451
C  C160  1  0.90500000  0.75960000  0.95100000  1.0 -0.002301451
C  C161  1  0.66800000  0.23870000  0.44660000  1.0 0.0495466217
C  C162  1  0.83200000  0.73870000  0.55340000  1.0 0.0421767704
C  C163  1  0.33200000  0.76130000  0.94660000  1.0 0.0421767704
C  C164  1  0.16800000  0.26130000  0.05340000  1.0 0.0421767704
C  C165  1  0.33200000  0.76130000  0.55340000  1.0 0.0421767704
C  C166  1  0.16800000  0.26130000  0.44660000  1.0 0.0421767704
C  C167  1  0.66800000  0.23870000  0.05340000  1.0 0.0495466217
C  C168  1  0.83200000  0.73870000  0.94660000  1.0 0.0421767704
C  C169  1  0.69960000  0.20360000  0.46600000  1.0 -0.207163476
C  C170  1  0.80040000  0.70360000  0.53400000  1.0 -0.207163476
C  C171  1  0.30040000  0.79640000  0.96600000  1.0 -0.207163476
C  C172  1  0.19960000  0.29640000  0.03400000  1.0 -0.207163476
C  C173  1  0.30040000  0.79640000  0.53400000  1.0 -0.207163476
C  C174  1  0.19960000  0.29640000  0.46600000  1.0 -0.207163476
C  C175  1  0.69960000  0.20360000  0.03400000  1.0 -0.207163476
C  C176  1  0.80040000  0.70360000  0.96600000  1.0 -0.207163476
C  C177  1  0.65900000  0.18930000  0.48980000  1.0 0.1110939756
C  C178  1  0.84100000  0.68930000  0.51020000  1.0 0.1206997687
C  C179  1  0.34100000  0.81070000  0.98980000  1.0 0.1110939756
C  C180  1  0.15900000  0.31070000  0.01020000  1.0 0.1110939756
C  C181  1  0.34100000  0.81070000  0.51020000  1.0 0.1110939756
C  C182  1  0.15900000  0.31070000  0.48980000  1.0 0.1110939756
C  C183  1  0.65900000  0.18930000  0.01020000  1.0 0.1110939756
C  C184  1  0.84100000  0.68930000  0.98980000  1.0 0.1206997687
C  C185  1  0.71600000  0.25100000  0.41890000  1.0 0.0803995645
C  C186  1  0.78400000  0.75100000  0.58110000  1.0 0.0803995645
C  C187  1  0.28400000  0.74900000  0.91890000  1.0 0.0803995645
C  C188  1  0.21600000  0.24900000  0.08110000  1.0 0.0803995645
C  C189  1  0.28400000  0.74900000  0.58110000  1.0 0.0803995645
C  C190  1  0.21600000  0.24900000  0.41890000  1.0 0.0803995645
C  C191  1  0.71600000  0.25100000  0.08110000  1.0 0.0803995645
C  C192  1  0.78400000  0.75100000  0.91890000  1.0 0.0803995645
C  C193  1  0.72370000  0.05540000  0.47220000  1.0 0.0691117104
C  C194  1  0.77630000  0.55540000  0.52780000  1.0 0.0691117104
C  C195  1  0.27630000  0.94460000  0.97220000  1.0 0.0691117104
C  C196  1  0.22370000  0.44460000  0.02780000  1.0 0.0691117104
C  C197  1  0.27630000  0.94460000  0.52780000  1.0 0.0691117104
C  C198  1  0.22370000  0.44460000  0.47220000  1.0 0.0691117104
C  C199  1  0.72370000  0.05540000  0.02780000  1.0 0.0691117104
C  C200  1  0.77630000  0.55540000  0.97220000  1.0 0.0691117104
C  C201  1  0.81300000  0.97600000  0.46100000  1.0 0.0600063801
C  C202  1  0.68700000  0.47600000  0.53900000  1.0 0.0691117104
C  C203  1  0.18700000  0.02400000  0.96100000  1.0 0.0600063801
C  C204  1  0.31300000  0.52400000  0.03900000  1.0 0.0600063801
C  C205  1  0.18700000  0.02400000  0.53900000  1.0 0.0600063801
C  C206  1  0.31300000  0.52400000  0.46100000  1.0 0.0600063801
C  C207  1  0.81300000  0.97600000  0.03900000  1.0 0.0600063801
C  C208  1  0.68700000  0.47600000  0.96100000  1.0 0.0691117104
C  C209  1  0.82110000  0.00890000  0.48610000  1.0 0.1293462188
C  C210  1  0.67890000  0.50890000  0.51390000  1.0 0.1206997687
C  C211  1  0.17890000  0.99110000  0.98610000  1.0 0.1293462188
C  C212  1  0.32110000  0.49110000  0.01390000  1.0 0.1293462188
C  C213  1  0.17890000  0.99110000  0.51390000  1.0 0.1293462188
C  C214  1  0.32110000  0.49110000  0.48610000  1.0 0.1293462188
C  C215  1  0.82110000  0.00890000  0.01390000  1.0 0.1293462188
C  C216  1  0.67890000  0.50890000  0.98610000  1.0 0.1206997687
C  C217  1  0.72250000  0.05020000  0.36050000  1.0 0.0899673164
C  C218  1  0.77750000  0.55020000  0.63950000  1.0 0.0899673164
C  C219  1  0.27750000  0.94980000  0.86050000  1.0 0.0899673164
C  C220  1  0.22250000  0.44980000  0.13950000  1.0 0.0899673164
C  C221  1  0.27750000  0.94980000  0.63950000  1.0 0.0899673164
C  C222  1  0.22250000  0.44980000  0.36050000  1.0 0.0899673164
C  C223  1  0.72250000  0.05020000  0.13950000  1.0 0.0899673164
C  C224  1  0.77750000  0.55020000  0.86050000  1.0 0.0899673164
C  C225  1  0.79900000  0.98100000  0.37060000  1.0 0.0102524937
C  C226  1  0.70100000  0.48100000  0.62940000  1.0 0.0102524937
C  C227  1  0.20100000  0.01900000  0.87060000  1.0 0.0102524937
C  C228  1  0.29900000  0.51900000  0.12940000  1.0 0.0102524937
C  C229  1  0.20100000  0.01900000  0.62940000  1.0 0.0102524937
C  C230  1  0.29900000  0.51900000  0.37060000  1.0 0.0102524937
C  C231  1  0.79900000  0.98100000  0.12940000  1.0 0.0102524937
C  C232  1  0.70100000  0.48100000  0.87060000  1.0 0.0102524937
C  C233  1  0.81480000  0.00280000  0.34680000  1.0 0.1293462188
C  C234  1  0.68520000  0.50280000  0.65320000  1.0 0.1293462188
C  C235  1  0.18520000  0.99720000  0.84680000  1.0 0.1293462188
C  C236  1  0.31480000  0.49720000  0.15320000  1.0 0.1206997687
C  C237  1  0.18520000  0.99720000  0.65320000  1.0 0.1293462188
C  C238  1  0.31480000  0.49720000  0.34680000  1.0 0.1206997687
C  C239  1  0.81480000  0.00280000  0.15320000  1.0 0.1293462188
C  C240  1  0.68520000  0.50280000  0.84680000  1.0 0.1293462188
C  C241  1  0.58600000  0.14790000  0.30820000  1.0 0.1293462188
C  C242  1  0.91400000  0.64790000  0.69180000  1.0 0.1293462188
C  C243  1  0.41400000  0.85210000  0.80820000  1.0 0.1293462188
C  C244  1  0.08600000  0.35210000  0.19180000  1.0 0.1293462188
C  C245  1  0.41400000  0.85210000  0.69180000  1.0 0.1293462188
C  C246  1  0.08600000  0.35210000  0.30820000  1.0 0.1293462188
C  C247  1  0.58600000  0.14790000  0.19180000  1.0 0.1293462188
C  C248  1  0.91400000  0.64790000  0.80820000  1.0 0.1293462188
C  C249  1  0.57370000  0.20790000  0.34390000  1.0 0.1293462188
C  C250  1  0.92630000  0.70790000  0.65610000  1.0 0.1293462188
C  C251  1  0.42630000  0.79210000  0.84390000  1.0 0.1293462188
C  C252  1  0.07370000  0.29210000  0.15610000  1.0 0.1293462188
C  C253  1  0.42630000  0.79210000  0.65610000  1.0 0.1293462188
C  C254  1  0.07370000  0.29210000  0.34390000  1.0 0.1293462188
C  C255  1  0.57370000  0.20790000  0.15610000  1.0 0.1293462188
C  C256  1  0.92630000  0.70790000  0.84390000  1.0 0.1293462188
C  C257  1  0.54880000  0.24200000  0.36510000  1.0 -0.1602009857
C  C258  1  0.95120000  0.74200000  0.63490000  1.0 -0.1602009857
C  C259  1  0.45120000  0.75800000  0.86510000  1.0 -0.1602009857
C  C260  1  0.04880000  0.25800000  0.13490000  1.0 -0.1711857194
C  C261  1  0.45120000  0.75800000  0.63490000  1.0 -0.1602009857
C  C262  1  0.04880000  0.25800000  0.36510000  1.0 -0.1711857194
C  C263  1  0.54880000  0.24200000  0.13490000  1.0 -0.1602009857
C  C264  1  0.95120000  0.74200000  0.86510000  1.0 -0.1602009857
C  C265  1  0.59800000  0.25670000  0.38640000  1.0 0.0495466217
C  C266  1  0.90200000  0.75670000  0.61360000  1.0 0.0421767704
C  C267  1  0.40200000  0.74330000  0.88640000  1.0 0.0421767704
C  C268  1  0.09800000  0.24330000  0.11360000  1.0 0.0421767704
C  C269  1  0.40200000  0.74330000  0.61360000  1.0 0.0421767704
C  C270  1  0.09800000  0.24330000  0.38640000  1.0 0.0421767704
C  C271  1  0.59800000  0.25670000  0.11360000  1.0 0.0495466217
C  C272  1  0.90200000  0.75670000  0.88640000  1.0 0.0421767704
C  C273  1  0.67200000  0.23740000  0.38650000  1.0 0.0102524937
C  C274  1  0.82800000  0.73740000  0.61350000  1.0 0.0102524937
C  C275  1  0.32800000  0.76260000  0.88650000  1.0 0.0102524937
C  C276  1  0.17200000  0.26260000  0.11350000  1.0 0.0102524937
C  C277  1  0.32800000  0.76260000  0.61350000  1.0 0.0102524937
C  C278  1  0.17200000  0.26260000  0.38650000  1.0 0.0102524937
C  C279  1  0.67200000  0.23740000  0.11350000  1.0 0.0102524937
C  C280  1  0.82800000  0.73740000  0.88650000  1.0 0.0102524937
C  C281  1  0.69690000  0.20330000  0.36530000  1.0 -0.1711857194
C  C282  1  0.80310000  0.70330000  0.63470000  1.0 -0.1711857194
C  C283  1  0.30310000  0.79670000  0.86530000  1.0 -0.1803731924
C  C284  1  0.19690000  0.29670000  0.13470000  1.0 -0.1711857194
C  C285  1  0.30310000  0.79670000  0.63470000  1.0 -0.1803731924
C  C286  1  0.19690000  0.29670000  0.36530000  1.0 -0.1711857194
C  C287  1  0.69690000  0.20330000  0.13470000  1.0 -0.1711857194
C  C288  1  0.80310000  0.70330000  0.86530000  1.0 -0.1711857194
C  C289  1  0.64780000  0.18860000  0.34400000  1.0 0.1293462188
C  C290  1  0.85220000  0.68860000  0.65600000  1.0 0.1293462188
C  C291  1  0.35220000  0.81140000  0.84400000  1.0 0.1293462188
C  C292  1  0.14780000  0.31140000  0.15600000  1.0 0.1293462188
C  C293  1  0.35220000  0.81140000  0.65600000  1.0 0.1293462188
C  C294  1  0.14780000  0.31140000  0.34400000  1.0 0.1293462188
C  C295  1  0.64780000  0.18860000  0.15600000  1.0 0.1293462188
C  C296  1  0.85220000  0.68860000  0.84400000  1.0 0.1293462188
C  C297  1  0.57600000  0.29210000  0.41380000  1.0 0.0495466217
C  C298  1  0.92400000  0.79210000  0.58620000  1.0 0.0495466217
C  C299  1  0.42400000  0.70790000  0.91380000  1.0 0.0495466217
C  C300  1  0.07600000  0.20790000  0.08620000  1.0 0.0495466217
C  C301  1  0.42400000  0.70790000  0.58620000  1.0 0.0495466217
C  C302  1  0.07600000  0.20790000  0.41380000  1.0 0.0495466217
C  C303  1  0.57600000  0.29210000  0.08620000  1.0 0.0495466217
C  C304  1  0.92400000  0.79210000  0.91380000  1.0 0.0495466217
C  C305  1  0.52530000  0.04140000  0.41800000  1.0 0.0691117104
C  C306  1  0.97470000  0.54140000  0.58200000  1.0 0.0691117104
C  C307  1  0.47470000  0.95860000  0.91800000  1.0 0.0691117104
C  C308  1  0.02530000  0.45860000  0.08200000  1.0 0.0691117104
C  C309  1  0.47470000  0.95860000  0.58200000  1.0 0.0691117104
C  C310  1  0.02530000  0.45860000  0.41800000  1.0 0.0691117104
C  C311  1  0.52530000  0.04140000  0.08200000  1.0 0.0691117104
C  C312  1  0.97470000  0.54140000  0.91800000  1.0 0.0691117104
C  C313  1  0.53620000  0.12990000  0.41810000  1.0 0.1206997687
C  C314  1  0.96380000  0.62990000  0.58190000  1.0 0.1206997687
C  C315  1  0.46380000  0.87010000  0.91810000  1.0 0.1206997687
C  C316  1  0.03620000  0.37010000  0.08190000  1.0 0.1206997687
C  C317  1  0.46380000  0.87010000  0.58190000  1.0 0.1206997687
C  C318  1  0.03620000  0.37010000  0.41810000  1.0 0.1206997687
C  C319  1  0.53620000  0.12990000  0.08190000  1.0 0.1206997687
C  C320  1  0.96380000  0.62990000  0.91810000  1.0 0.1206997687
C  C321  1  0.52400000  0.18580000  0.41830000  1.0 -0.1803731924
C  C322  1  0.97600000  0.68580000  0.58170000  1.0 -0.1803731924
C  C323  1  0.47600000  0.81420000  0.91830000  1.0 -0.1803731924
C  C324  1  0.02400000  0.31420000  0.08170000  1.0 -0.1854358339
C  C325  1  0.47600000  0.81420000  0.58170000  1.0 -0.1803731924
C  C326  1  0.02400000  0.31420000  0.41830000  1.0 -0.1803731924
C  C327  1  0.52400000  0.18580000  0.08170000  1.0 -0.1803731924
C  C328  1  0.97600000  0.68580000  0.91830000  1.0 -0.1803731924
C  C329  1  0.58500000  0.22140000  0.41680000  1.0 0.0691117104
C  C330  1  0.91500000  0.72140000  0.58320000  1.0 0.0691117104
C  C331  1  0.41500000  0.77860000  0.91680000  1.0 0.0691117104
C  C332  1  0.08500000  0.27860000  0.08320000  1.0 0.0691117104
C  C333  1  0.41500000  0.77860000  0.58320000  1.0 0.0691117104
C  C334  1  0.08500000  0.27860000  0.41680000  1.0 0.0691117104
C  C335  1  0.58500000  0.22140000  0.08320000  1.0 0.0691117104
C  C336  1  0.91500000  0.72140000  0.91680000  1.0 0.0691117104
C  C337  1  0.65860000  0.20100000  0.41530000  1.0 0.0495466217
C  C338  1  0.84140000  0.70100000  0.58470000  1.0 0.0495466217
C  C339  1  0.34140000  0.79900000  0.91530000  1.0 0.0495466217
C  C340  1  0.15860000  0.29900000  0.08470000  1.0 0.0495466217
C  C341  1  0.34140000  0.79900000  0.58470000  1.0 0.0495466217
C  C342  1  0.15860000  0.29900000  0.41530000  1.0 0.0495466217
C  C343  1  0.65860000  0.20100000  0.08470000  1.0 0.0495466217
C  C344  1  0.84140000  0.70100000  0.91530000  1.0 0.0495466217
C  C345  1  0.67080000  0.14510000  0.41510000  1.0 -0.1803731924
C  C346  1  0.82920000  0.64510000  0.58490000  1.0 -0.1803731924
C  C347  1  0.32920000  0.85490000  0.91510000  1.0 -0.1803731924
C  C348  1  0.17080000  0.35490000  0.08490000  1.0 -0.1803731924
C  C349  1  0.32920000  0.85490000  0.58490000  1.0 -0.1803731924
C  C350  1  0.17080000  0.35490000  0.41510000  1.0 -0.1803731924
C  C351  1  0.67080000  0.14510000  0.08490000  1.0 -0.1803731924
C  C352  1  0.82920000  0.64510000  0.91510000  1.0 -0.1803731924
C  C353  1  0.60960000  0.10950000  0.41650000  1.0 0.1293462188
C  C354  1  0.89040000  0.60950000  0.58350000  1.0 0.1293462188
C  C355  1  0.39040000  0.89050000  0.91650000  1.0 0.1293462188
C  C356  1  0.10960000  0.39050000  0.08350000  1.0 0.1293462188
C  C357  1  0.39040000  0.89050000  0.58350000  1.0 0.1293462188
C  C358  1  0.10960000  0.39050000  0.41650000  1.0 0.1293462188
C  C359  1  0.60960000  0.10950000  0.08350000  1.0 0.1293462188
C  C360  1  0.89040000  0.60950000  0.91650000  1.0 0.1293462188
C  C361  1  0.42100000  0.19250000  0.25000000  1.0 0.1293462188
C  C362  1  0.07900000  0.69250000  0.75000000  1.0 0.1206997687
C  C363  1  0.57900000  0.80750000  0.75000000  1.0 0.1110939756
C  C364  1  0.92100000  0.30750000  0.25000000  1.0 0.1293462188
C  C365  1  0.41200000  0.11080000  0.26540000  1.0 0.2606167174
C  C366  1  0.08800000  0.61080000  0.73460000  1.0 0.2606167174
C  C367  1  0.58800000  0.88920000  0.76540000  1.0 0.2606167174
C  C368  1  0.91200000  0.38920000  0.23460000  1.0 0.2606167174
C  C369  1  0.58800000  0.88920000  0.73460000  1.0 0.2606167174
C  C370  1  0.91200000  0.38920000  0.26540000  1.0 0.2606167174
C  C371  1  0.41200000  0.11080000  0.23460000  1.0 0.2606167174
C  C372  1  0.08800000  0.61080000  0.76540000  1.0 0.2606167174
C  C373  1  0.39200000  0.05200000  0.27860000  1.0 -0.057046113
C  C374  1  0.10800000  0.55200000  0.72140000  1.0 -0.057046113
C  C375  1  0.60800000  0.94800000  0.77860000  1.0 -0.057046113
C  C376  1  0.89200000  0.44800000  0.22140000  1.0 -0.057046113
C  C377  1  0.60800000  0.94800000  0.72140000  1.0 -0.057046113
C  C378  1  0.89200000  0.44800000  0.27860000  1.0 -0.057046113
C  C379  1  0.39200000  0.05200000  0.22140000  1.0 -0.057046113
C  C380  1  0.10800000  0.55200000  0.77860000  1.0 -0.057046113
C  C381  1  0.63430000  0.89950000  0.44400000  1.0 0.1865470833
C  C382  1  0.86570000  0.39950000  0.55600000  1.0 0.1836386448
C  C383  1  0.36570000  0.10050000  0.94400000  1.0 0.1836386448
C  C384  1  0.13430000  0.60050000  0.05600000  1.0 0.1836386448
C  C385  1  0.36570000  0.10050000  0.55600000  1.0 0.1836386448
C  C386  1  0.13430000  0.60050000  0.44400000  1.0 0.1836386448
C  C387  1  0.63430000  0.89950000  0.05600000  1.0 0.1865470833
C  C388  1  0.86570000  0.39950000  0.94400000  1.0 0.1836386448
C  C389  1  0.60360000  0.89890000  0.40120000  1.0 0.1431787805
C  C390  1  0.89640000  0.39890000  0.59880000  1.0 0.1431787805
C  C391  1  0.39640000  0.10110000  0.90120000  1.0 0.1431787805
C  C392  1  0.10360000  0.60110000  0.09880000  1.0 0.1431787805
C  C393  1  0.39640000  0.10110000  0.59880000  1.0 0.1431787805
C  C394  1  0.10360000  0.60110000  0.40120000  1.0 0.1431787805
C  C395  1  0.60360000  0.89890000  0.09880000  1.0 0.1431787805
C  C396  1  0.89640000  0.39890000  0.90120000  1.0 0.1431787805
C  C397  1  0.58800000  0.91350000  0.37390000  1.0 -0.1068403372
C  C398  1  0.91200000  0.41350000  0.62610000  1.0 -0.1068403372
C  C399  1  0.41200000  0.08650000  0.87390000  1.0 -0.1010932335
C  C400  1  0.08800000  0.58650000  0.12610000  1.0 -0.1068403372
C  C401  1  0.41200000  0.08650000  0.62610000  1.0 -0.1010932335
C  C402  1  0.08800000  0.58650000  0.37390000  1.0 -0.1068403372
C  C403  1  0.58800000  0.91350000  0.12610000  1.0 -0.1068403372
C  C404  1  0.91200000  0.41350000  0.87390000  1.0 -0.1068403372
C  C405  1  0.53600000  0.88300000  0.35840000  1.0 0.0102524937
C  C406  1  0.96400000  0.38300000  0.64160000  1.0 0.0024216568
C  C407  1  0.46400000  0.11700000  0.85840000  1.0 0.0024216568
C  C408  1  0.03600000  0.61700000  0.14160000  1.0 0.0024216568
C  C409  1  0.46400000  0.11700000  0.64160000  1.0 0.0024216568
C  C410  1  0.03600000  0.61700000  0.35840000  1.0 0.0024216568
C  C411  1  0.53600000  0.88300000  0.14160000  1.0 0.0102524937
C  C412  1  0.96400000  0.38300000  0.85840000  1.0 0.0024216568
C  C413  1  0.50000000  0.83900000  0.37030000  1.0 0.0803995645
C  C414  1  0.00000000  0.33900000  0.62970000  1.0 0.0803995645
C  C415  1  0.50000000  0.16100000  0.87030000  1.0 0.0803995645
C  C416  1  0.00000000  0.66100000  0.12970000  1.0 0.0803995645
C  C417  1  0.50000000  0.16100000  0.62970000  1.0 0.0803995645
C  C418  1  0.00000000  0.66100000  0.37030000  1.0 0.0803995645
C  C419  1  0.50000000  0.83900000  0.12970000  1.0 0.0803995645
C  C420  1  0.00000000  0.33900000  0.87030000  1.0 0.0803995645
C  C421  1  0.51600000  0.82430000  0.39760000  1.0 -0.1010932335
C  C422  1  0.98400000  0.32430000  0.60240000  1.0 -0.1010932335
C  C423  1  0.48400000  0.17570000  0.89760000  1.0 -0.1010932335
C  C424  1  0.01600000  0.67570000  0.10240000  1.0 -0.1010932335
C  C425  1  0.48400000  0.17570000  0.60240000  1.0 -0.1010932335
C  C426  1  0.01600000  0.67570000  0.39760000  1.0 -0.1010932335
C  C427  1  0.51600000  0.82430000  0.10240000  1.0 -0.1010932335
C  C428  1  0.98400000  0.32430000  0.89760000  1.0 -0.1010932335
C  C429  1  0.56700000  0.85430000  0.41310000  1.0 0.1110939756
C  C430  1  0.93300000  0.35430000  0.58690000  1.0 0.1110939756
C  C431  1  0.43300000  0.14570000  0.91310000  1.0 0.1110939756
C  C432  1  0.06700000  0.64570000  0.08690000  1.0 0.1110939756
C  C433  1  0.43300000  0.14570000  0.58690000  1.0 0.1110939756
C  C434  1  0.06700000  0.64570000  0.41310000  1.0 0.1110939756
C  C435  1  0.56700000  0.85430000  0.08690000  1.0 0.1110939756
C  C436  1  0.93300000  0.35430000  0.91310000  1.0 0.1110939756
C  C437  1  0.43600000  0.79900000  0.35900000  1.0 -0.0289705103
C  C438  1  0.06400000  0.29900000  0.64100000  1.0 -0.0289705103
C  C439  1  0.56400000  0.20100000  0.85900000  1.0 -0.0289705103
C  C440  1  0.93600000  0.70100000  0.14100000  1.0 -0.0202004244
C  C441  1  0.56400000  0.20100000  0.64100000  1.0 -0.0289705103
C  C442  1  0.93600000  0.70100000  0.35900000  1.0 -0.0202004244
C  C443  1  0.43600000  0.79900000  0.14100000  1.0 -0.0289705103
C  C444  1  0.06400000  0.29900000  0.85900000  1.0 -0.0289705103
C  C445  1  0.34430000  0.29380000  0.52490000  1.0 0.0803995645
C  C446  1  0.15570000  0.79380000  0.47510000  1.0 0.0803995645
C  C447  1  0.65570000  0.70620000  0.02490000  1.0 0.0803995645
C  C448  1  0.84430000  0.20620000  0.97510000  1.0 0.0803995645
C  C449  1  0.65570000  0.70620000  0.47510000  1.0 0.0803995645
C  C450  1  0.84430000  0.20620000  0.52490000  1.0 0.0803995645
C  C451  1  0.34430000  0.29380000  0.97510000  1.0 0.0803995645
C  C452  1  0.15570000  0.79380000  0.02490000  1.0 0.0803995645
C  C453  1  0.45200000  0.31400000  0.55350000  1.0 0.0495466217
C  C454  1  0.04800000  0.81400000  0.44650000  1.0 0.0495466217
C  C455  1  0.54800000  0.68600000  0.05350000  1.0 0.0600063801
C  C456  1  0.95200000  0.18600000  0.94650000  1.0 0.0600063801
C  C457  1  0.54800000  0.68600000  0.44650000  1.0 0.0600063801
C  C458  1  0.95200000  0.18600000  0.55350000  1.0 0.0600063801
C  C459  1  0.45200000  0.31400000  0.94650000  1.0 0.0495466217
C  C460  1  0.04800000  0.81400000  0.05350000  1.0 0.0495466217
C  C461  1  0.39300000  0.35410000  0.55280000  1.0 0.1293462188
C  C462  1  0.10700000  0.85410000  0.44720000  1.0 0.1293462188
C  C463  1  0.60700000  0.64590000  0.05280000  1.0 0.1293462188
C  C464  1  0.89300000  0.14590000  0.94720000  1.0 0.1293462188
C  C465  1  0.60700000  0.64590000  0.44720000  1.0 0.1293462188
C  C466  1  0.89300000  0.14590000  0.55280000  1.0 0.1293462188
C  C467  1  0.39300000  0.35410000  0.94720000  1.0 0.1293462188
C  C468  1  0.10700000  0.85410000  0.05280000  1.0 0.1293462188
C  C469  1  0.30640000  0.99140000  0.44680000  1.0 0.2410863819
C  C470  1  0.19360000  0.49140000  0.55320000  1.0 0.2410863819
C  C471  1  0.69360000  0.00860000  0.94680000  1.0 0.2410863819
C  C472  1  0.80640000  0.50860000  0.05320000  1.0 0.2410863819
C  C473  1  0.69360000  0.00860000  0.55320000  1.0 0.2410863819
C  C474  1  0.80640000  0.50860000  0.44680000  1.0 0.2410863819
C  C475  1  0.30640000  0.99140000  0.05320000  1.0 0.2410863819
C  C476  1  0.19360000  0.49140000  0.94680000  1.0 0.2410863819
C  C477  1  0.32570000  0.97490000  0.40370000  1.0 0.1431787805
C  C478  1  0.17430000  0.47490000  0.59630000  1.0 0.1431787805
C  C479  1  0.67430000  0.02510000  0.90370000  1.0 0.1431787805
C  C480  1  0.82570000  0.52510000  0.09630000  1.0 0.1431787805
C  C481  1  0.67430000  0.02510000  0.59630000  1.0 0.1431787805
C  C482  1  0.82570000  0.52510000  0.40370000  1.0 0.1431787805
C  C483  1  0.32570000  0.97490000  0.09630000  1.0 0.1431787805
C  C484  1  0.17430000  0.47490000  0.90370000  1.0 0.1431787805
C  C485  1  0.35970000  0.97140000  0.37760000  1.0 -0.148436152
C  C486  1  0.14030000  0.47140000  0.62240000  1.0 -0.1430357867
C  C487  1  0.64030000  0.02860000  0.87760000  1.0 -0.148436152
C  C488  1  0.85970000  0.52860000  0.12240000  1.0 -0.1430357867
C  C489  1  0.64030000  0.02860000  0.62240000  1.0 -0.148436152
C  C490  1  0.85970000  0.52860000  0.37760000  1.0 -0.1430357867
C  C491  1  0.35970000  0.97140000  0.12240000  1.0 -0.148436152
C  C492  1  0.14030000  0.47140000  0.87760000  1.0 -0.1430357867
C  C493  1  0.36600000  0.92100000  0.36440000  1.0 0.0495466217
C  C494  1  0.13400000  0.42100000  0.63560000  1.0 0.0495466217
C  C495  1  0.63400000  0.07900000  0.86440000  1.0 0.0495466217
C  C496  1  0.86600000  0.57900000  0.13560000  1.0 0.0495466217
C  C497  1  0.63400000  0.07900000  0.63560000  1.0 0.0495466217
C  C498  1  0.86600000  0.57900000  0.36440000  1.0 0.0495466217
C  C499  1  0.36600000  0.92100000  0.13560000  1.0 0.0495466217
C  C500  1  0.13400000  0.42100000  0.86440000  1.0 0.0495466217
C  C501  1  0.33800000  0.87460000  0.37710000  1.0 0.0337621839
C  C502  1  0.16200000  0.37460000  0.62290000  1.0 0.0337621839
C  C503  1  0.66200000  0.12540000  0.87710000  1.0 0.0337621839
C  C504  1  0.83800000  0.62540000  0.12290000  1.0 0.0337621839
C  C505  1  0.66200000  0.12540000  0.62290000  1.0 0.0337621839
C  C506  1  0.83800000  0.62540000  0.37710000  1.0 0.0337621839
C  C507  1  0.33800000  0.87460000  0.12290000  1.0 0.0337621839
C  C508  1  0.16200000  0.37460000  0.87710000  1.0 0.0337621839
C  C509  1  0.30400000  0.87800000  0.40320000  1.0 -0.1201212124
C  C510  1  0.19600000  0.37800000  0.59680000  1.0 -0.127160626
C  C511  1  0.69600000  0.12200000  0.90320000  1.0 -0.1201212124
C  C512  1  0.80400000  0.62200000  0.09680000  1.0 -0.1201212124
C  C513  1  0.69600000  0.12200000  0.59680000  1.0 -0.1201212124
C  C514  1  0.80400000  0.62200000  0.40320000  1.0 -0.1201212124
C  C515  1  0.30400000  0.87800000  0.09680000  1.0 -0.1201212124
C  C516  1  0.19600000  0.37800000  0.90320000  1.0 -0.127160626
C  C517  1  0.29790000  0.92810000  0.41640000  1.0 0.1110939756
C  C518  1  0.20210000  0.42810000  0.58360000  1.0 0.1110939756
C  C519  1  0.70210000  0.07190000  0.91640000  1.0 0.1110939756
C  C520  1  0.79790000  0.57190000  0.08360000  1.0 0.1110939756
C  C521  1  0.70210000  0.07190000  0.58360000  1.0 0.1110939756
C  C522  1  0.79790000  0.57190000  0.41640000  1.0 0.1110939756
C  C523  1  0.29790000  0.92810000  0.08360000  1.0 0.1206997687
C  C524  1  0.20210000  0.42810000  0.91640000  1.0 0.1110939756
C  C525  1  0.40700000  0.91600000  0.33510000  1.0 0.0102524937
C  C526  1  0.09300000  0.41600000  0.66490000  1.0 0.0102524937
C  C527  1  0.59300000  0.08400000  0.83510000  1.0 -0.002301451
C  C528  1  0.90700000  0.58400000  0.16490000  1.0 0.0102524937
C  C529  1  0.59300000  0.08400000  0.66490000  1.0 -0.002301451
C  C530  1  0.90700000  0.58400000  0.33510000  1.0 0.0102524937
C  C531  1  0.40700000  0.91600000  0.16490000  1.0 0.0102524937
C  C532  1  0.09300000  0.41600000  0.83510000  1.0 0.0102524937
C  C533  1  0.35500000  0.82300000  0.35800000  1.0 0.0691117104
C  C534  1  0.14500000  0.32300000  0.64200000  1.0 0.0691117104
C  C535  1  0.64500000  0.17700000  0.85800000  1.0 0.0600063801
C  C536  1  0.85500000  0.67700000  0.14200000  1.0 0.0600063801
C  C537  1  0.64500000  0.17700000  0.64200000  1.0 0.0600063801
C  C538  1  0.85500000  0.67700000  0.35800000  1.0 0.0600063801
C  C539  1  0.35500000  0.82300000  0.14200000  1.0 0.0691117104
C  C540  1  0.14500000  0.32300000  0.85800000  1.0 0.0691117104
C  C541  1  0.33820000  0.29300000  0.31070000  1.0 0.1563537395
C  C542  1  0.16180000  0.79300000  0.68930000  1.0 0.1563537395
C  C543  1  0.66180000  0.70700000  0.81070000  1.0 0.1563537395
C  C544  1  0.83820000  0.20700000  0.18930000  1.0 0.1477161895
C  C545  1  0.66180000  0.70700000  0.68930000  1.0 0.1563537395
C  C546  1  0.83820000  0.20700000  0.31070000  1.0 0.1477161895
C  C547  1  0.33820000  0.29300000  0.18930000  1.0 0.1563537395
C  C548  1  0.16180000  0.79300000  0.81070000  1.0 0.1563537395
C  C549  1  0.40900000  0.36070000  0.30060000  1.0 0.0899673164
C  C550  1  0.09100000  0.86070000  0.69940000  1.0 0.0899673164
C  C551  1  0.59100000  0.63930000  0.80060000  1.0 0.0899673164
C  C552  1  0.90900000  0.13930000  0.19940000  1.0 0.0899673164
C  C553  1  0.59100000  0.63930000  0.69940000  1.0 0.0899673164
C  C554  1  0.90900000  0.13930000  0.30060000  1.0 0.0899673164
C  C555  1  0.40900000  0.36070000  0.19940000  1.0 0.0899673164
C  C556  1  0.09100000  0.86070000  0.80060000  1.0 0.0899673164
C  C557  1  0.44930000  0.31090000  0.29880000  1.0 0.1110939756
C  C558  1  0.05070000  0.81090000  0.70120000  1.0 0.1110939756
C  C559  1  0.55070000  0.68910000  0.79880000  1.0 0.1110939756
C  C560  1  0.94930000  0.18910000  0.20120000  1.0 0.1110939756
C  C561  1  0.55070000  0.68910000  0.70120000  1.0 0.1110939756
C  C562  1  0.94930000  0.18910000  0.29880000  1.0 0.1110939756
C  C563  1  0.44930000  0.31090000  0.20120000  1.0 0.1110939756
C  C564  1  0.05070000  0.81090000  0.79880000  1.0 0.1110939756
C  C565  1  0.75350000  0.09730000  0.25000000  1.0 0.2542722499
C  C566  1  0.74650000  0.59730000  0.75000000  1.0 0.2606167174
C  C567  1  0.24650000  0.90270000  0.75000000  1.0 0.2606167174
C  C568  1  0.25350000  0.40270000  0.25000000  1.0 0.2606167174
C  C569  1  0.67630000  0.03450000  0.26430000  1.0 0.0803995645
C  C570  1  0.82370000  0.53450000  0.73570000  1.0 0.0803995645
C  C571  1  0.32370000  0.96550000  0.76430000  1.0 0.0803995645
C  C572  1  0.17630000  0.46550000  0.23570000  1.0 0.0803995645
C  C573  1  0.32370000  0.96550000  0.73570000  1.0 0.0803995645
C  C574  1  0.17630000  0.46550000  0.26430000  1.0 0.0803995645
C  C575  1  0.67630000  0.03450000  0.23570000  1.0 0.0803995645
C  C576  1  0.82370000  0.53450000  0.76430000  1.0 0.0803995645
C  C577  1  0.62100000  0.00200000  0.27920000  1.0 -0.0534195887
C  C578  1  0.87900000  0.50200000  0.72080000  1.0 -0.057046113
C  C579  1  0.37900000  0.99800000  0.77920000  1.0 -0.057046113
C  C580  1  0.12100000  0.49800000  0.22080000  1.0 -0.057046113
C  C581  1  0.37900000  0.99800000  0.72080000  1.0 -0.057046113
C  C582  1  0.12100000  0.49800000  0.27920000  1.0 -0.057046113
C  C583  1  0.62100000  0.00200000  0.22080000  1.0 -0.0534195887
C  C584  1  0.87900000  0.50200000  0.77920000  1.0 -0.057046113
C  C585  1  0.56500000  0.97200000  0.26230000  1.0 0.0102524937
C  C586  1  0.93500000  0.47200000  0.73770000  1.0 0.0102524937
C  C587  1  0.43500000  0.02800000  0.76230000  1.0 0.0102524937
C  C588  1  0.06500000  0.52800000  0.23770000  1.0 0.0102524937
C  C589  1  0.43500000  0.02800000  0.73770000  1.0 0.0102524937
C  C590  1  0.06500000  0.52800000  0.26230000  1.0 0.0102524937
C  C591  1  0.56500000  0.97200000  0.23770000  1.0 0.0102524937
C  C592  1  0.93500000  0.47200000  0.76230000  1.0 0.0102524937
C  C593  1  0.50600000  0.94300000  0.28560000  1.0 0.1431787805
C  C594  1  0.99400000  0.44300000  0.71440000  1.0 0.1431787805
C  C595  1  0.49400000  0.05700000  0.78560000  1.0 0.1477161895
C  C596  1  0.00600000  0.55700000  0.21440000  1.0 0.1431787805
C  C597  1  0.49400000  0.05700000  0.71440000  1.0 0.1477161895
C  C598  1  0.00600000  0.55700000  0.28560000  1.0 0.1431787805
C  C599  1  0.50600000  0.94300000  0.21440000  1.0 0.1431787805
C  C600  1  0.99400000  0.44300000  0.78560000  1.0 0.1431787805
C  C601  1  0.46000000  0.07200000  0.27800000  1.0 -0.2393455556
C  C602  1  0.04000000  0.57200000  0.72200000  1.0 -0.2293788102
C  C603  1  0.54000000  0.92800000  0.77800000  1.0 -0.2293788102
C  C604  1  0.96000000  0.42800000  0.22200000  1.0 -0.2393455556
C  C605  1  0.54000000  0.92800000  0.72200000  1.0 -0.2293788102
C  C606  1  0.96000000  0.42800000  0.27800000  1.0 -0.2393455556
C  C607  1  0.46000000  0.07200000  0.22200000  1.0 -0.2393455556
C  C608  1  0.04000000  0.57200000  0.77800000  1.0 -0.2293788102
N  N1  1  0.37140000  0.15740000  0.34120000  1.0 -0.2999249199
N  N2  1  0.12860000  0.65740000  0.65880000  1.0 -0.2999249199
N  N3  1  0.62860000  0.84260000  0.84120000  1.0 -0.2999249199
N  N4  1  0.87140000  0.34260000  0.15880000  1.0 -0.2999249199
N  N5  1  0.62860000  0.84260000  0.65880000  1.0 -0.2999249199
N  N6  1  0.87140000  0.34260000  0.34120000  1.0 -0.2999249199
N  N7  1  0.37140000  0.15740000  0.15880000  1.0 -0.2999249199
N  N8  1  0.12860000  0.65740000  0.84120000  1.0 -0.2999249199
N  N9  1  0.34620000  0.12350000  0.38270000  1.0 -0.3215015509
N  N10  1  0.15380000  0.62350000  0.61730000  1.0 -0.3288991839
N  N11  1  0.65380000  0.87650000  0.88270000  1.0 -0.3215015509
N  N12  1  0.84620000  0.37650000  0.11730000  1.0 -0.3215015509
N  N13  1  0.65380000  0.87650000  0.61730000  1.0 -0.3215015509
N  N14  1  0.84620000  0.37650000  0.38270000  1.0 -0.3215015509
N  N15  1  0.34620000  0.12350000  0.11730000  1.0 -0.3215015509
N  N16  1  0.15380000  0.62350000  0.88270000  1.0 -0.3288991839
N  N17  1  0.34430000  0.12890000  0.45340000  1.0 -0.2999249199
N  N18  1  0.15570000  0.62890000  0.54660000  1.0 -0.2999249199
N  N19  1  0.65570000  0.87110000  0.95340000  1.0 -0.29357216
N  N20  1  0.84430000  0.37110000  0.04660000  1.0 -0.29357216
N  N21  1  0.65570000  0.87110000  0.54660000  1.0 -0.29357216
N  N22  1  0.84430000  0.37110000  0.45340000  1.0 -0.29357216
N  N23  1  0.34430000  0.12890000  0.04660000  1.0 -0.2999249199
N  N24  1  0.15570000  0.62890000  0.95340000  1.0 -0.2999249199
N  N25  1  0.36760000  0.16840000  0.49520000  1.0 -0.3288991839
N  N26  1  0.13240000  0.66840000  0.50480000  1.0 -0.3215015509
N  N27  1  0.63240000  0.83160000  0.99520000  1.0 -0.3215015509
N  N28  1  0.86760000  0.33160000  0.00480000  1.0 -0.3288991839
N  N29  1  0.63240000  0.83160000  0.50480000  1.0 -0.3215015509
N  N30  1  0.86760000  0.33160000  0.49520000  1.0 -0.3288991839
N  N31  1  0.36760000  0.16840000  0.00480000  1.0 -0.3288991839
N  N32  1  0.13240000  0.66840000  0.99520000  1.0 -0.3215015509
N  N33  1  0.53990000  0.18850000  0.51490000  1.0 -0.3497482692
N  N34  1  0.96010000  0.68850000  0.48510000  1.0 -0.3497482692
N  N35  1  0.46010000  0.81150000  0.01490000  1.0 -0.3497482692
N  N36  1  0.03990000  0.31150000  0.98510000  1.0 -0.3497482692
N  N37  1  0.46010000  0.81150000  0.48510000  1.0 -0.3497482692
N  N38  1  0.03990000  0.31150000  0.51490000  1.0 -0.3497482692
N  N39  1  0.53990000  0.18850000  0.98510000  1.0 -0.3497482692
N  N40  1  0.96010000  0.68850000  0.01490000  1.0 -0.3497482692
N  N41  1  0.65590000  0.15570000  0.51280000  1.0 -0.2217321992
N  N42  1  0.84410000  0.65570000  0.48720000  1.0 -0.2217321992
N  N43  1  0.34410000  0.84430000  0.01280000  1.0 -0.2217321992
N  N44  1  0.15590000  0.34430000  0.98720000  1.0 -0.2217321992
N  N45  1  0.34410000  0.84430000  0.48720000  1.0 -0.2217321992
N  N46  1  0.15590000  0.34430000  0.51280000  1.0 -0.2217321992
N  N47  1  0.65590000  0.15570000  0.98720000  1.0 -0.2217321992
N  N48  1  0.84410000  0.65570000  0.01280000  1.0 -0.2217321992
N  N49  1  0.77020000  0.05260000  0.49390000  1.0 -0.2217321992
N  N50  1  0.72980000  0.55260000  0.50610000  1.0 -0.2217321992
N  N51  1  0.22980000  0.94740000  0.99390000  1.0 -0.2217321992
N  N52  1  0.27020000  0.44740000  0.00610000  1.0 -0.2217321992
N  N53  1  0.22980000  0.94740000  0.50610000  1.0 -0.2217321992
N  N54  1  0.27020000  0.44740000  0.49390000  1.0 -0.2217321992
N  N55  1  0.77020000  0.05260000  0.00610000  1.0 -0.2217321992
N  N56  1  0.72980000  0.55260000  0.99390000  1.0 -0.2217321992
N  N57  1  0.74170000  0.01590000  0.45280000  1.0 -0.2765164399
N  N58  1  0.75830000  0.51590000  0.54720000  1.0 -0.2765164399
N  N59  1  0.25830000  0.98410000  0.95280000  1.0 -0.2765164399
N  N60  1  0.24170000  0.48410000  0.04720000  1.0 -0.2765164399
N  N61  1  0.25830000  0.98410000  0.54720000  1.0 -0.2765164399
N  N62  1  0.24170000  0.48410000  0.45280000  1.0 -0.2765164399
N  N63  1  0.74170000  0.01590000  0.04720000  1.0 -0.2765164399
N  N64  1  0.75830000  0.51590000  0.95280000  1.0 -0.2765164399
N  N65  1  0.73850000  0.01290000  0.38070000  1.0 -0.2609329375
N  N66  1  0.76150000  0.51290000  0.61930000  1.0 -0.2609329375
N  N67  1  0.26150000  0.98710000  0.88070000  1.0 -0.2609329375
N  N68  1  0.23850000  0.48710000  0.11930000  1.0 -0.2609329375
N  N69  1  0.26150000  0.98710000  0.61930000  1.0 -0.2609329375
N  N70  1  0.23850000  0.48710000  0.38070000  1.0 -0.2609329375
N  N71  1  0.73850000  0.01290000  0.11930000  1.0 -0.2609329375
N  N72  1  0.76150000  0.51290000  0.88070000  1.0 -0.2609329375
N  N73  1  0.76670000  0.04960000  0.33880000  1.0 -0.2688173437
N  N74  1  0.73330000  0.54960000  0.66120000  1.0 -0.2609329375
N  N75  1  0.23330000  0.95040000  0.83880000  1.0 -0.2688173437
N  N76  1  0.26670000  0.45040000  0.16120000  1.0 -0.2609329375
N  N77  1  0.23330000  0.95040000  0.66120000  1.0 -0.2688173437
N  N78  1  0.26670000  0.45040000  0.33880000  1.0 -0.2609329375
N  N79  1  0.76670000  0.04960000  0.16120000  1.0 -0.2688173437
N  N80  1  0.73330000  0.54960000  0.83880000  1.0 -0.2609329375
N  N81  1  0.65880000  0.15080000  0.32200000  1.0 -0.3867717211
N  N82  1  0.84120000  0.65080000  0.67800000  1.0 -0.3867717211
N  N83  1  0.34120000  0.84920000  0.82200000  1.0 -0.3846406066
N  N84  1  0.15880000  0.34920000  0.17800000  1.0 -0.3867717211
N  N85  1  0.34120000  0.84920000  0.67800000  1.0 -0.3846406066
N  N86  1  0.15880000  0.34920000  0.32200000  1.0 -0.3867717211
N  N87  1  0.65880000  0.15080000  0.17800000  1.0 -0.3867717211
N  N88  1  0.84120000  0.65080000  0.82200000  1.0 -0.3867717211
N  N89  1  0.53890000  0.18280000  0.32140000  1.0 -0.2999249199
N  N90  1  0.96110000  0.68280000  0.67860000  1.0 -0.2999249199
N  N91  1  0.46110000  0.81720000  0.82140000  1.0 -0.2999249199
N  N92  1  0.03890000  0.31720000  0.17860000  1.0 -0.2999249199
N  N93  1  0.46110000  0.81720000  0.67860000  1.0 -0.2999249199
N  N94  1  0.03890000  0.31720000  0.32140000  1.0 -0.2999249199
N  N95  1  0.53890000  0.18280000  0.17860000  1.0 -0.2999249199
N  N96  1  0.96110000  0.68280000  0.82140000  1.0 -0.2999249199
N  N97  1  0.48740000  0.08760000  0.41910000  1.0 -0.2393455556
N  N98  1  0.01260000  0.58760000  0.58090000  1.0 -0.2393455556
N  N99  1  0.51260000  0.91240000  0.91910000  1.0 -0.2393455556
N  N100  1  0.98740000  0.41240000  0.08090000  1.0 -0.2393455556
N  N101  1  0.51260000  0.91240000  0.58090000  1.0 -0.2393455556
N  N102  1  0.98740000  0.41240000  0.41910000  1.0 -0.2393455556
N  N103  1  0.48740000  0.08760000  0.08090000  1.0 -0.2393455556
N  N104  1  0.01260000  0.58760000  0.91910000  1.0 -0.2393455556
N  N105  1  0.60150000  0.05490000  0.41680000  1.0 -0.2999249199
N  N106  1  0.89850000  0.55490000  0.58320000  1.0 -0.2999249199
N  N107  1  0.39850000  0.94510000  0.91680000  1.0 -0.2999249199
N  N108  1  0.10150000  0.44510000  0.08320000  1.0 -0.2999249199
N  N109  1  0.39850000  0.94510000  0.58320000  1.0 -0.2999249199
N  N110  1  0.10150000  0.44510000  0.41680000  1.0 -0.2999249199
N  N111  1  0.60150000  0.05490000  0.08320000  1.0 -0.2999249199
N  N112  1  0.89850000  0.55490000  0.91680000  1.0 -0.2999249199
N  N113  1  0.41990000  0.15950000  0.27340000  1.0 -0.3391414337
N  N114  1  0.08010000  0.65950000  0.72660000  1.0 -0.3391414337
N  N115  1  0.58010000  0.84050000  0.77340000  1.0 -0.3391414337
N  N116  1  0.91990000  0.34050000  0.22660000  1.0 -0.3391414337
N  N117  1  0.58010000  0.84050000  0.72660000  1.0 -0.3391414337
N  N118  1  0.91990000  0.34050000  0.27340000  1.0 -0.3391414337
N  N119  1  0.41990000  0.15950000  0.22660000  1.0 -0.3391414337
N  N120  1  0.08010000  0.65950000  0.77340000  1.0 -0.3391414337
N  N121  1  0.59230000  0.85540000  0.44100000  1.0 -0.3215015509
N  N122  1  0.90770000  0.35540000  0.55900000  1.0 -0.3215015509
N  N123  1  0.40770000  0.14460000  0.94100000  1.0 -0.3215015509
N  N124  1  0.09230000  0.64460000  0.05900000  1.0 -0.3215015509
N  N125  1  0.40770000  0.14460000  0.55900000  1.0 -0.3215015509
N  N126  1  0.09230000  0.64460000  0.44100000  1.0 -0.3215015509
N  N127  1  0.59230000  0.85540000  0.05900000  1.0 -0.3215015509
N  N128  1  0.90770000  0.35540000  0.94100000  1.0 -0.3215015509
N  N129  1  0.64250000  0.92730000  0.42010000  1.0 -0.3215015509
N  N130  1  0.85750000  0.42730000  0.57990000  1.0 -0.3215015509
N  N131  1  0.35750000  0.07270000  0.92010000  1.0 -0.3215015509
N  N132  1  0.14250000  0.57270000  0.07990000  1.0 -0.3215015509
N  N133  1  0.35750000  0.07270000  0.57990000  1.0 -0.3215015509
N  N134  1  0.14250000  0.57270000  0.42010000  1.0 -0.3215015509
N  N135  1  0.64250000  0.92730000  0.07990000  1.0 -0.3215015509
N  N136  1  0.85750000  0.42730000  0.92010000  1.0 -0.3215015509
N  N137  1  0.40480000  0.27450000  0.53630000  1.0 -0.2217321992
N  N138  1  0.09520000  0.77450000  0.46370000  1.0 -0.2217321992
N  N139  1  0.59520000  0.72550000  0.03630000  1.0 -0.2293788102
N  N140  1  0.90480000  0.22550000  0.96370000  1.0 -0.2293788102
N  N141  1  0.59520000  0.72550000  0.46370000  1.0 -0.2293788102
N  N142  1  0.90480000  0.22550000  0.53630000  1.0 -0.2293788102
N  N143  1  0.40480000  0.27450000  0.96370000  1.0 -0.2293788102
N  N144  1  0.09520000  0.77450000  0.03630000  1.0 -0.2217321992
N  N145  1  0.33130000  0.34550000  0.53420000  1.0 -0.2393455556
N  N146  1  0.16870000  0.84550000  0.46580000  1.0 -0.2393455556
N  N147  1  0.66870000  0.65450000  0.03420000  1.0 -0.2393455556
N  N148  1  0.83130000  0.15450000  0.96580000  1.0 -0.2393455556
N  N149  1  0.66870000  0.65450000  0.46580000  1.0 -0.2393455556
N  N150  1  0.83130000  0.15450000  0.53420000  1.0 -0.2393455556
N  N151  1  0.33130000  0.34550000  0.96580000  1.0 -0.2393455556
N  N152  1  0.16870000  0.84550000  0.03420000  1.0 -0.2393455556
N  N153  1  0.28620000  0.93930000  0.44410000  1.0 -0.3288991839
N  N154  1  0.21380000  0.43930000  0.55590000  1.0 -0.3391414337
N  N155  1  0.71380000  0.06070000  0.94410000  1.0 -0.3288991839
N  N156  1  0.78620000  0.56070000  0.05590000  1.0 -0.3391414337
N  N157  1  0.71380000  0.06070000  0.55590000  1.0 -0.3391414337
N  N158  1  0.78620000  0.56070000  0.44410000  1.0 -0.3391414337
N  N159  1  0.28620000  0.93930000  0.05590000  1.0 -0.3288991839
N  N160  1  0.21380000  0.43930000  0.94410000  1.0 -0.3391414337
N  N161  1  0.33110000  0.01470000  0.42230000  1.0 -0.3391414337
N  N162  1  0.16890000  0.51470000  0.57770000  1.0 -0.3391414337
N  N163  1  0.66890000  0.98530000  0.92230000  1.0 -0.3391414337
N  N164  1  0.83110000  0.48530000  0.07770000  1.0 -0.3391414337
N  N165  1  0.66890000  0.98530000  0.57770000  1.0 -0.3391414337
N  N166  1  0.83110000  0.48530000  0.42230000  1.0 -0.3391414337
N  N167  1  0.33110000  0.01470000  0.07770000  1.0 -0.3391414337
N  N168  1  0.16890000  0.51470000  0.92230000  1.0 -0.3391414337
N  N169  1  0.33570000  0.34600000  0.30750000  1.0 -0.2393455556
N  N170  1  0.16430000  0.84600000  0.69250000  1.0 -0.2393455556
N  N171  1  0.66430000  0.65400000  0.80750000  1.0 -0.2393455556
N  N172  1  0.83570000  0.15400000  0.19250000  1.0 -0.2393455556
N  N173  1  0.66430000  0.65400000  0.69250000  1.0 -0.2393455556
N  N174  1  0.83570000  0.15400000  0.30750000  1.0 -0.2393455556
N  N175  1  0.33570000  0.34600000  0.19250000  1.0 -0.2393455556
N  N176  1  0.16430000  0.84600000  0.80750000  1.0 -0.2393455556
N  N177  1  0.72650000  0.07520000  0.27350000  1.0 -0.3497482692
N  N178  1  0.77350000  0.57520000  0.72650000  1.0 -0.3497482692
N  N179  1  0.27350000  0.92480000  0.77350000  1.0 -0.3497482692
N  N180  1  0.22650000  0.42480000  0.22650000  1.0 -0.3497482692
N  N181  1  0.27350000  0.92480000  0.72650000  1.0 -0.3497482692
N  N182  1  0.22650000  0.42480000  0.27350000  1.0 -0.3497482692
N  N183  1  0.72650000  0.07520000  0.22650000  1.0 -0.3497482692
N  N184  1  0.77350000  0.57520000  0.77350000  1.0 -0.3497482692
N  N185  1  0.40550000  0.26860000  0.30760000  1.0 -0.2688173437
N  N186  1  0.09450000  0.76860000  0.69240000  1.0 -0.2609329375
N  N187  1  0.59450000  0.73140000  0.80760000  1.0 -0.2688173437
N  N188  1  0.90550000  0.23140000  0.19240000  1.0 -0.2688173437
N  N189  1  0.59450000  0.73140000  0.69240000  1.0 -0.2688173437
N  N190  1  0.90550000  0.23140000  0.30760000  1.0 -0.2688173437
N  N191  1  0.40550000  0.26860000  0.19240000  1.0 -0.2688173437
N  N192  1  0.09450000  0.76860000  0.80760000  1.0 -0.2609329375
