# DDEC6 charges by PACMAN v1.1 (https://github.com/mtap-research/PACMAN-charge/)
data_QOTKOC_ASR_pacman
_symmetry_space_group_name_H-M   'P 1'
_cell_length_a   30.35800000
_cell_length_b   30.35800000
_cell_length_c   35.17700000
_cell_angle_alpha   90.00000000
_cell_angle_beta   90.00000000
_cell_angle_gamma   120.00000000
_symmetry_Int_Tables_number   1
_chemical_formula_structural   In6H84C159O26
_chemical_formula_sum   'In12 H168 C318 O52'
_cell_volume   28076.03296915
_cell_formula_units_Z   2
loop_
 _symmetry_equiv_pos_site_id
 _symmetry_equiv_pos_as_xyz
  1  'x, y, z'
loop_
 _atom_site_type_symbol
 _atom_site_label
 _atom_site_symmetry_multiplicity
 _atom_site_fract_x
 _atom_site_fract_y
 _atom_site_fract_z
 _atom_site_occupancy
 _atom_site_charge
In  In1  1  0.40765000  0.68643000  0.00000000  1.0 1.4717194388
In  In2  1  0.27878000  0.59235000  0.00000000  1.0 1.4752378712
In  In3  1  0.31357000  0.72122000  0.00000000  1.0 1.4717194388
In  In4  1  0.59235000  0.31357000  0.00000000  1.0 1.4717194388
In  In5  1  0.72122000  0.40765000  0.00000000  1.0 1.4717194388
In  In6  1  0.68643000  0.27878000  0.00000000  1.0 1.4752378712
In  In7  1  0.72122000  0.31357000  0.50000000  1.0 1.4717194388
In  In8  1  0.68643000  0.40765000  0.50000000  1.0 1.4717194388
In  In9  1  0.59235000  0.27878000  0.50000000  1.0 1.4752378712
In  In10  1  0.27878000  0.68643000  0.50000000  1.0 1.4717194388
In  In11  1  0.31357000  0.59235000  0.50000000  1.0 1.4752378712
In  In12  1  0.40765000  0.72122000  0.50000000  1.0 1.4717194388
H  H1  1  0.38580000  0.82850000  0.90760000  1.0 0.1284448386
H  H2  1  0.43000000  0.89210000  0.86450000  1.0 0.1284448386
H  H3  1  0.53340000  0.84550000  0.85880000  1.0 0.1127513809
H  H4  1  0.48300000  0.78330000  0.90340000  1.0 0.1284448386
H  H5  1  0.45670000  0.93130000  0.80530000  1.0 0.1171915645
H  H6  1  0.62320000  0.97100000  0.77840000  1.0 0.1127513809
H  H7  1  0.57480000  0.90290000  0.82360000  1.0 0.1127513809
H  H8  1  0.44270000  0.61420000  0.90760000  1.0 0.1284448386
H  H9  1  0.46210000  0.57000000  0.86450000  1.0 0.1284448386
H  H10  1  0.31210000  0.46660000  0.85880000  1.0 0.1127513809
H  H11  1  0.30030000  0.51700000  0.90340000  1.0 0.1284448386
H  H12  1  0.47460000  0.54330000  0.80530000  1.0 0.1171915645
H  H13  1  0.34780000  0.37680000  0.77840000  1.0 0.1127513809
H  H14  1  0.32810000  0.42520000  0.82360000  1.0 0.1127513809
H  H15  1  0.17150000  0.55730000  0.90760000  1.0 0.1284448386
H  H16  1  0.10790000  0.53790000  0.86450000  1.0 0.1284448386
H  H17  1  0.15450000  0.68790000  0.85880000  1.0 0.1127513809
H  H18  1  0.21670000  0.69970000  0.90340000  1.0 0.1284448386
H  H19  1  0.06870000  0.52540000  0.80530000  1.0 0.1171915645
H  H20  1  0.02900000  0.65220000  0.77840000  1.0 0.1127513809
H  H21  1  0.09710000  0.67190000  0.82360000  1.0 0.1127513809
H  H22  1  0.61420000  0.17150000  0.90760000  1.0 0.1284448386
H  H23  1  0.57000000  0.10790000  0.86450000  1.0 0.1284448386
H  H24  1  0.46660000  0.15450000  0.85880000  1.0 0.1127513809
H  H25  1  0.51700000  0.21670000  0.90340000  1.0 0.1284448386
H  H26  1  0.54330000  0.06870000  0.80530000  1.0 0.1171915645
H  H27  1  0.37680000  0.02900000  0.77840000  1.0 0.1171915645
H  H28  1  0.42520000  0.09710000  0.82360000  1.0 0.1127513809
H  H29  1  0.55730000  0.38580000  0.90760000  1.0 0.1284448386
H  H30  1  0.53790000  0.43000000  0.86450000  1.0 0.1284448386
H  H31  1  0.68790000  0.53340000  0.85880000  1.0 0.1127513809
H  H32  1  0.69970000  0.48300000  0.90340000  1.0 0.1284448386
H  H33  1  0.52540000  0.45670000  0.80530000  1.0 0.1171915645
H  H34  1  0.65220000  0.62320000  0.77840000  1.0 0.1127513809
H  H35  1  0.67190000  0.57480000  0.82360000  1.0 0.1127513809
H  H36  1  0.82850000  0.44270000  0.90760000  1.0 0.1284448386
H  H37  1  0.89210000  0.46210000  0.86450000  1.0 0.1284448386
H  H38  1  0.84550000  0.31210000  0.85880000  1.0 0.1127513809
H  H39  1  0.78330000  0.30030000  0.90340000  1.0 0.1284448386
H  H40  1  0.93130000  0.47460000  0.80530000  1.0 0.1171915645
H  H41  1  0.97100000  0.34780000  0.77840000  1.0 0.1127513809
H  H42  1  0.90290000  0.32810000  0.82360000  1.0 0.1127513809
H  H43  1  0.55730000  0.17150000  0.59240000  1.0 0.1284448386
H  H44  1  0.53790000  0.10790000  0.63550000  1.0 0.1284448386
H  H45  1  0.68790000  0.15450000  0.64120000  1.0 0.1127513809
H  H46  1  0.69970000  0.21670000  0.59660000  1.0 0.1284448386
H  H47  1  0.52540000  0.06870000  0.69470000  1.0 0.1171915645
H  H48  1  0.65220000  0.02900000  0.72160000  1.0 0.1127513809
H  H49  1  0.67190000  0.09710000  0.67640000  1.0 0.1127513809
H  H50  1  0.82850000  0.38580000  0.59240000  1.0 0.1284448386
H  H51  1  0.89210000  0.43000000  0.63550000  1.0 0.1284448386
H  H52  1  0.84550000  0.53340000  0.64120000  1.0 0.1127513809
H  H53  1  0.78330000  0.48300000  0.59660000  1.0 0.1284448386
H  H54  1  0.93130000  0.45670000  0.69470000  1.0 0.1171915645
H  H55  1  0.97100000  0.62320000  0.72160000  1.0 0.1171915645
H  H56  1  0.90290000  0.57480000  0.67640000  1.0 0.1127513809
H  H57  1  0.61420000  0.44270000  0.59240000  1.0 0.1284448386
H  H58  1  0.57000000  0.46210000  0.63550000  1.0 0.1284448386
H  H59  1  0.46660000  0.31210000  0.64120000  1.0 0.1127513809
H  H60  1  0.51700000  0.30030000  0.59660000  1.0 0.1284448386
H  H61  1  0.54330000  0.47460000  0.69470000  1.0 0.1171915645
H  H62  1  0.37680000  0.34780000  0.72160000  1.0 0.1127513809
H  H63  1  0.42520000  0.32810000  0.67640000  1.0 0.1127513809
H  H64  1  0.44270000  0.82850000  0.59240000  1.0 0.1284448386
H  H65  1  0.46210000  0.89210000  0.63550000  1.0 0.1284448386
H  H66  1  0.31210000  0.84550000  0.64120000  1.0 0.1127513809
H  H67  1  0.30030000  0.78330000  0.59660000  1.0 0.1284448386
H  H68  1  0.47460000  0.93130000  0.69470000  1.0 0.1171915645
H  H69  1  0.34780000  0.97100000  0.72160000  1.0 0.1171915645
H  H70  1  0.32810000  0.90290000  0.67640000  1.0 0.1127513809
H  H71  1  0.17150000  0.61420000  0.59240000  1.0 0.1284448386
H  H72  1  0.10790000  0.57000000  0.63550000  1.0 0.1284448386
H  H73  1  0.15450000  0.46660000  0.64120000  1.0 0.1127513809
H  H74  1  0.21670000  0.51700000  0.59660000  1.0 0.1284448386
H  H75  1  0.06870000  0.54330000  0.69470000  1.0 0.1171915645
H  H76  1  0.02900000  0.37680000  0.72160000  1.0 0.1127513809
H  H77  1  0.09710000  0.42520000  0.67640000  1.0 0.1127513809
H  H78  1  0.38580000  0.55730000  0.59240000  1.0 0.1284448386
H  H79  1  0.43000000  0.53790000  0.63550000  1.0 0.1284448386
H  H80  1  0.53340000  0.68790000  0.64120000  1.0 0.1127513809
H  H81  1  0.48300000  0.69970000  0.59660000  1.0 0.1284448386
H  H82  1  0.45670000  0.52540000  0.69470000  1.0 0.1171915645
H  H83  1  0.62320000  0.65220000  0.72160000  1.0 0.1127513809
H  H84  1  0.57480000  0.67190000  0.67640000  1.0 0.1127513809
H  H85  1  0.61420000  0.17150000  0.09240000  1.0 0.1284448386
H  H86  1  0.57000000  0.10790000  0.13550000  1.0 0.1284448386
H  H87  1  0.46660000  0.15450000  0.14120000  1.0 0.1127513809
H  H88  1  0.51700000  0.21670000  0.09660000  1.0 0.1284448386
H  H89  1  0.54330000  0.06870000  0.19470000  1.0 0.1171915645
H  H90  1  0.37680000  0.02900000  0.22160000  1.0 0.1171915645
H  H91  1  0.42520000  0.09710000  0.17640000  1.0 0.1127513809
H  H92  1  0.55730000  0.38580000  0.09240000  1.0 0.1284448386
H  H93  1  0.53790000  0.43000000  0.13550000  1.0 0.1284448386
H  H94  1  0.68790000  0.53340000  0.14120000  1.0 0.1127513809
H  H95  1  0.69970000  0.48300000  0.09660000  1.0 0.1284448386
H  H96  1  0.52540000  0.45670000  0.19470000  1.0 0.1171915645
H  H97  1  0.65220000  0.62320000  0.22160000  1.0 0.1127513809
H  H98  1  0.67190000  0.57480000  0.17640000  1.0 0.1127513809
H  H99  1  0.82850000  0.44270000  0.09240000  1.0 0.1284448386
H  H100  1  0.89210000  0.46210000  0.13550000  1.0 0.1284448386
H  H101  1  0.84550000  0.31210000  0.14120000  1.0 0.1127513809
H  H102  1  0.78330000  0.30030000  0.09660000  1.0 0.1284448386
H  H103  1  0.93130000  0.47460000  0.19470000  1.0 0.1171915645
H  H104  1  0.97100000  0.34780000  0.22160000  1.0 0.1127513809
H  H105  1  0.90290000  0.32810000  0.17640000  1.0 0.1127513809
H  H106  1  0.38580000  0.82850000  0.09240000  1.0 0.1284448386
H  H107  1  0.43000000  0.89210000  0.13550000  1.0 0.1284448386
H  H108  1  0.53340000  0.84550000  0.14120000  1.0 0.1127513809
H  H109  1  0.48300000  0.78330000  0.09660000  1.0 0.1284448386
H  H110  1  0.45670000  0.93130000  0.19470000  1.0 0.1171915645
H  H111  1  0.62320000  0.97100000  0.22160000  1.0 0.1127513809
H  H112  1  0.57480000  0.90290000  0.17640000  1.0 0.1127513809
H  H113  1  0.44270000  0.61420000  0.09240000  1.0 0.1284448386
H  H114  1  0.46210000  0.57000000  0.13550000  1.0 0.1284448386
H  H115  1  0.31210000  0.46660000  0.14120000  1.0 0.1127513809
H  H116  1  0.30030000  0.51700000  0.09660000  1.0 0.1284448386
H  H117  1  0.47460000  0.54330000  0.19470000  1.0 0.1171915645
H  H118  1  0.34780000  0.37680000  0.22160000  1.0 0.1127513809
H  H119  1  0.32810000  0.42520000  0.17640000  1.0 0.1127513809
H  H120  1  0.17150000  0.55730000  0.09240000  1.0 0.1284448386
H  H121  1  0.10790000  0.53790000  0.13550000  1.0 0.1284448386
H  H122  1  0.15450000  0.68790000  0.14120000  1.0 0.1127513809
H  H123  1  0.21670000  0.69970000  0.09660000  1.0 0.1284448386
H  H124  1  0.06870000  0.52540000  0.19470000  1.0 0.1171915645
H  H125  1  0.02900000  0.65220000  0.22160000  1.0 0.1127513809
H  H126  1  0.09710000  0.67190000  0.17640000  1.0 0.1127513809
H  H127  1  0.44270000  0.82850000  0.40760000  1.0 0.1284448386
H  H128  1  0.46210000  0.89210000  0.36450000  1.0 0.1284448386
H  H129  1  0.31210000  0.84550000  0.35880000  1.0 0.1127513809
H  H130  1  0.30030000  0.78330000  0.40340000  1.0 0.1284448386
H  H131  1  0.47460000  0.93130000  0.30530000  1.0 0.1171915645
H  H132  1  0.34780000  0.97100000  0.27840000  1.0 0.1171915645
H  H133  1  0.32810000  0.90290000  0.32360000  1.0 0.1127513809
H  H134  1  0.17150000  0.61420000  0.40760000  1.0 0.1284448386
H  H135  1  0.10790000  0.57000000  0.36450000  1.0 0.1284448386
H  H136  1  0.15450000  0.46660000  0.35880000  1.0 0.1127513809
H  H137  1  0.21670000  0.51700000  0.40340000  1.0 0.1284448386
H  H138  1  0.06870000  0.54330000  0.30530000  1.0 0.1171915645
H  H139  1  0.02900000  0.37680000  0.27840000  1.0 0.1127513809
H  H140  1  0.09710000  0.42520000  0.32360000  1.0 0.1127513809
H  H141  1  0.38580000  0.55730000  0.40760000  1.0 0.1284448386
H  H142  1  0.43000000  0.53790000  0.36450000  1.0 0.1284448386
H  H143  1  0.53340000  0.68790000  0.35880000  1.0 0.1127513809
H  H144  1  0.48300000  0.69970000  0.40340000  1.0 0.1284448386
H  H145  1  0.45670000  0.52540000  0.30530000  1.0 0.1171915645
H  H146  1  0.62320000  0.65220000  0.27840000  1.0 0.1127513809
H  H147  1  0.57480000  0.67190000  0.32360000  1.0 0.1127513809
H  H148  1  0.55730000  0.17150000  0.40760000  1.0 0.1284448386
H  H149  1  0.53790000  0.10790000  0.36450000  1.0 0.1284448386
H  H150  1  0.68790000  0.15450000  0.35880000  1.0 0.1127513809
H  H151  1  0.69970000  0.21670000  0.40340000  1.0 0.1284448386
H  H152  1  0.52540000  0.06870000  0.30530000  1.0 0.1171915645
H  H153  1  0.65220000  0.02900000  0.27840000  1.0 0.1127513809
H  H154  1  0.67190000  0.09710000  0.32360000  1.0 0.1127513809
H  H155  1  0.82850000  0.38580000  0.40760000  1.0 0.1284448386
H  H156  1  0.89210000  0.43000000  0.36450000  1.0 0.1284448386
H  H157  1  0.84550000  0.53340000  0.35880000  1.0 0.1127513809
H  H158  1  0.78330000  0.48300000  0.40340000  1.0 0.1284448386
H  H159  1  0.93130000  0.45670000  0.30530000  1.0 0.1171915645
H  H160  1  0.97100000  0.62320000  0.27840000  1.0 0.1171915645
H  H161  1  0.90290000  0.57480000  0.32360000  1.0 0.1127513809
H  H162  1  0.61420000  0.44270000  0.40760000  1.0 0.1284448386
H  H163  1  0.57000000  0.46210000  0.36450000  1.0 0.1284448386
H  H164  1  0.46660000  0.31210000  0.35880000  1.0 0.1127513809
H  H165  1  0.51700000  0.30030000  0.40340000  1.0 0.1284448386
H  H166  1  0.54330000  0.47460000  0.30530000  1.0 0.1171915645
H  H167  1  0.37680000  0.34780000  0.27840000  1.0 0.1127513809
H  H168  1  0.42520000  0.32810000  0.32360000  1.0 0.1127513809
C  C1  1  0.40430000  0.76780000  0.94790000  1.0 0.6056243185
C  C2  1  0.43230000  0.80250000  0.91350000  1.0 -0.0106351806
C  C3  1  0.41700000  0.83260000  0.89820000  1.0 -0.1082139342
C  C4  1  0.44050000  0.86830000  0.87080000  1.0 -0.1477653214
C  C5  1  0.48070000  0.86790000  0.85240000  1.0 0.0642174918
C  C6  1  0.50170000  0.84110000  0.86720000  1.0 -0.1434575984
C  C7  1  0.47250000  0.80660000  0.89580000  1.0 -0.1082139342
C  C8  1  0.51120000  0.91130000  0.82160000  1.0 0.1127513809
C  C9  1  0.49030000  0.93840000  0.79990000  1.0 -0.2232477871
C  C10  1  0.51710000  0.97290000  0.77260000  1.0 -0.0106351806
C  C11  1  0.56310000  0.98060000  0.76400000  1.0 -0.0047041402
C  C12  1  0.58850000  0.96000000  0.78350000  1.0 -0.1477653214
C  C13  1  0.56050000  0.92110000  0.81190000  1.0 -0.190004011
C  C14  1  0.36350000  0.59570000  0.94790000  1.0 0.6056243185
C  C15  1  0.37020000  0.56770000  0.91350000  1.0 -0.0106351806
C  C16  1  0.41560000  0.58300000  0.89820000  1.0 -0.1082139342
C  C17  1  0.42780000  0.55950000  0.87080000  1.0 -0.1477653214
C  C18  1  0.38720000  0.51930000  0.85240000  1.0 0.0642174918
C  C19  1  0.33940000  0.49830000  0.86720000  1.0 -0.1434575984
C  C20  1  0.33410000  0.52750000  0.89580000  1.0 -0.1082139342
C  C21  1  0.40010000  0.48880000  0.82160000  1.0 0.1127513809
C  C22  1  0.44810000  0.50970000  0.79990000  1.0 -0.2232477871
C  C23  1  0.45580000  0.48290000  0.77260000  1.0 -0.0106351806
C  C24  1  0.41750000  0.43690000  0.76400000  1.0 -0.0106351806
C  C25  1  0.37150000  0.41150000  0.78350000  1.0 -0.1477653214
C  C26  1  0.36060000  0.43950000  0.81190000  1.0 -0.190004011
C  C27  1  0.23220000  0.63650000  0.94790000  1.0 0.6056243185
C  C28  1  0.19750000  0.62980000  0.91350000  1.0 -0.0106351806
C  C29  1  0.16740000  0.58440000  0.89820000  1.0 -0.1082139342
C  C30  1  0.13170000  0.57220000  0.87080000  1.0 -0.1477653214
C  C31  1  0.13210000  0.61280000  0.85240000  1.0 0.0642174918
C  C32  1  0.15890000  0.66060000  0.86720000  1.0 -0.1434575984
C  C33  1  0.19340000  0.66590000  0.89580000  1.0 -0.1082139342
C  C34  1  0.08870000  0.59990000  0.82160000  1.0 0.1127513809
C  C35  1  0.06160000  0.55190000  0.79990000  1.0 -0.2232477871
C  C36  1  0.02710000  0.54420000  0.77260000  1.0 -0.0106351806
C  C37  1  0.01940000  0.58250000  0.76400000  1.0 -0.0106351806
C  C38  1  0.04000000  0.62850000  0.78350000  1.0 -0.1477653214
C  C39  1  0.07890000  0.63940000  0.81190000  1.0 -0.190004011
C  C40  1  0.59570000  0.23220000  0.94790000  1.0 0.6056243185
C  C41  1  0.56770000  0.19750000  0.91350000  1.0 -0.0106351806
C  C42  1  0.58300000  0.16740000  0.89820000  1.0 -0.1082139342
C  C43  1  0.55950000  0.13170000  0.87080000  1.0 -0.1477653214
C  C44  1  0.51930000  0.13210000  0.85240000  1.0 0.0642174918
C  C45  1  0.49830000  0.15890000  0.86720000  1.0 -0.1434575984
C  C46  1  0.52750000  0.19340000  0.89580000  1.0 -0.1082139342
C  C47  1  0.48880000  0.08870000  0.82160000  1.0 0.1127513809
C  C48  1  0.50970000  0.06160000  0.79990000  1.0 -0.2232477871
C  C49  1  0.48290000  0.02710000  0.77260000  1.0 -0.0106351806
C  C50  1  0.43690000  0.01940000  0.76400000  1.0 -0.0106351806
C  C51  1  0.41150000  0.04000000  0.78350000  1.0 -0.1477653214
C  C52  1  0.43950000  0.07890000  0.81190000  1.0 -0.190004011
C  C53  1  0.63650000  0.40430000  0.94790000  1.0 0.6056243185
C  C54  1  0.62980000  0.43230000  0.91350000  1.0 -0.0106351806
C  C55  1  0.58440000  0.41700000  0.89820000  1.0 -0.1082139342
C  C56  1  0.57220000  0.44050000  0.87080000  1.0 -0.1477653214
C  C57  1  0.61280000  0.48070000  0.85240000  1.0 0.0642174918
C  C58  1  0.66060000  0.50170000  0.86720000  1.0 -0.1434575984
C  C59  1  0.66590000  0.47250000  0.89580000  1.0 -0.1082139342
C  C60  1  0.59990000  0.51120000  0.82160000  1.0 0.1127513809
C  C61  1  0.55190000  0.49030000  0.79990000  1.0 -0.2232477871
C  C62  1  0.54420000  0.51710000  0.77260000  1.0 -0.0106351806
C  C63  1  0.58250000  0.56310000  0.76400000  1.0 -0.0047041402
C  C64  1  0.62850000  0.58850000  0.78350000  1.0 -0.1477653214
C  C65  1  0.63940000  0.56050000  0.81190000  1.0 -0.190004011
C  C66  1  0.76780000  0.36350000  0.94790000  1.0 0.6056243185
C  C67  1  0.80250000  0.37020000  0.91350000  1.0 -0.0106351806
C  C68  1  0.83260000  0.41560000  0.89820000  1.0 -0.1082139342
C  C69  1  0.86830000  0.42780000  0.87080000  1.0 -0.1477653214
C  C70  1  0.86790000  0.38720000  0.85240000  1.0 0.0651011938
C  C71  1  0.84110000  0.33940000  0.86720000  1.0 -0.1434575984
C  C72  1  0.80660000  0.33410000  0.89580000  1.0 -0.1082139342
C  C73  1  0.91130000  0.40010000  0.82160000  1.0 0.1127513809
C  C74  1  0.93840000  0.44810000  0.79990000  1.0 -0.2232477871
C  C75  1  0.97290000  0.45580000  0.77260000  1.0 -0.0106351806
C  C76  1  0.98060000  0.41750000  0.76400000  1.0 -0.0106351806
C  C77  1  0.96000000  0.37150000  0.78350000  1.0 -0.1477653214
C  C78  1  0.92110000  0.36060000  0.81190000  1.0 -0.190004011
C  C79  1  0.63650000  0.23220000  0.55210000  1.0 0.6056243185
C  C80  1  0.62980000  0.19750000  0.58650000  1.0 -0.0106351806
C  C81  1  0.58440000  0.16740000  0.60180000  1.0 -0.1082139342
C  C82  1  0.57220000  0.13170000  0.62920000  1.0 -0.1477653214
C  C83  1  0.61280000  0.13210000  0.64760000  1.0 0.0642174918
C  C84  1  0.66060000  0.15890000  0.63280000  1.0 -0.1434575984
C  C85  1  0.66590000  0.19340000  0.60420000  1.0 -0.1082139342
C  C86  1  0.59990000  0.08870000  0.67840000  1.0 0.1127513809
C  C87  1  0.55190000  0.06160000  0.70010000  1.0 -0.2232477871
C  C88  1  0.54420000  0.02710000  0.72740000  1.0 -0.0106351806
C  C89  1  0.58250000  0.01940000  0.73600000  1.0 -0.0106351806
C  C90  1  0.62850000  0.04000000  0.71650000  1.0 -0.1477653214
C  C91  1  0.63940000  0.07890000  0.68810000  1.0 -0.190004011
C  C92  1  0.76780000  0.40430000  0.55210000  1.0 0.6056243185
C  C93  1  0.80250000  0.43230000  0.58650000  1.0 -0.0106351806
C  C94  1  0.83260000  0.41700000  0.60180000  1.0 -0.1082139342
C  C95  1  0.86830000  0.44050000  0.62920000  1.0 -0.1477653214
C  C96  1  0.86790000  0.48070000  0.64760000  1.0 0.0642174918
C  C97  1  0.84110000  0.50170000  0.63280000  1.0 -0.1434575984
C  C98  1  0.80660000  0.47250000  0.60420000  1.0 -0.1082139342
C  C99  1  0.91130000  0.51120000  0.67840000  1.0 0.1127513809
C  C100  1  0.93840000  0.49030000  0.70010000  1.0 -0.2232477871
C  C101  1  0.97290000  0.51710000  0.72740000  1.0 -0.0106351806
C  C102  1  0.98060000  0.56310000  0.73600000  1.0 -0.0047041402
C  C103  1  0.96000000  0.58850000  0.71650000  1.0 -0.1477653214
C  C104  1  0.92110000  0.56050000  0.68810000  1.0 -0.190004011
C  C105  1  0.59570000  0.36350000  0.55210000  1.0 0.6056243185
C  C106  1  0.56770000  0.37020000  0.58650000  1.0 -0.0106351806
C  C107  1  0.58300000  0.41560000  0.60180000  1.0 -0.1082139342
C  C108  1  0.55950000  0.42780000  0.62920000  1.0 -0.1477653214
C  C109  1  0.51930000  0.38720000  0.64760000  1.0 0.0642174918
C  C110  1  0.49830000  0.33940000  0.63280000  1.0 -0.1434575984
C  C111  1  0.52750000  0.33410000  0.60420000  1.0 -0.1082139342
C  C112  1  0.48880000  0.40010000  0.67840000  1.0 0.1127513809
C  C113  1  0.50970000  0.44810000  0.70010000  1.0 -0.2232477871
C  C114  1  0.48290000  0.45580000  0.72740000  1.0 -0.0106351806
C  C115  1  0.43690000  0.41750000  0.73600000  1.0 -0.0106351806
C  C116  1  0.41150000  0.37150000  0.71650000  1.0 -0.1477653214
C  C117  1  0.43950000  0.36060000  0.68810000  1.0 -0.190004011
C  C118  1  0.36350000  0.76780000  0.55210000  1.0 0.6056243185
C  C119  1  0.37020000  0.80250000  0.58650000  1.0 -0.0106351806
C  C120  1  0.41560000  0.83260000  0.60180000  1.0 -0.1082139342
C  C121  1  0.42780000  0.86830000  0.62920000  1.0 -0.1477653214
C  C122  1  0.38720000  0.86790000  0.64760000  1.0 0.0642174918
C  C123  1  0.33940000  0.84110000  0.63280000  1.0 -0.1434575984
C  C124  1  0.33410000  0.80660000  0.60420000  1.0 -0.1082139342
C  C125  1  0.40010000  0.91130000  0.67840000  1.0 0.1127513809
C  C126  1  0.44810000  0.93840000  0.70010000  1.0 -0.2232477871
C  C127  1  0.45580000  0.97290000  0.72740000  1.0 -0.0106351806
C  C128  1  0.41750000  0.98060000  0.73600000  1.0 -0.0047041402
C  C129  1  0.37150000  0.96000000  0.71650000  1.0 -0.1477653214
C  C130  1  0.36060000  0.92110000  0.68810000  1.0 -0.190004011
C  C131  1  0.23220000  0.59570000  0.55210000  1.0 0.6056243185
C  C132  1  0.19750000  0.56770000  0.58650000  1.0 -0.0106351806
C  C133  1  0.16740000  0.58300000  0.60180000  1.0 -0.1082139342
C  C134  1  0.13170000  0.55950000  0.62920000  1.0 -0.1477653214
C  C135  1  0.13210000  0.51930000  0.64760000  1.0 0.0642174918
C  C136  1  0.15890000  0.49830000  0.63280000  1.0 -0.1434575984
C  C137  1  0.19340000  0.52750000  0.60420000  1.0 -0.1082139342
C  C138  1  0.08870000  0.48880000  0.67840000  1.0 0.1127513809
C  C139  1  0.06160000  0.50970000  0.70010000  1.0 -0.2232477871
C  C140  1  0.02710000  0.48290000  0.72740000  1.0 -0.0106351806
C  C141  1  0.01940000  0.43690000  0.73600000  1.0 -0.0106351806
C  C142  1  0.04000000  0.41150000  0.71650000  1.0 -0.1477653214
C  C143  1  0.07890000  0.43950000  0.68810000  1.0 -0.190004011
C  C144  1  0.40430000  0.63650000  0.55210000  1.0 0.6056243185
C  C145  1  0.43230000  0.62980000  0.58650000  1.0 -0.0106351806
C  C146  1  0.41700000  0.58440000  0.60180000  1.0 -0.1082139342
C  C147  1  0.44050000  0.57220000  0.62920000  1.0 -0.1477653214
C  C148  1  0.48070000  0.61280000  0.64760000  1.0 0.0651011938
C  C149  1  0.50170000  0.66060000  0.63280000  1.0 -0.1434575984
C  C150  1  0.47250000  0.66590000  0.60420000  1.0 -0.1082139342
C  C151  1  0.51120000  0.59990000  0.67840000  1.0 0.1127513809
C  C152  1  0.49030000  0.55190000  0.70010000  1.0 -0.2232477871
C  C153  1  0.51710000  0.54420000  0.72740000  1.0 -0.0106351806
C  C154  1  0.56310000  0.58250000  0.73600000  1.0 -0.0106351806
C  C155  1  0.58850000  0.62850000  0.71650000  1.0 -0.1477653214
C  C156  1  0.56050000  0.63940000  0.68810000  1.0 -0.190004011
C  C157  1  0.59570000  0.23220000  0.05210000  1.0 0.6046982655
C  C158  1  0.56770000  0.19750000  0.08650000  1.0 -0.0106351806
C  C159  1  0.58300000  0.16740000  0.10180000  1.0 -0.1082139342
C  C160  1  0.55950000  0.13170000  0.12920000  1.0 -0.1477653214
C  C161  1  0.51930000  0.13210000  0.14760000  1.0 0.0642174918
C  C162  1  0.49830000  0.15890000  0.13280000  1.0 -0.1434575984
C  C163  1  0.52750000  0.19340000  0.10420000  1.0 -0.1082139342
C  C164  1  0.48880000  0.08870000  0.17840000  1.0 0.1127513809
C  C165  1  0.50970000  0.06160000  0.20010000  1.0 -0.2232477871
C  C166  1  0.48290000  0.02710000  0.22740000  1.0 -0.0106351806
C  C167  1  0.43690000  0.01940000  0.23600000  1.0 -0.0047041402
C  C168  1  0.41150000  0.04000000  0.21650000  1.0 -0.1477653214
C  C169  1  0.43950000  0.07890000  0.18810000  1.0 -0.190004011
C  C170  1  0.63650000  0.40430000  0.05210000  1.0 0.6046982655
C  C171  1  0.62980000  0.43230000  0.08650000  1.0 -0.0106351806
C  C172  1  0.58440000  0.41700000  0.10180000  1.0 -0.1082139342
C  C173  1  0.57220000  0.44050000  0.12920000  1.0 -0.1477653214
C  C174  1  0.61280000  0.48070000  0.14760000  1.0 0.0642174918
C  C175  1  0.66060000  0.50170000  0.13280000  1.0 -0.1434575984
C  C176  1  0.66590000  0.47250000  0.10420000  1.0 -0.1082139342
C  C177  1  0.59990000  0.51120000  0.17840000  1.0 0.1127513809
C  C178  1  0.55190000  0.49030000  0.20010000  1.0 -0.2232477871
C  C179  1  0.54420000  0.51710000  0.22740000  1.0 -0.0106351806
C  C180  1  0.58250000  0.56310000  0.23600000  1.0 -0.0047041402
C  C181  1  0.62850000  0.58850000  0.21650000  1.0 -0.1477653214
C  C182  1  0.63940000  0.56050000  0.18810000  1.0 -0.190004011
C  C183  1  0.76780000  0.36350000  0.05210000  1.0 0.6056243185
C  C184  1  0.80250000  0.37020000  0.08650000  1.0 -0.0106351806
C  C185  1  0.83260000  0.41560000  0.10180000  1.0 -0.1082139342
C  C186  1  0.86830000  0.42780000  0.12920000  1.0 -0.1477653214
C  C187  1  0.86790000  0.38720000  0.14760000  1.0 0.0642174918
C  C188  1  0.84110000  0.33940000  0.13280000  1.0 -0.1434575984
C  C189  1  0.80660000  0.33410000  0.10420000  1.0 -0.1082139342
C  C190  1  0.91130000  0.40010000  0.17840000  1.0 0.1127513809
C  C191  1  0.93840000  0.44810000  0.20010000  1.0 -0.2232477871
C  C192  1  0.97290000  0.45580000  0.22740000  1.0 -0.0106351806
C  C193  1  0.98060000  0.41750000  0.23600000  1.0 -0.0047041402
C  C194  1  0.96000000  0.37150000  0.21650000  1.0 -0.1477653214
C  C195  1  0.92110000  0.36060000  0.18810000  1.0 -0.190004011
C  C196  1  0.40430000  0.76780000  0.05210000  1.0 0.6056243185
C  C197  1  0.43230000  0.80250000  0.08650000  1.0 -0.0106351806
C  C198  1  0.41700000  0.83260000  0.10180000  1.0 -0.1082139342
C  C199  1  0.44050000  0.86830000  0.12920000  1.0 -0.1477653214
C  C200  1  0.48070000  0.86790000  0.14760000  1.0 0.0642174918
C  C201  1  0.50170000  0.84110000  0.13280000  1.0 -0.1434575984
C  C202  1  0.47250000  0.80660000  0.10420000  1.0 -0.1082139342
C  C203  1  0.51120000  0.91130000  0.17840000  1.0 0.1127513809
C  C204  1  0.49030000  0.93840000  0.20010000  1.0 -0.2232477871
C  C205  1  0.51710000  0.97290000  0.22740000  1.0 -0.0106351806
C  C206  1  0.56310000  0.98060000  0.23600000  1.0 -0.0047041402
C  C207  1  0.58850000  0.96000000  0.21650000  1.0 -0.1477653214
C  C208  1  0.56050000  0.92110000  0.18810000  1.0 -0.190004011
C  C209  1  0.36350000  0.59570000  0.05210000  1.0 0.6056243185
C  C210  1  0.37020000  0.56770000  0.08650000  1.0 -0.0106351806
C  C211  1  0.41560000  0.58300000  0.10180000  1.0 -0.1082139342
C  C212  1  0.42780000  0.55950000  0.12920000  1.0 -0.1477653214
C  C213  1  0.38720000  0.51930000  0.14760000  1.0 0.0642174918
C  C214  1  0.33940000  0.49830000  0.13280000  1.0 -0.1434575984
C  C215  1  0.33410000  0.52750000  0.10420000  1.0 -0.1082139342
C  C216  1  0.40010000  0.48880000  0.17840000  1.0 0.1127513809
C  C217  1  0.44810000  0.50970000  0.20010000  1.0 -0.2232477871
C  C218  1  0.45580000  0.48290000  0.22740000  1.0 -0.0106351806
C  C219  1  0.41750000  0.43690000  0.23600000  1.0 -0.0106351806
C  C220  1  0.37150000  0.41150000  0.21650000  1.0 -0.1477653214
C  C221  1  0.36060000  0.43950000  0.18810000  1.0 -0.190004011
C  C222  1  0.23220000  0.63650000  0.05210000  1.0 0.6056243185
C  C223  1  0.19750000  0.62980000  0.08650000  1.0 -0.0106351806
C  C224  1  0.16740000  0.58440000  0.10180000  1.0 -0.1082139342
C  C225  1  0.13170000  0.57220000  0.12920000  1.0 -0.1477653214
C  C226  1  0.13210000  0.61280000  0.14760000  1.0 0.0642174918
C  C227  1  0.15890000  0.66060000  0.13280000  1.0 -0.1434575984
C  C228  1  0.19340000  0.66590000  0.10420000  1.0 -0.1082139342
C  C229  1  0.08870000  0.59990000  0.17840000  1.0 0.1127513809
C  C230  1  0.06160000  0.55190000  0.20010000  1.0 -0.2232477871
C  C231  1  0.02710000  0.54420000  0.22740000  1.0 -0.0106351806
C  C232  1  0.01940000  0.58250000  0.23600000  1.0 -0.0106351806
C  C233  1  0.04000000  0.62850000  0.21650000  1.0 -0.1477653214
C  C234  1  0.07890000  0.63940000  0.18810000  1.0 -0.190004011
C  C235  1  0.36350000  0.76780000  0.44790000  1.0 0.6056243185
C  C236  1  0.37020000  0.80250000  0.41350000  1.0 -0.0106351806
C  C237  1  0.41560000  0.83260000  0.39820000  1.0 -0.1082139342
C  C238  1  0.42780000  0.86830000  0.37080000  1.0 -0.1477653214
C  C239  1  0.38720000  0.86790000  0.35240000  1.0 0.0642174918
C  C240  1  0.33940000  0.84110000  0.36720000  1.0 -0.1434575984
C  C241  1  0.33410000  0.80660000  0.39580000  1.0 -0.1082139342
C  C242  1  0.40010000  0.91130000  0.32160000  1.0 0.1127513809
C  C243  1  0.44810000  0.93840000  0.29990000  1.0 -0.2232477871
C  C244  1  0.45580000  0.97290000  0.27260000  1.0 -0.0106351806
C  C245  1  0.41750000  0.98060000  0.26400000  1.0 -0.0047041402
C  C246  1  0.37150000  0.96000000  0.28350000  1.0 -0.1477653214
C  C247  1  0.36060000  0.92110000  0.31190000  1.0 -0.190004011
C  C248  1  0.23220000  0.59570000  0.44790000  1.0 0.6056243185
C  C249  1  0.19750000  0.56770000  0.41350000  1.0 -0.0106351806
C  C250  1  0.16740000  0.58300000  0.39820000  1.0 -0.1082139342
C  C251  1  0.13170000  0.55950000  0.37080000  1.0 -0.1477653214
C  C252  1  0.13210000  0.51930000  0.35240000  1.0 0.0642174918
C  C253  1  0.15890000  0.49830000  0.36720000  1.0 -0.1434575984
C  C254  1  0.19340000  0.52750000  0.39580000  1.0 -0.1082139342
C  C255  1  0.08870000  0.48880000  0.32160000  1.0 0.1127513809
C  C256  1  0.06160000  0.50970000  0.29990000  1.0 -0.2232477871
C  C257  1  0.02710000  0.48290000  0.27260000  1.0 -0.0106351806
C  C258  1  0.01940000  0.43690000  0.26400000  1.0 -0.0106351806
C  C259  1  0.04000000  0.41150000  0.28350000  1.0 -0.1477653214
C  C260  1  0.07890000  0.43950000  0.31190000  1.0 -0.190004011
C  C261  1  0.40430000  0.63650000  0.44790000  1.0 0.6056243185
C  C262  1  0.43230000  0.62980000  0.41350000  1.0 -0.0106351806
C  C263  1  0.41700000  0.58440000  0.39820000  1.0 -0.1082139342
C  C264  1  0.44050000  0.57220000  0.37080000  1.0 -0.1477653214
C  C265  1  0.48070000  0.61280000  0.35240000  1.0 0.0651011938
C  C266  1  0.50170000  0.66060000  0.36720000  1.0 -0.1434575984
C  C267  1  0.47250000  0.66590000  0.39580000  1.0 -0.1082139342
C  C268  1  0.51120000  0.59990000  0.32160000  1.0 0.1127513809
C  C269  1  0.49030000  0.55190000  0.29990000  1.0 -0.2232477871
C  C270  1  0.51710000  0.54420000  0.27260000  1.0 -0.0106351806
C  C271  1  0.56310000  0.58250000  0.26400000  1.0 -0.0106351806
C  C272  1  0.58850000  0.62850000  0.28350000  1.0 -0.1477653214
C  C273  1  0.56050000  0.63940000  0.31190000  1.0 -0.190004011
C  C274  1  0.63650000  0.23220000  0.44790000  1.0 0.6056243185
C  C275  1  0.62980000  0.19750000  0.41350000  1.0 -0.0106351806
C  C276  1  0.58440000  0.16740000  0.39820000  1.0 -0.1082139342
C  C277  1  0.57220000  0.13170000  0.37080000  1.0 -0.1477653214
C  C278  1  0.61280000  0.13210000  0.35240000  1.0 0.0642174918
C  C279  1  0.66060000  0.15890000  0.36720000  1.0 -0.1434575984
C  C280  1  0.66590000  0.19340000  0.39580000  1.0 -0.1082139342
C  C281  1  0.59990000  0.08870000  0.32160000  1.0 0.1127513809
C  C282  1  0.55190000  0.06160000  0.29990000  1.0 -0.2232477871
C  C283  1  0.54420000  0.02710000  0.27260000  1.0 -0.0106351806
C  C284  1  0.58250000  0.01940000  0.26400000  1.0 -0.0106351806
C  C285  1  0.62850000  0.04000000  0.28350000  1.0 -0.1477653214
C  C286  1  0.63940000  0.07890000  0.31190000  1.0 -0.190004011
C  C287  1  0.76780000  0.40430000  0.44790000  1.0 0.6056243185
C  C288  1  0.80250000  0.43230000  0.41350000  1.0 -0.0106351806
C  C289  1  0.83260000  0.41700000  0.39820000  1.0 -0.1082139342
C  C290  1  0.86830000  0.44050000  0.37080000  1.0 -0.1477653214
C  C291  1  0.86790000  0.48070000  0.35240000  1.0 0.0642174918
C  C292  1  0.84110000  0.50170000  0.36720000  1.0 -0.1434575984
C  C293  1  0.80660000  0.47250000  0.39580000  1.0 -0.1082139342
C  C294  1  0.91130000  0.51120000  0.32160000  1.0 0.1127513809
C  C295  1  0.93840000  0.49030000  0.29990000  1.0 -0.2232477871
C  C296  1  0.97290000  0.51710000  0.27260000  1.0 -0.0106351806
C  C297  1  0.98060000  0.56310000  0.26400000  1.0 -0.0047041402
C  C298  1  0.96000000  0.58850000  0.28350000  1.0 -0.1477653214
C  C299  1  0.92110000  0.56050000  0.31190000  1.0 -0.190004011
C  C300  1  0.59570000  0.36350000  0.44790000  1.0 0.6056243185
C  C301  1  0.56770000  0.37020000  0.41350000  1.0 -0.0106351806
C  C302  1  0.58300000  0.41560000  0.39820000  1.0 -0.1082139342
C  C303  1  0.55950000  0.42780000  0.37080000  1.0 -0.1477653214
C  C304  1  0.51930000  0.38720000  0.35240000  1.0 0.0642174918
C  C305  1  0.49830000  0.33940000  0.36720000  1.0 -0.1434575984
C  C306  1  0.52750000  0.33410000  0.39580000  1.0 -0.1082139342
C  C307  1  0.48880000  0.40010000  0.32160000  1.0 0.1127513809
C  C308  1  0.50970000  0.44810000  0.29990000  1.0 -0.2232477871
C  C309  1  0.48290000  0.45580000  0.27260000  1.0 -0.0106351806
C  C310  1  0.43690000  0.41750000  0.26400000  1.0 -0.0106351806
C  C311  1  0.41150000  0.37150000  0.28350000  1.0 -0.1477653214
C  C312  1  0.43950000  0.36060000  0.31190000  1.0 -0.190004011
C  C313  1  0.50000000  0.00000000  0.75000000  1.0 0.0060483893
C  C314  1  0.50000000  0.50000000  0.75000000  1.0 0.0060483893
C  C315  1  0.00000000  0.50000000  0.75000000  1.0 0.0042094603
C  C316  1  0.50000000  0.00000000  0.25000000  1.0 0.0060483893
C  C317  1  0.50000000  0.50000000  0.25000000  1.0 0.0060483893
C  C318  1  0.00000000  0.50000000  0.25000000  1.0 0.0042094603
O  O1  1  0.42730000  0.74360000  0.95681000  1.0 -0.5801483443
O  O2  1  0.36570000  0.76540000  0.95866000  1.0 -0.5038658185
O  O3  1  0.31630000  0.57270000  0.95681000  1.0 -0.5801483443
O  O4  1  0.39970000  0.63430000  0.95866000  1.0 -0.5038658185
O  O5  1  0.25640000  0.68370000  0.95681000  1.0 -0.5801483443
O  O6  1  0.23460000  0.60030000  0.95866000  1.0 -0.5038658185
O  O7  1  0.57270000  0.25640000  0.95681000  1.0 -0.5801483443
O  O8  1  0.63430000  0.23460000  0.95866000  1.0 -0.5038658185
O  O9  1  0.68370000  0.42730000  0.95681000  1.0 -0.5801483443
O  O10  1  0.60030000  0.36570000  0.95866000  1.0 -0.5054599991
O  O11  1  0.74360000  0.31630000  0.95681000  1.0 -0.5801483443
O  O12  1  0.76540000  0.39970000  0.95866000  1.0 -0.5038658185
O  O13  1  0.68370000  0.25640000  0.54319000  1.0 -0.5801483443
O  O14  1  0.60030000  0.23460000  0.54134000  1.0 -0.5038658185
O  O15  1  0.74360000  0.42730000  0.54319000  1.0 -0.5801483443
O  O16  1  0.76540000  0.36570000  0.54134000  1.0 -0.5054599991
O  O17  1  0.57270000  0.31630000  0.54319000  1.0 -0.5801483443
O  O18  1  0.63430000  0.39970000  0.54134000  1.0 -0.5054599991
O  O19  1  0.31630000  0.74360000  0.54319000  1.0 -0.5801483443
O  O20  1  0.39970000  0.76540000  0.54134000  1.0 -0.5038658185
O  O21  1  0.25640000  0.57270000  0.54319000  1.0 -0.5801483443
O  O22  1  0.23460000  0.63430000  0.54134000  1.0 -0.5038658185
O  O23  1  0.42730000  0.68370000  0.54319000  1.0 -0.5801483443
O  O24  1  0.36570000  0.60030000  0.54134000  1.0 -0.5038658185
O  O25  1  0.57270000  0.25640000  0.04319000  1.0 -0.5801483443
O  O26  1  0.63430000  0.23460000  0.04134000  1.0 -0.5054599991
O  O27  1  0.68370000  0.42730000  0.04319000  1.0 -0.5801483443
O  O28  1  0.60030000  0.36570000  0.04134000  1.0 -0.5054599991
O  O29  1  0.74360000  0.31630000  0.04319000  1.0 -0.5801483443
O  O30  1  0.76540000  0.39970000  0.04134000  1.0 -0.5038658185
O  O31  1  0.42730000  0.74360000  0.04319000  1.0 -0.5801483443
O  O32  1  0.36570000  0.76540000  0.04134000  1.0 -0.5038658185
O  O33  1  0.31630000  0.57270000  0.04319000  1.0 -0.5801483443
O  O34  1  0.39970000  0.63430000  0.04134000  1.0 -0.5038658185
O  O35  1  0.25640000  0.68370000  0.04319000  1.0 -0.5801483443
O  O36  1  0.23460000  0.60030000  0.04134000  1.0 -0.5038658185
O  O37  1  0.31630000  0.74360000  0.45681000  1.0 -0.5801483443
O  O38  1  0.39970000  0.76540000  0.45866000  1.0 -0.5038658185
O  O39  1  0.25640000  0.57270000  0.45681000  1.0 -0.5801483443
O  O40  1  0.23460000  0.63430000  0.45866000  1.0 -0.5038658185
O  O41  1  0.42730000  0.68370000  0.45681000  1.0 -0.5801483443
O  O42  1  0.36570000  0.60030000  0.45866000  1.0 -0.5038658185
O  O43  1  0.68370000  0.25640000  0.45681000  1.0 -0.5801483443
O  O44  1  0.60030000  0.23460000  0.45866000  1.0 -0.5038658185
O  O45  1  0.74360000  0.42730000  0.45681000  1.0 -0.5801483443
O  O46  1  0.76540000  0.36570000  0.45866000  1.0 -0.5054599991
O  O47  1  0.57270000  0.31630000  0.45681000  1.0 -0.5801483443
O  O48  1  0.63430000  0.39970000  0.45866000  1.0 -0.5054599991
O  O49  1  0.33333333  0.66666667  0.00000000  1.0 -1.0784424892
O  O50  1  0.66666667  0.33333333  0.00000000  1.0 -1.0784424892
O  O51  1  0.66666667  0.33333333  0.50000000  1.0 -1.0784424892
O  O52  1  0.33333333  0.66666667  0.50000000  1.0 -1.0784424892
