# DDEC6 charges by PACMAN v1.1 (https://github.com/mtap-research/PACMAN-charge/)
data_QOTKOC03_FSR_pacman
_symmetry_space_group_name_H-M   'P 1'
_cell_length_a   14.14210000
_cell_length_b   14.14210000
_cell_length_c   17.32050000
_cell_angle_alpha   90.00000000
_cell_angle_beta   90.00000000
_cell_angle_gamma   120.00000000
_symmetry_Int_Tables_number   1
_chemical_formula_structural   In6H84C159O32
_chemical_formula_sum   'In36 H504 C954 O192'
_cell_volume   2999.98348741
_cell_formula_units_Z   6
loop_
 _symmetry_equiv_pos_site_id
 _symmetry_equiv_pos_as_xyz
  1  'x, y, z'
loop_
 _atom_site_type_symbol
 _atom_site_label
 _atom_site_symmetry_multiplicity
 _atom_site_fract_x
 _atom_site_fract_y
 _atom_site_fract_z
 _atom_site_occupancy
 _atom_site_charge
In  In1  1  0.36369000  0.32316000  0.32316000  1.0 0.1591168935
In  In2  1  0.03036000  0.65649000  0.65649000  1.0 0.1591168935
In  In3  1  0.69703000  0.98982000  0.98982000  1.0 0.1591168935
In  In4  1  0.29280000  0.30297000  0.30297000  1.0 0.1684091394
In  In5  1  0.95946000  0.63631000  0.63631000  1.0 0.1684091394
In  In6  1  0.62613000  0.96964000  0.96964000  1.0 0.1684091394
In  In7  1  0.34351000  0.37387000  0.37387000  1.0 0.1591168935
In  In8  1  0.01018000  0.70720000  0.70720000  1.0 0.1591168935
In  In9  1  0.67684000  0.04054000  0.04054000  1.0 0.1591168935
In  In10  1  0.96964000  0.34351000  0.34351000  1.0 0.1591168935
In  In11  1  0.63631000  0.67684000  0.67684000  1.0 0.1591168935
In  In12  1  0.30297000  0.01018000  0.01018000  1.0 0.1591168935
In  In13  1  0.04054000  0.36369000  0.36369000  1.0 0.1684091394
In  In14  1  0.70720000  0.69703000  0.69703000  1.0 0.1684091394
In  In15  1  0.37387000  0.03036000  0.03036000  1.0 0.1684091394
In  In16  1  0.98982000  0.29280000  0.29280000  1.0 0.1591168935
In  In17  1  0.65649000  0.62613000  0.62613000  1.0 0.1591168935
In  In18  1  0.32316000  0.95946000  0.95946000  1.0 0.1591168935
In  In19  1  0.86369000  0.04054000  0.54054000  1.0 0.1591168935
In  In20  1  0.53036000  0.37387000  0.87387000  1.0 0.1591168935
In  In21  1  0.19703000  0.70720000  0.20720000  1.0 0.1591168935
In  In22  1  0.79280000  0.98982000  0.48982000  1.0 0.1591168935
In  In23  1  0.45946000  0.32316000  0.82316000  1.0 0.1591168935
In  In24  1  0.12613000  0.65649000  0.15649000  1.0 0.1684091394
In  In25  1  0.84351000  0.96964000  0.46964000  1.0 0.1684091394
In  In26  1  0.51018000  0.30297000  0.80297000  1.0 0.1684091394
In  In27  1  0.17684000  0.63631000  0.13631000  1.0 0.1684091394
In  In28  1  0.13631000  0.95946000  0.45946000  1.0 0.1591168935
In  In29  1  0.80297000  0.29280000  0.79280000  1.0 0.1591168935
In  In30  1  0.46964000  0.62613000  0.12613000  1.0 0.1591168935
In  In31  1  0.20720000  0.01018000  0.51018000  1.0 0.1591168935
In  In32  1  0.87387000  0.34351000  0.84351000  1.0 0.1591168935
In  In33  1  0.54054000  0.67684000  0.17684000  1.0 0.1591168935
In  In34  1  0.15649000  0.03036000  0.53036000  1.0 0.1684091394
In  In35  1  0.82316000  0.36369000  0.86369000  1.0 0.1684091394
In  In36  1  0.48982000  0.69703000  0.19703000  1.0 0.1684091394
H  H1  1  0.19230000  0.92750000  0.73640000  1.0 0.0695720223
H  H2  1  0.85897000  0.26083000  0.06973000  1.0 0.0695720223
H  H3  1  0.52563000  0.59417000  0.40307000  1.0 0.0695720223
H  H4  1  0.21610000  0.86380000  0.69070000  1.0 0.0695720223
H  H5  1  0.88277000  0.19713000  0.02403000  1.0 0.0695720223
H  H6  1  0.54943000  0.53047000  0.35737000  1.0 0.0695720223
H  H7  1  0.12210000  0.76210000  0.66390000  1.0 0.1219340256
H  H8  1  0.78877000  0.09543000  0.99723000  1.0 0.1219340256
H  H9  1  0.45543000  0.42877000  0.33057000  1.0 0.1219340256
H  H10  1  0.17127000  0.81913000  0.67223000  1.0 0.0695720223
H  H11  1  0.83793000  0.15247000  0.00557000  1.0 0.0695720223
H  H12  1  0.50460000  0.48580000  0.33890000  1.0 0.0695720223
H  H13  1  0.10290000  0.81940000  0.72740000  1.0 0.1011311604
H  H14  1  0.76957000  0.15273000  0.06073000  1.0 0.1011311604
H  H15  1  0.43623000  0.48607000  0.39407000  1.0 0.1011311604
H  H16  1  0.15227000  0.87463000  0.73633000  1.0 0.0695720223
H  H17  1  0.81893000  0.20797000  0.06967000  1.0 0.0695720223
H  H18  1  0.48560000  0.54130000  0.40300000  1.0 0.0695720223
H  H19  1  0.26773000  0.92037000  0.70047000  1.0 0.079889038
H  H20  1  0.93440000  0.25370000  0.03380000  1.0 0.079889038
H  H21  1  0.60107000  0.58703000  0.36713000  1.0 0.079889038
H  H22  1  0.06853000  0.66547000  0.47437000  1.0 0.0695720223
H  H23  1  0.73520000  0.99880000  0.80770000  1.0 0.0695720223
H  H24  1  0.40187000  0.33213000  0.14103000  1.0 0.0695720223
H  H25  1  0.98103000  0.62367000  0.45057000  1.0 0.0926997426
H  H26  1  0.64770000  0.95700000  0.78390000  1.0 0.0926997426
H  H27  1  0.31437000  0.29033000  0.11723000  1.0 0.0926997426
H  H28  1  0.97333000  0.64277000  0.54457000  1.0 0.1011311604
H  H29  1  0.64000000  0.97610000  0.87790000  1.0 0.1011311604
H  H30  1  0.30667000  0.30943000  0.21123000  1.0 0.1011311604
H  H31  1  0.98120000  0.64230000  0.49540000  1.0 0.0695720223
H  H32  1  0.64787000  0.97563000  0.82873000  1.0 0.0695720223
H  H33  1  0.31453000  0.30897000  0.16207000  1.0 0.0695720223
H  H34  1  0.04983000  0.65577000  0.56377000  1.0 0.1104708763
H  H35  1  0.71650000  0.98910000  0.89710000  1.0 0.1104708763
H  H36  1  0.38317000  0.32243000  0.23043000  1.0 0.1104708763
H  H37  1  0.05570000  0.65270000  0.51440000  1.0 0.079889038
H  H38  1  0.72237000  0.98603000  0.84773000  1.0 0.079889038
H  H39  1  0.38903000  0.31937000  0.18107000  1.0 0.079889038
H  H40  1  0.98597000  0.61883000  0.39893000  1.0 0.079889038
H  H41  1  0.65263000  0.95217000  0.73227000  1.0 0.079889038
H  H42  1  0.31930000  0.28550000  0.06560000  1.0 0.079889038
H  H43  1  0.93027000  0.78923000  0.59813000  1.0 0.079889038
H  H44  1  0.59693000  0.12257000  0.93147000  1.0 0.079889038
H  H45  1  0.26360000  0.45590000  0.26480000  1.0 0.079889038
H  H46  1  0.97597000  0.85873000  0.68563000  1.0 0.079889038
H  H47  1  0.64263000  0.19207000  0.01897000  1.0 0.079889038
H  H48  1  0.30930000  0.52540000  0.35230000  1.0 0.079889038
H  H49  1  0.00277000  0.79153000  0.69333000  1.0 0.1104708763
H  H50  1  0.66943000  0.12487000  0.02667000  1.0 0.1104708763
H  H51  1  0.33610000  0.45820000  0.36000000  1.0 0.1104708763
H  H52  1  0.99443000  0.83237000  0.68547000  1.0 0.079889038
H  H53  1  0.66110000  0.16570000  0.01880000  1.0 0.079889038
H  H54  1  0.32777000  0.49903000  0.35213000  1.0 0.079889038
H  H55  1  0.93927000  0.70883000  0.61683000  1.0 0.1104708763
H  H56  1  0.60593000  0.04217000  0.95017000  1.0 0.1104708763
H  H57  1  0.27260000  0.37550000  0.28350000  1.0 0.1104708763
H  H58  1  0.93033000  0.74927000  0.61097000  1.0 0.079889038
H  H59  1  0.59700000  0.08260000  0.94430000  1.0 0.079889038
H  H60  1  0.26367000  0.41593000  0.27763000  1.0 0.079889038
H  H61  1  0.96620000  0.90060000  0.68070000  1.0 0.0926997426
H  H62  1  0.63287000  0.23393000  0.01403000  1.0 0.0926997426
H  H63  1  0.29953000  0.56727000  0.34737000  1.0 0.0926997426
H  H64  1  0.60177000  0.66063000  0.46953000  1.0 0.0695720223
H  H65  1  0.26843000  0.99397000  0.80287000  1.0 0.0695720223
H  H66  1  0.93510000  0.32730000  0.13620000  1.0 0.0695720223
H  H67  1  0.56597000  0.70033000  0.52723000  1.0 0.0695720223
H  H68  1  0.23263000  0.03367000  0.86057000  1.0 0.0695720223
H  H69  1  0.89930000  0.36700000  0.19390000  1.0 0.0695720223
H  H70  1  0.61003000  0.70217000  0.60397000  1.0 0.1219340256
H  H71  1  0.27670000  0.03550000  0.93730000  1.0 0.1219340256
H  H72  1  0.94337000  0.36883000  0.27063000  1.0 0.1219340256
H  H73  1  0.59333000  0.71007000  0.56317000  1.0 0.0695720223
H  H74  1  0.26000000  0.04340000  0.89650000  1.0 0.0695720223
H  H75  1  0.92667000  0.37673000  0.22983000  1.0 0.0695720223
H  H76  1  0.62510000  0.63660000  0.54460000  1.0 0.1011311604
H  H77  1  0.29177000  0.96993000  0.87793000  1.0 0.1011311604
H  H78  1  0.95843000  0.30327000  0.21127000  1.0 0.1011311604
H  H79  1  0.60660000  0.64310000  0.50480000  1.0 0.0695720223
H  H80  1  0.27327000  0.97643000  0.83813000  1.0 0.0695720223
H  H81  1  0.93993000  0.30977000  0.17147000  1.0 0.0695720223
H  H82  1  0.54553000  0.70617000  0.48627000  1.0 0.079889038
H  H83  1  0.21220000  0.03950000  0.81960000  1.0 0.079889038
H  H84  1  0.87887000  0.37283000  0.15293000  1.0 0.079889038
H  H85  1  0.72553000  0.92267000  0.73157000  1.0 0.0695720223
H  H86  1  0.39220000  0.25600000  0.06490000  1.0 0.0695720223
H  H87  1  0.05887000  0.58933000  0.39823000  1.0 0.0695720223
H  H88  1  0.80103000  0.94047000  0.76737000  1.0 0.0926997426
H  H89  1  0.46770000  0.27380000  0.10070000  1.0 0.0926997426
H  H90  1  0.13437000  0.60713000  0.43403000  1.0 0.0926997426
H  H91  1  0.75880000  0.82150000  0.72330000  1.0 0.1011311604
H  H92  1  0.42547000  0.15483000  0.05663000  1.0 0.1011311604
H  H93  1  0.09213000  0.48817000  0.38997000  1.0 0.1011311604
H  H94  1  0.78340000  0.88690000  0.74000000  1.0 0.0695720223
H  H95  1  0.45007000  0.22023000  0.07333000  1.0 0.0695720223
H  H96  1  0.11673000  0.55357000  0.40667000  1.0 0.0695720223
H  H97  1  0.67817000  0.80023000  0.70823000  1.0 0.1104708763
H  H98  1  0.34483000  0.13357000  0.04157000  1.0 0.1104708763
H  H99  1  0.01150000  0.46690000  0.37490000  1.0 0.1104708763
H  H100  1  0.70317000  0.86503000  0.72673000  1.0 0.079889038
H  H101  1  0.36983000  0.19837000  0.06007000  1.0 0.079889038
H  H102  1  0.03650000  0.53170000  0.39340000  1.0 0.079889038
H  H103  1  0.82730000  0.00770000  0.78780000  1.0 0.079889038
H  H104  1  0.49397000  0.34103000  0.12113000  1.0 0.079889038
H  H105  1  0.16063000  0.67437000  0.45447000  1.0 0.079889038
H  H106  1  0.86380000  0.79890000  0.60780000  1.0 0.079889038
H  H107  1  0.53047000  0.13223000  0.94113000  1.0 0.079889038
H  H108  1  0.19713000  0.46557000  0.27447000  1.0 0.079889038
H  H109  1  0.80610000  0.70540000  0.53230000  1.0 0.079889038
H  H110  1  0.47277000  0.03873000  0.86563000  1.0 0.079889038
H  H111  1  0.13943000  0.37207000  0.19897000  1.0 0.079889038
H  H112  1  0.72937000  0.67273000  0.57453000  1.0 0.1104708763
H  H113  1  0.39603000  0.00607000  0.90787000  1.0 0.1104708763
H  H114  1  0.06270000  0.33940000  0.24120000  1.0 0.1104708763
H  H115  1  0.77017000  0.69683000  0.54993000  1.0 0.079889038
H  H116  1  0.43683000  0.03017000  0.88327000  1.0 0.079889038
H  H117  1  0.10350000  0.36350000  0.21660000  1.0 0.079889038
H  H118  1  0.78873000  0.74717000  0.65517000  1.0 0.1104708763
H  H119  1  0.45540000  0.08050000  0.98850000  1.0 0.1104708763
H  H120  1  0.12207000  0.41383000  0.32183000  1.0 0.1104708763
H  H121  1  0.82853000  0.76847000  0.63017000  1.0 0.079889038
H  H122  1  0.49520000  0.10180000  0.96350000  1.0 0.079889038
H  H123  1  0.16187000  0.43513000  0.29683000  1.0 0.079889038
H  H124  1  0.84707000  0.72593000  0.50603000  1.0 0.0926997426
H  H125  1  0.51373000  0.05927000  0.83937000  1.0 0.0926997426
H  H126  1  0.18040000  0.39260000  0.17270000  1.0 0.0926997426
H  H127  1  0.89823000  0.86777000  0.55887000  1.0 0.079889038
H  H128  1  0.56490000  0.20110000  0.89220000  1.0 0.079889038
H  H129  1  0.23157000  0.53443000  0.22553000  1.0 0.079889038
H  H130  1  0.93403000  0.96127000  0.63437000  1.0 0.079889038
H  H131  1  0.60070000  0.29460000  0.96770000  1.0 0.079889038
H  H132  1  0.26737000  0.62793000  0.30103000  1.0 0.079889038
H  H133  1  0.88997000  0.99393000  0.59213000  1.0 0.1104708763
H  H134  1  0.55663000  0.32727000  0.92547000  1.0 0.1104708763
H  H135  1  0.22330000  0.66060000  0.25880000  1.0 0.1104708763
H  H136  1  0.90667000  0.96983000  0.61673000  1.0 0.079889038
H  H137  1  0.57333000  0.30317000  0.95007000  1.0 0.079889038
H  H138  1  0.24000000  0.63650000  0.28340000  1.0 0.079889038
H  H139  1  0.87490000  0.91950000  0.51150000  1.0 0.1104708763
H  H140  1  0.54157000  0.25283000  0.84483000  1.0 0.1104708763
H  H141  1  0.20823000  0.58617000  0.17817000  1.0 0.1104708763
H  H142  1  0.89340000  0.89820000  0.53650000  1.0 0.079889038
H  H143  1  0.56007000  0.23153000  0.86983000  1.0 0.079889038
H  H144  1  0.22673000  0.56487000  0.20317000  1.0 0.079889038
H  H145  1  0.95447000  0.94073000  0.66063000  1.0 0.0926997426
H  H146  1  0.62113000  0.27407000  0.99397000  1.0 0.0926997426
H  H147  1  0.28780000  0.60740000  0.32730000  1.0 0.0926997426
H  H148  1  0.77447000  0.00603000  0.69713000  1.0 0.0695720223
H  H149  1  0.44113000  0.33937000  0.03047000  1.0 0.0695720223
H  H150  1  0.10780000  0.67270000  0.36380000  1.0 0.0695720223
H  H151  1  0.69897000  0.96633000  0.63943000  1.0 0.0695720223
H  H152  1  0.36563000  0.29967000  0.97277000  1.0 0.0695720223
H  H153  1  0.03230000  0.63300000  0.30610000  1.0 0.0695720223
H  H154  1  0.74120000  0.96450000  0.56270000  1.0 0.1219340256
H  H155  1  0.40787000  0.29783000  0.89603000  1.0 0.1219340256
H  H156  1  0.07453000  0.63117000  0.22937000  1.0 0.1219340256
H  H157  1  0.71660000  0.95660000  0.60350000  1.0 0.0695720223
H  H158  1  0.38327000  0.28993000  0.93683000  1.0 0.0695720223
H  H159  1  0.04993000  0.62327000  0.27017000  1.0 0.0695720223
H  H160  1  0.82183000  0.03007000  0.62207000  1.0 0.1011311604
H  H161  1  0.48850000  0.36340000  0.95540000  1.0 0.1011311604
H  H162  1  0.15517000  0.69673000  0.28873000  1.0 0.1011311604
H  H163  1  0.79683000  0.02357000  0.66187000  1.0 0.0695720223
H  H164  1  0.46350000  0.35690000  0.99520000  1.0 0.0695720223
H  H165  1  0.13017000  0.69023000  0.32853000  1.0 0.0695720223
H  H166  1  0.67270000  0.96050000  0.68040000  1.0 0.079889038
H  H167  1  0.33937000  0.29383000  0.01373000  1.0 0.079889038
H  H168  1  0.00603000  0.62717000  0.34707000  1.0 0.079889038
H  H169  1  0.63620000  0.74400000  0.43510000  1.0 0.0695720223
H  H170  1  0.30287000  0.07733000  0.76843000  1.0 0.0695720223
H  H171  1  0.96953000  0.41067000  0.10177000  1.0 0.0695720223
H  H172  1  0.69390000  0.72620000  0.39930000  1.0 0.0926997426
H  H173  1  0.36057000  0.05953000  0.73263000  1.0 0.0926997426
H  H174  1  0.02723000  0.39287000  0.06597000  1.0 0.0926997426
H  H175  1  0.77063000  0.84517000  0.44337000  1.0 0.1011311604
H  H176  1  0.43730000  0.17850000  0.77670000  1.0 0.1011311604
H  H177  1  0.10397000  0.51183000  0.11003000  1.0 0.1011311604
H  H178  1  0.72983000  0.77977000  0.42667000  1.0 0.0695720223
H  H179  1  0.39650000  0.11310000  0.76000000  1.0 0.0695720223
H  H180  1  0.06317000  0.44643000  0.09333000  1.0 0.0695720223
H  H181  1  0.71127000  0.86643000  0.45843000  1.0 0.1104708763
H  H182  1  0.37793000  0.19977000  0.79177000  1.0 0.1104708763
H  H183  1  0.04460000  0.53310000  0.12510000  1.0 0.1104708763
H  H184  1  0.67147000  0.80163000  0.43993000  1.0 0.079889038
H  H185  1  0.33813000  0.13497000  0.77327000  1.0 0.079889038
H  H186  1  0.00480000  0.46830000  0.10660000  1.0 0.079889038
H  H187  1  0.65293000  0.65897000  0.37887000  1.0 0.079889038
H  H188  1  0.31960000  0.99230000  0.71220000  1.0 0.079889038
H  H189  1  0.98627000  0.32563000  0.04553000  1.0 0.079889038
H  H190  1  0.97437000  0.87743000  0.56853000  1.0 0.079889038
H  H191  1  0.64103000  0.21077000  0.90187000  1.0 0.079889038
H  H192  1  0.30770000  0.54410000  0.23520000  1.0 0.079889038
H  H193  1  0.95057000  0.80793000  0.48103000  1.0 0.079889038
H  H194  1  0.61723000  0.14127000  0.81437000  1.0 0.079889038
H  H195  1  0.28390000  0.47460000  0.14770000  1.0 0.079889038
H  H196  1  0.04457000  0.87513000  0.47333000  1.0 0.1104708763
H  H197  1  0.71123000  0.20847000  0.80667000  1.0 0.1104708763
H  H198  1  0.37790000  0.54180000  0.14000000  1.0 0.1104708763
H  H199  1  0.99540000  0.83430000  0.48120000  1.0 0.079889038
H  H200  1  0.66207000  0.16763000  0.81453000  1.0 0.079889038
H  H201  1  0.32873000  0.50097000  0.14787000  1.0 0.079889038
H  H202  1  0.06377000  0.95783000  0.54983000  1.0 0.1104708763
H  H203  1  0.73043000  0.29117000  0.88317000  1.0 0.1104708763
H  H204  1  0.39710000  0.62450000  0.21650000  1.0 0.1104708763
H  H205  1  0.01440000  0.91740000  0.55570000  1.0 0.079889038
H  H206  1  0.68107000  0.25073000  0.88903000  1.0 0.079889038
H  H207  1  0.34773000  0.58407000  0.22237000  1.0 0.079889038
H  H208  1  0.89893000  0.76607000  0.48597000  1.0 0.0926997426
H  H209  1  0.56560000  0.09940000  0.81930000  1.0 0.0926997426
H  H210  1  0.23227000  0.43273000  0.15263000  1.0 0.0926997426
H  H211  1  0.09813000  0.73917000  0.43027000  1.0 0.0695720223
H  H212  1  0.76480000  0.07250000  0.76360000  1.0 0.0695720223
H  H213  1  0.43147000  0.40583000  0.09693000  1.0 0.0695720223
H  H214  1  0.18563000  0.80287000  0.47597000  1.0 0.0695720223
H  H215  1  0.85230000  0.13620000  0.80930000  1.0 0.0695720223
H  H216  1  0.51897000  0.46953000  0.14263000  1.0 0.0695720223
H  H217  1  0.19333000  0.90457000  0.50277000  1.0 0.1219340256
H  H218  1  0.86000000  0.23790000  0.83610000  1.0 0.1219340256
H  H219  1  0.52667000  0.57123000  0.16943000  1.0 0.1219340256
H  H220  1  0.18547000  0.84753000  0.49443000  1.0 0.0695720223
H  H221  1  0.85213000  0.18087000  0.82777000  1.0 0.0695720223
H  H222  1  0.51880000  0.51420000  0.16110000  1.0 0.0695720223
H  H223  1  0.11683000  0.84727000  0.43927000  1.0 0.1011311604
H  H224  1  0.78350000  0.18060000  0.77260000  1.0 0.1011311604
H  H225  1  0.45017000  0.51393000  0.10593000  1.0 0.1011311604
H  H226  1  0.11097000  0.79203000  0.43033000  1.0 0.0695720223
H  H227  1  0.77763000  0.12537000  0.76367000  1.0 0.0695720223
H  H228  1  0.44430000  0.45870000  0.09700000  1.0 0.0695720223
H  H229  1  0.18070000  0.74630000  0.46620000  1.0 0.079889038
H  H230  1  0.84737000  0.07963000  0.79953000  1.0 0.079889038
H  H231  1  0.51403000  0.41297000  0.13287000  1.0 0.079889038
H  H232  1  0.23640000  0.00120000  0.69230000  1.0 0.0695720223
H  H233  1  0.90307000  0.33453000  0.02563000  1.0 0.0695720223
H  H234  1  0.56973000  0.66787000  0.35897000  1.0 0.0695720223
H  H235  1  0.19070000  0.04300000  0.71610000  1.0 0.0926997426
H  H236  1  0.85737000  0.37633000  0.04943000  1.0 0.0926997426
H  H237  1  0.52403000  0.70967000  0.38277000  1.0 0.0926997426
H  H238  1  0.16390000  0.02390000  0.62210000  1.0 0.1011311604
H  H239  1  0.83057000  0.35723000  0.95543000  1.0 0.1011311604
H  H240  1  0.49723000  0.69057000  0.28877000  1.0 0.1011311604
H  H241  1  0.17223000  0.02437000  0.67127000  1.0 0.0695720223
H  H242  1  0.83890000  0.35770000  0.00460000  1.0 0.0695720223
H  H243  1  0.50557000  0.69103000  0.33793000  1.0 0.0695720223
H  H244  1  0.22740000  0.01090000  0.60290000  1.0 0.1104708763
H  H245  1  0.89407000  0.34423000  0.93623000  1.0 0.1104708763
H  H246  1  0.56073000  0.67757000  0.26957000  1.0 0.1104708763
H  H247  1  0.23633000  0.01397000  0.65227000  1.0 0.079889038
H  H248  1  0.90300000  0.34730000  0.98560000  1.0 0.079889038
H  H249  1  0.56967000  0.68063000  0.31893000  1.0 0.079889038
H  H250  1  0.20047000  0.04783000  0.76773000  1.0 0.079889038
H  H251  1  0.86713000  0.38117000  0.10107000  1.0 0.079889038
H  H252  1  0.53380000  0.71450000  0.43440000  1.0 0.079889038
H  H253  1  0.80770000  0.07250000  0.26360000  1.0 0.0695720223
H  H254  1  0.47437000  0.40583000  0.59693000  1.0 0.0695720223
H  H255  1  0.14103000  0.73917000  0.93027000  1.0 0.0695720223
H  H256  1  0.78390000  0.13620000  0.30930000  1.0 0.0695720223
H  H257  1  0.45057000  0.46953000  0.64263000  1.0 0.0695720223
H  H258  1  0.11723000  0.80287000  0.97597000  1.0 0.0695720223
H  H259  1  0.87790000  0.23790000  0.33610000  1.0 0.1219340256
H  H260  1  0.54457000  0.57123000  0.66943000  1.0 0.1219340256
H  H261  1  0.21123000  0.90457000  0.00277000  1.0 0.1219340256
H  H262  1  0.82873000  0.18087000  0.32777000  1.0 0.0695720223
H  H263  1  0.49540000  0.51420000  0.66110000  1.0 0.0695720223
H  H264  1  0.16207000  0.84753000  0.99443000  1.0 0.0695720223
H  H265  1  0.89710000  0.18060000  0.27260000  1.0 0.1011311604
H  H266  1  0.56377000  0.51393000  0.60593000  1.0 0.1011311604
H  H267  1  0.23043000  0.84727000  0.93927000  1.0 0.1011311604
H  H268  1  0.84773000  0.12537000  0.26367000  1.0 0.0695720223
H  H269  1  0.51440000  0.45870000  0.59700000  1.0 0.0695720223
H  H270  1  0.18107000  0.79203000  0.93033000  1.0 0.0695720223
H  H271  1  0.73227000  0.07963000  0.29953000  1.0 0.079889038
H  H272  1  0.39893000  0.41297000  0.63287000  1.0 0.079889038
H  H273  1  0.06560000  0.74630000  0.96620000  1.0 0.079889038
H  H274  1  0.93147000  0.33453000  0.52563000  1.0 0.0695720223
H  H275  1  0.59813000  0.66787000  0.85897000  1.0 0.0695720223
H  H276  1  0.26480000  0.00120000  0.19230000  1.0 0.0695720223
H  H277  1  0.01897000  0.37633000  0.54943000  1.0 0.0926997426
H  H278  1  0.68563000  0.70967000  0.88277000  1.0 0.0926997426
H  H279  1  0.35230000  0.04300000  0.21610000  1.0 0.0926997426
H  H280  1  0.02667000  0.35723000  0.45543000  1.0 0.1011311604
H  H281  1  0.69333000  0.69057000  0.78877000  1.0 0.1011311604
H  H282  1  0.36000000  0.02390000  0.12210000  1.0 0.1011311604
H  H283  1  0.01880000  0.35770000  0.50460000  1.0 0.0695720223
H  H284  1  0.68547000  0.69103000  0.83793000  1.0 0.0695720223
H  H285  1  0.35213000  0.02437000  0.17127000  1.0 0.0695720223
H  H286  1  0.95017000  0.34423000  0.43623000  1.0 0.1104708763
H  H287  1  0.61683000  0.67757000  0.76957000  1.0 0.1104708763
H  H288  1  0.28350000  0.01090000  0.10290000  1.0 0.1104708763
H  H289  1  0.94430000  0.34730000  0.48560000  1.0 0.079889038
H  H290  1  0.61097000  0.68063000  0.81893000  1.0 0.079889038
H  H291  1  0.27763000  0.01397000  0.15227000  1.0 0.079889038
H  H292  1  0.01403000  0.38117000  0.60107000  1.0 0.079889038
H  H293  1  0.68070000  0.71450000  0.93440000  1.0 0.079889038
H  H294  1  0.34737000  0.04783000  0.26773000  1.0 0.079889038
H  H295  1  0.06973000  0.21077000  0.40187000  1.0 0.079889038
H  H296  1  0.73640000  0.54410000  0.73520000  1.0 0.079889038
H  H297  1  0.40307000  0.87743000  0.06853000  1.0 0.079889038
H  H298  1  0.02403000  0.14127000  0.31437000  1.0 0.079889038
H  H299  1  0.69070000  0.47460000  0.64770000  1.0 0.079889038
H  H300  1  0.35737000  0.80793000  0.98103000  1.0 0.079889038
H  H301  1  0.99723000  0.20847000  0.30667000  1.0 0.1104708763
H  H302  1  0.66390000  0.54180000  0.64000000  1.0 0.1104708763
H  H303  1  0.33057000  0.87513000  0.97333000  1.0 0.1104708763
H  H304  1  0.00557000  0.16763000  0.31453000  1.0 0.079889038
H  H305  1  0.67223000  0.50097000  0.64787000  1.0 0.079889038
H  H306  1  0.33890000  0.83430000  0.98120000  1.0 0.079889038
H  H307  1  0.06073000  0.29117000  0.38317000  1.0 0.1104708763
H  H308  1  0.72740000  0.62450000  0.71650000  1.0 0.1104708763
H  H309  1  0.39407000  0.95783000  0.04983000  1.0 0.1104708763
H  H310  1  0.06967000  0.25073000  0.38903000  1.0 0.079889038
H  H311  1  0.73633000  0.58407000  0.72237000  1.0 0.079889038
H  H312  1  0.40300000  0.91740000  0.05570000  1.0 0.079889038
H  H313  1  0.03380000  0.09940000  0.31930000  1.0 0.0926997426
H  H314  1  0.70047000  0.43273000  0.65263000  1.0 0.0926997426
H  H315  1  0.36713000  0.76607000  0.98597000  1.0 0.0926997426
H  H316  1  0.39823000  0.33937000  0.53047000  1.0 0.0695720223
H  H317  1  0.06490000  0.67270000  0.86380000  1.0 0.0695720223
H  H318  1  0.73157000  0.00603000  0.19713000  1.0 0.0695720223
H  H319  1  0.43403000  0.29967000  0.47277000  1.0 0.0695720223
H  H320  1  0.10070000  0.63300000  0.80610000  1.0 0.0695720223
H  H321  1  0.76737000  0.96633000  0.13943000  1.0 0.0695720223
H  H322  1  0.38997000  0.29783000  0.39603000  1.0 0.1219340256
H  H323  1  0.05663000  0.63117000  0.72937000  1.0 0.1219340256
H  H324  1  0.72330000  0.96450000  0.06270000  1.0 0.1219340256
H  H325  1  0.40667000  0.28993000  0.43683000  1.0 0.0695720223
H  H326  1  0.07333000  0.62327000  0.77017000  1.0 0.0695720223
H  H327  1  0.74000000  0.95660000  0.10350000  1.0 0.0695720223
H  H328  1  0.37490000  0.36340000  0.45540000  1.0 0.1011311604
H  H329  1  0.04157000  0.69673000  0.78873000  1.0 0.1011311604
H  H330  1  0.70823000  0.03007000  0.12207000  1.0 0.1011311604
H  H331  1  0.39340000  0.35690000  0.49520000  1.0 0.0695720223
H  H332  1  0.06007000  0.69023000  0.82853000  1.0 0.0695720223
H  H333  1  0.72673000  0.02357000  0.16187000  1.0 0.0695720223
H  H334  1  0.45447000  0.29383000  0.51373000  1.0 0.079889038
H  H335  1  0.12113000  0.62717000  0.84707000  1.0 0.079889038
H  H336  1  0.78780000  0.96050000  0.18040000  1.0 0.079889038
H  H337  1  0.27447000  0.07733000  0.26843000  1.0 0.0695720223
H  H338  1  0.94113000  0.41067000  0.60177000  1.0 0.0695720223
H  H339  1  0.60780000  0.74400000  0.93510000  1.0 0.0695720223
H  H340  1  0.19897000  0.05953000  0.23263000  1.0 0.0926997426
H  H341  1  0.86563000  0.39287000  0.56597000  1.0 0.0926997426
H  H342  1  0.53230000  0.72620000  0.89930000  1.0 0.0926997426
H  H343  1  0.24120000  0.17850000  0.27670000  1.0 0.1011311604
H  H344  1  0.90787000  0.51183000  0.61003000  1.0 0.1011311604
H  H345  1  0.57453000  0.84517000  0.94337000  1.0 0.1011311604
H  H346  1  0.21660000  0.11310000  0.26000000  1.0 0.0695720223
H  H347  1  0.88327000  0.44643000  0.59333000  1.0 0.0695720223
H  H348  1  0.54993000  0.77977000  0.92667000  1.0 0.0695720223
H  H349  1  0.32183000  0.19977000  0.29177000  1.0 0.1104708763
H  H350  1  0.98850000  0.53310000  0.62510000  1.0 0.1104708763
H  H351  1  0.65517000  0.86643000  0.95843000  1.0 0.1104708763
H  H352  1  0.29683000  0.13497000  0.27327000  1.0 0.079889038
H  H353  1  0.96350000  0.46830000  0.60660000  1.0 0.079889038
H  H354  1  0.63017000  0.80163000  0.93993000  1.0 0.079889038
H  H355  1  0.17270000  0.99230000  0.21220000  1.0 0.079889038
H  H356  1  0.83937000  0.32563000  0.54553000  1.0 0.079889038
H  H357  1  0.50603000  0.65897000  0.87887000  1.0 0.079889038
H  H358  1  0.13620000  0.20110000  0.39220000  1.0 0.079889038
H  H359  1  0.80287000  0.53443000  0.72553000  1.0 0.079889038
H  H360  1  0.46953000  0.86777000  0.05887000  1.0 0.079889038
H  H361  1  0.19390000  0.29460000  0.46770000  1.0 0.079889038
H  H362  1  0.86057000  0.62793000  0.80103000  1.0 0.079889038
H  H363  1  0.52723000  0.96127000  0.13437000  1.0 0.079889038
H  H364  1  0.27063000  0.32727000  0.42547000  1.0 0.1104708763
H  H365  1  0.93730000  0.66060000  0.75880000  1.0 0.1104708763
H  H366  1  0.60397000  0.99393000  0.09213000  1.0 0.1104708763
H  H367  1  0.22983000  0.30317000  0.45007000  1.0 0.079889038
H  H368  1  0.89650000  0.63650000  0.78340000  1.0 0.079889038
H  H369  1  0.56317000  0.96983000  0.11673000  1.0 0.079889038
H  H370  1  0.21127000  0.25283000  0.34483000  1.0 0.1104708763
H  H371  1  0.87793000  0.58617000  0.67817000  1.0 0.1104708763
H  H372  1  0.54460000  0.91950000  0.01150000  1.0 0.1104708763
H  H373  1  0.17147000  0.23153000  0.36983000  1.0 0.079889038
H  H374  1  0.83813000  0.56487000  0.70317000  1.0 0.079889038
H  H375  1  0.50480000  0.89820000  0.03650000  1.0 0.079889038
H  H376  1  0.15293000  0.27407000  0.49397000  1.0 0.0926997426
H  H377  1  0.81960000  0.60740000  0.82730000  1.0 0.0926997426
H  H378  1  0.48627000  0.94073000  0.16063000  1.0 0.0926997426
H  H379  1  0.10177000  0.13223000  0.44113000  1.0 0.079889038
H  H380  1  0.76843000  0.46557000  0.77447000  1.0 0.079889038
H  H381  1  0.43510000  0.79890000  0.10780000  1.0 0.079889038
H  H382  1  0.06597000  0.03873000  0.36563000  1.0 0.079889038
H  H383  1  0.73263000  0.37207000  0.69897000  1.0 0.079889038
H  H384  1  0.39930000  0.70540000  0.03230000  1.0 0.079889038
H  H385  1  0.11003000  0.00607000  0.40787000  1.0 0.1104708763
H  H386  1  0.77670000  0.33940000  0.74120000  1.0 0.1104708763
H  H387  1  0.44337000  0.67273000  0.07453000  1.0 0.1104708763
H  H388  1  0.09333000  0.03017000  0.38327000  1.0 0.079889038
H  H389  1  0.76000000  0.36350000  0.71660000  1.0 0.079889038
H  H390  1  0.42667000  0.69683000  0.04993000  1.0 0.079889038
H  H391  1  0.12510000  0.08050000  0.48850000  1.0 0.1104708763
H  H392  1  0.79177000  0.41383000  0.82183000  1.0 0.1104708763
H  H393  1  0.45843000  0.74717000  0.15517000  1.0 0.1104708763
H  H394  1  0.10660000  0.10180000  0.46350000  1.0 0.079889038
H  H395  1  0.77327000  0.43513000  0.79683000  1.0 0.079889038
H  H396  1  0.43993000  0.76847000  0.13017000  1.0 0.079889038
H  H397  1  0.04553000  0.05927000  0.33937000  1.0 0.0926997426
H  H398  1  0.71220000  0.39260000  0.67270000  1.0 0.0926997426
H  H399  1  0.37887000  0.72593000  0.00603000  1.0 0.0926997426
H  H400  1  0.22553000  0.99397000  0.30287000  1.0 0.0695720223
H  H401  1  0.89220000  0.32730000  0.63620000  1.0 0.0695720223
H  H402  1  0.55887000  0.66063000  0.96953000  1.0 0.0695720223
H  H403  1  0.30103000  0.03367000  0.36057000  1.0 0.0695720223
H  H404  1  0.96770000  0.36700000  0.69390000  1.0 0.0695720223
H  H405  1  0.63437000  0.70033000  0.02723000  1.0 0.0695720223
H  H406  1  0.25880000  0.03550000  0.43730000  1.0 0.1219340256
H  H407  1  0.92547000  0.36883000  0.77063000  1.0 0.1219340256
H  H408  1  0.59213000  0.70217000  0.10397000  1.0 0.1219340256
H  H409  1  0.28340000  0.04340000  0.39650000  1.0 0.0695720223
H  H410  1  0.95007000  0.37673000  0.72983000  1.0 0.0695720223
H  H411  1  0.61673000  0.71007000  0.06317000  1.0 0.0695720223
H  H412  1  0.17817000  0.96993000  0.37793000  1.0 0.1011311604
H  H413  1  0.84483000  0.30327000  0.71127000  1.0 0.1011311604
H  H414  1  0.51150000  0.63660000  0.04460000  1.0 0.1011311604
H  H415  1  0.20317000  0.97643000  0.33813000  1.0 0.0695720223
H  H416  1  0.86983000  0.30977000  0.67147000  1.0 0.079889038
H  H417  1  0.53650000  0.64310000  0.00480000  1.0 0.0695720223
H  H418  1  0.32730000  0.03950000  0.31960000  1.0 0.079889038
H  H419  1  0.99397000  0.37283000  0.65293000  1.0 0.079889038
H  H420  1  0.66063000  0.70617000  0.98627000  1.0 0.079889038
H  H421  1  0.36380000  0.25600000  0.56490000  1.0 0.0695720223
H  H422  1  0.03047000  0.58933000  0.89823000  1.0 0.0695720223
H  H423  1  0.69713000  0.92267000  0.23157000  1.0 0.0695720223
H  H424  1  0.30610000  0.27380000  0.60070000  1.0 0.0926997426
H  H425  1  0.97277000  0.60713000  0.93403000  1.0 0.0926997426
H  H426  1  0.63943000  0.94047000  0.26737000  1.0 0.0926997426
H  H427  1  0.22937000  0.15483000  0.55663000  1.0 0.1011311604
H  H428  1  0.89603000  0.48817000  0.88997000  1.0 0.1011311604
H  H429  1  0.56270000  0.82150000  0.22330000  1.0 0.1011311604
H  H430  1  0.27017000  0.22023000  0.57333000  1.0 0.0695720223
H  H431  1  0.93683000  0.55357000  0.90667000  1.0 0.0695720223
H  H432  1  0.60350000  0.88690000  0.24000000  1.0 0.0695720223
H  H433  1  0.28873000  0.13357000  0.54157000  1.0 0.1104708763
H  H434  1  0.95540000  0.46690000  0.87490000  1.0 0.1104708763
H  H435  1  0.62207000  0.80023000  0.20823000  1.0 0.1104708763
H  H436  1  0.32853000  0.19837000  0.56007000  1.0 0.079889038
H  H437  1  0.99520000  0.53170000  0.89340000  1.0 0.079889038
H  H438  1  0.66187000  0.86503000  0.22673000  1.0 0.079889038
H  H439  1  0.34707000  0.34103000  0.62113000  1.0 0.079889038
H  H440  1  0.01373000  0.67437000  0.95447000  1.0 0.079889038
H  H441  1  0.68040000  0.00770000  0.28780000  1.0 0.079889038
H  H442  1  0.02563000  0.12257000  0.43147000  1.0 0.079889038
H  H443  1  0.69230000  0.45590000  0.76480000  1.0 0.079889038
H  H444  1  0.35897000  0.78923000  0.09813000  1.0 0.079889038
H  H445  1  0.04943000  0.19207000  0.51897000  1.0 0.079889038
H  H446  1  0.71610000  0.52540000  0.85230000  1.0 0.079889038
H  H447  1  0.38277000  0.85873000  0.18563000  1.0 0.079889038
H  H448  1  0.95543000  0.12487000  0.52667000  1.0 0.1104708763
H  H449  1  0.62210000  0.45820000  0.86000000  1.0 0.1104708763
H  H450  1  0.28877000  0.79153000  0.19333000  1.0 0.1104708763
H  H451  1  0.00460000  0.16570000  0.51880000  1.0 0.079889038
H  H452  1  0.67127000  0.49903000  0.85213000  1.0 0.079889038
H  H453  1  0.33793000  0.83237000  0.18547000  1.0 0.079889038
H  H454  1  0.93623000  0.04217000  0.45017000  1.0 0.1104708763
H  H455  1  0.60290000  0.37550000  0.78350000  1.0 0.1104708763
H  H456  1  0.26957000  0.70883000  0.11683000  1.0 0.1104708763
H  H457  1  0.98560000  0.08260000  0.44430000  1.0 0.079889038
H  H458  1  0.65227000  0.41593000  0.77763000  1.0 0.079889038
H  H459  1  0.31893000  0.74927000  0.11097000  1.0 0.079889038
H  H460  1  0.10107000  0.23393000  0.51403000  1.0 0.0926997426
H  H461  1  0.76773000  0.56727000  0.84737000  1.0 0.0926997426
H  H462  1  0.43440000  0.90060000  0.18070000  1.0 0.0926997426
H  H463  1  0.90187000  0.26083000  0.56973000  1.0 0.0695720223
H  H464  1  0.56853000  0.59417000  0.90307000  1.0 0.0695720223
H  H465  1  0.23520000  0.92750000  0.23640000  1.0 0.0695720223
H  H466  1  0.81437000  0.19713000  0.52403000  1.0 0.0695720223
H  H467  1  0.48103000  0.53047000  0.85737000  1.0 0.0695720223
H  H468  1  0.14770000  0.86380000  0.19070000  1.0 0.0695720223
H  H469  1  0.80667000  0.09543000  0.49723000  1.0 0.1219340256
H  H470  1  0.47333000  0.42877000  0.83057000  1.0 0.1219340256
H  H471  1  0.14000000  0.76210000  0.16390000  1.0 0.1219340256
H  H472  1  0.81453000  0.15247000  0.50557000  1.0 0.0695720223
H  H473  1  0.48120000  0.48580000  0.83890000  1.0 0.0695720223
H  H474  1  0.14787000  0.81913000  0.17223000  1.0 0.0695720223
H  H475  1  0.88317000  0.15273000  0.56073000  1.0 0.1011311604
H  H476  1  0.54983000  0.48607000  0.89407000  1.0 0.1011311604
H  H477  1  0.21650000  0.81940000  0.22740000  1.0 0.1011311604
H  H478  1  0.88903000  0.20797000  0.56967000  1.0 0.079889038
H  H479  1  0.55570000  0.54130000  0.90300000  1.0 0.0695720223
H  H480  1  0.22237000  0.87463000  0.23633000  1.0 0.0695720223
H  H481  1  0.81930000  0.25370000  0.53380000  1.0 0.079889038
H  H482  1  0.48597000  0.58703000  0.86713000  1.0 0.079889038
H  H483  1  0.15263000  0.92037000  0.20047000  1.0 0.079889038
H  H484  1  0.76360000  0.99880000  0.30770000  1.0 0.0695720223
H  H485  1  0.43027000  0.33213000  0.64103000  1.0 0.0695720223
H  H486  1  0.09693000  0.66547000  0.97437000  1.0 0.0695720223
H  H487  1  0.80930000  0.95700000  0.28390000  1.0 0.0926997426
H  H488  1  0.47597000  0.29033000  0.61723000  1.0 0.0926997426
H  H489  1  0.14263000  0.62367000  0.95057000  1.0 0.0926997426
H  H490  1  0.83610000  0.97610000  0.37790000  1.0 0.1011311604
H  H491  1  0.50277000  0.30943000  0.71123000  1.0 0.1011311604
H  H492  1  0.16943000  0.64277000  0.04457000  1.0 0.1011311604
H  H493  1  0.82777000  0.97563000  0.32873000  1.0 0.0695720223
H  H494  1  0.49443000  0.30897000  0.66207000  1.0 0.0695720223
H  H495  1  0.16110000  0.64230000  0.99540000  1.0 0.0695720223
H  H496  1  0.77260000  0.98910000  0.39710000  1.0 0.1104708763
H  H497  1  0.43927000  0.32243000  0.73043000  1.0 0.1104708763
H  H498  1  0.10593000  0.65577000  0.06377000  1.0 0.1104708763
H  H499  1  0.76367000  0.98603000  0.34773000  1.0 0.079889038
H  H500  1  0.43033000  0.31937000  0.68107000  1.0 0.079889038
H  H501  1  0.09700000  0.65270000  0.01440000  1.0 0.079889038
H  H502  1  0.79953000  0.95217000  0.23227000  1.0 0.079889038
H  H503  1  0.46620000  0.28550000  0.56560000  1.0 0.079889038
H  H504  1  0.13287000  0.61883000  0.89893000  1.0 0.079889038
C  C1  1  0.10732000  0.78436000  0.69460000  1.0 -0.080317427
C  C2  1  0.77399000  0.11769000  0.02793000  1.0 -0.080317427
C  C3  1  0.44065000  0.45103000  0.36127000  1.0 -0.080317427
C  C4  1  0.16701000  0.85258000  0.70563000  1.0 -0.1488715508
C  C5  1  0.83367000  0.18592000  0.03897000  1.0 -0.1488715508
C  C6  1  0.50034000  0.51925000  0.37230000  1.0 -0.1488715508
C  C7  1  0.23685000  0.95892000  0.73364000  1.0 -0.0105229695
C  C8  1  0.90352000  0.29225000  0.06697000  1.0 -0.0105229695
C  C9  1  0.57018000  0.62559000  0.40031000  1.0 -0.0105229695
C  C10  1  0.20716000  0.92579000  0.72859000  1.0 -0.0105229695
C  C11  1  0.87383000  0.25912000  0.06192000  1.0 -0.0105229695
C  C12  1  0.54049000  0.59246000  0.39526000  1.0 -0.0105229695
C  C13  1  0.19892000  0.89019000  0.71228000  1.0 -0.0980689686
C  C14  1  0.86558000  0.22353000  0.04562000  1.0 -0.0980689686
C  C15  1  0.53225000  0.55686000  0.37895000  1.0 -0.0980689686
C  C16  1  0.22147000  0.88802000  0.70166000  1.0 -0.1488715508
C  C17  1  0.88813000  0.22136000  0.03500000  1.0 -0.1488715508
C  C18  1  0.55480000  0.55469000  0.36833000  1.0 -0.1488715508
C  C19  1  0.25940000  0.95714000  0.72272000  1.0 -0.0105229695
C  C20  1  0.92606000  0.29048000  0.05606000  1.0 -0.0105229695
C  C21  1  0.59273000  0.62381000  0.38939000  1.0 -0.0105229695
C  C22  1  0.12788000  0.78500000  0.67868000  1.0 -0.0980689686
C  C23  1  0.79455000  0.11833000  0.01201000  1.0 -0.0980689686
C  C24  1  0.46122000  0.45166000  0.34534000  1.0 -0.0980689686
C  C25  1  0.15752000  0.81919000  0.68396000  1.0 -0.16614438
C  C26  1  0.82419000  0.15252000  0.01729000  1.0 -0.16614438
C  C27  1  0.49086000  0.48585000  0.35062000  1.0 -0.16614438
C  C28  1  0.11676000  0.81876000  0.71626000  1.0 -0.0980689686
C  C29  1  0.78343000  0.15209000  0.04959000  1.0 -0.0980689686
C  C30  1  0.45010000  0.48542000  0.38292000  1.0 -0.0980689686
C  C31  1  0.14621000  0.85173000  0.72139000  1.0 -0.1299715571
C  C32  1  0.81288000  0.18506000  0.05472000  1.0 -0.1299715571
C  C33  1  0.47955000  0.51839000  0.38805000  1.0 -0.1299715571
C  C34  1  0.25245000  0.92190000  0.70719000  1.0 -0.080317427
C  C35  1  0.91912000  0.25523000  0.04052000  1.0 -0.080317427
C  C36  1  0.58578000  0.58857000  0.37386000  1.0 -0.080317427
C  C37  1  0.07485000  0.74599000  0.68886000  1.0 0.0016769887
C  C38  1  0.74152000  0.07932000  0.02219000  1.0 0.0016769887
C  C39  1  0.40819000  0.41265000  0.35552000  1.0 0.0016769887
C  C40  1  0.01037000  0.64911000  0.55935000  1.0 -0.0446406076
C  C41  1  0.67704000  0.98244000  0.89268000  1.0 -0.0446406076
C  C42  1  0.34371000  0.31577000  0.22601000  1.0 -0.052322323
C  C43  1  0.01891000  0.64661000  0.49966000  1.0 -0.0980689686
C  C44  1  0.68558000  0.97994000  0.83299000  1.0 -0.0980689686
C  C45  1  0.35224000  0.31328000  0.16633000  1.0 -0.0980689686
C  C46  1  0.05540000  0.65510000  0.42982000  1.0 0.0069573269
C  C47  1  0.72207000  0.98843000  0.76315000  1.0 0.0069573269
C  C48  1  0.38874000  0.32176000  0.09648000  1.0 0.0069573269
C  C49  1  0.05196000  0.65671000  0.45951000  1.0 0.0069573269
C  C50  1  0.71863000  0.99004000  0.79284000  1.0 0.0069573269
C  C51  1  0.38530000  0.32337000  0.12617000  1.0 0.0069573269
C  C52  1  0.02461000  0.64566000  0.46775000  1.0 -0.0191552702
C  C53  1  0.69128000  0.97899000  0.80108000  1.0 -0.0191552702
C  C54  1  0.35794000  0.31233000  0.13442000  1.0 -0.0191552702
C  C55  1  0.99989000  0.63156000  0.44520000  1.0 -0.0285832137
C  C56  1  0.66656000  0.96489000  0.77853000  1.0 -0.0285832137
C  C57  1  0.33322000  0.29823000  0.11187000  1.0 -0.0285832137
C  C58  1  0.03108000  0.64169000  0.40727000  1.0 -0.0105229695
C  C59  1  0.69775000  0.97502000  0.74060000  1.0 -0.0105229695
C  C60  1  0.36441000  0.30836000  0.07394000  1.0 -0.0105229695
C  C61  1  0.99045000  0.64510000  0.53878000  1.0 -0.080317427
C  C62  1  0.65711000  0.97844000  0.87212000  1.0 -0.080317427
C  C63  1  0.32378000  0.31177000  0.20545000  1.0 -0.080317427
C  C64  1  0.99500000  0.64437000  0.50914000  1.0 -0.1186218489
C  C65  1  0.66166000  0.97771000  0.84248000  1.0 -0.1186218489
C  C66  1  0.32833000  0.31104000  0.17581000  1.0 -0.1186218489
C  C67  1  0.03533000  0.65240000  0.54990000  1.0 -0.0615640881
C  C68  1  0.70199000  0.98574000  0.88324000  1.0 -0.0615640881
C  C69  1  0.36866000  0.31907000  0.21657000  1.0 -0.0615640881
C  C70  1  0.03885000  0.65079000  0.52045000  1.0 -0.1299715571
C  C71  1  0.70551000  0.98413000  0.85379000  1.0 -0.1299715571
C  C72  1  0.37218000  0.31746000  0.18712000  1.0 -0.1299715571
C  C73  1  0.00278000  0.62893000  0.41422000  1.0 -0.0285832137
C  C74  1  0.66945000  0.96226000  0.74755000  1.0 -0.0285832137
C  C75  1  0.33612000  0.29559000  0.08088000  1.0 -0.0285832137
C  C76  1  0.00447000  0.64894000  0.59181000  1.0 -0.052322323
C  C77  1  0.67113000  0.98228000  0.92515000  1.0 -0.052322323
C  C78  1  0.33780000  0.31561000  0.25848000  1.0 -0.052322323
C  C79  1  0.97207000  0.74605000  0.65629000  1.0 -0.0615640881
C  C80  1  0.63873000  0.07939000  0.98963000  1.0 -0.0615640881
C  C81  1  0.30540000  0.41272000  0.32296000  1.0 -0.0615640881
C  C82  1  0.96103000  0.79471000  0.64776000  1.0 -0.1488715508
C  C83  1  0.62770000  0.12804000  0.98109000  1.0 -0.1488715508
C  C84  1  0.29437000  0.46137000  0.31442000  1.0 -0.1488715508
C  C85  1  0.93303000  0.83654000  0.61126000  1.0 0.0069573269
C  C86  1  0.59969000  0.16988000  0.94460000  1.0 0.0069573269
C  C87  1  0.26636000  0.50321000  0.27793000  1.0 0.0069573269
C  C88  1  0.93808000  0.81190000  0.61470000  1.0 -0.0105229695
C  C89  1  0.60474000  0.14524000  0.94804000  1.0 -0.0105229695
C  C90  1  0.27141000  0.47857000  0.28137000  1.0 -0.0105229695
C  C91  1  0.95438000  0.81997000  0.64206000  1.0 -0.0919346018
C  C92  1  0.62105000  0.15330000  0.97539000  1.0 -0.0919346018
C  C93  1  0.28772000  0.48663000  0.30872000  1.0 -0.0980689686
C  C94  1  0.96500000  0.85314000  0.66678000  1.0 -0.1299715571
C  C95  1  0.63167000  0.18647000  0.00011000  1.0 -0.1299715571
C  C96  1  0.29834000  0.51980000  0.33344000  1.0 -0.1299715571
C  C97  1  0.94394000  0.87001000  0.63559000  1.0 -0.0697594218
C  C98  1  0.61061000  0.20334000  0.96892000  1.0 -0.0697594218
C  C99  1  0.27728000  0.53667000  0.30225000  1.0 -0.0697594218
C  C100  1  0.98799000  0.78254000  0.67622000  1.0 -0.1070918834
C  C101  1  0.65466000  0.11587000  0.00955000  1.0 -0.1070918834
C  C102  1  0.32132000  0.44921000  0.34289000  1.0 -0.1070918834
C  C103  1  0.98271000  0.80690000  0.67167000  1.0 -0.1396074713
C  C104  1  0.64938000  0.14023000  0.00500000  1.0 -0.1396074713
C  C105  1  0.31604000  0.47357000  0.33834000  1.0 -0.1396074713
C  C106  1  0.95041000  0.73384000  0.63134000  1.0 -0.0697594218
C  C107  1  0.61708000  0.06717000  0.96467000  1.0 -0.0697594218
C  C108  1  0.28374000  0.40051000  0.29801000  1.0 -0.0697594218
C  C109  1  0.94528000  0.75816000  0.62782000  1.0 -0.1299715571
C  C110  1  0.61195000  0.09149000  0.96115000  1.0 -0.1299715571
C  C111  1  0.27861000  0.42483000  0.29449000  1.0 -0.1299715571
C  C112  1  0.95948000  0.87859000  0.66388000  1.0 -0.1186218489
C  C113  1  0.62614000  0.21193000  0.99722000  1.0 -0.1186218489
C  C114  1  0.29281000  0.54526000  0.33055000  1.0 -0.1186218489
C  C115  1  0.97781000  0.71933000  0.66220000  1.0 0.0069573269
C  C116  1  0.64448000  0.05266000  0.99553000  1.0 0.0016769887
C  C117  1  0.31114000  0.38600000  0.32887000  1.0 0.0016769887
C  C118  1  0.61919000  0.66865000  0.57889000  1.0 -0.080317427
C  C119  1  0.28585000  0.00199000  0.91223000  1.0 -0.080317427
C  C120  1  0.95252000  0.33532000  0.24556000  1.0 -0.080317427
C  C121  1  0.59763000  0.67668000  0.52973000  1.0 -0.1488715508
C  C122  1  0.26429000  0.01002000  0.86307000  1.0 -0.1488715508
C  C123  1  0.93096000  0.34335000  0.19640000  1.0 -0.1488715508
C  C124  1  0.58000000  0.67479000  0.44951000  1.0 -0.0105229695
C  C125  1  0.24667000  0.00812000  0.78284000  1.0 -0.0105229695
C  C126  1  0.91334000  0.34145000  0.11617000  1.0 -0.0105229695
C  C127  1  0.59097000  0.67048000  0.47328000  1.0 -0.0105229695
C  C128  1  0.25764000  0.00381000  0.80661000  1.0 -0.0105229695
C  C129  1  0.92431000  0.33714000  0.13994000  1.0 -0.0105229695
C  C130  1  0.58636000  0.68035000  0.50244000  1.0 -0.0980689686
C  C131  1  0.25302000  0.01369000  0.83578000  1.0 -0.0980689686
C  C132  1  0.91969000  0.34702000  0.16911000  1.0 -0.0980689686
C  C133  1  0.56944000  0.69379000  0.50743000  1.0 -0.1488715508
C  C134  1  0.23611000  0.02712000  0.84076000  1.0 -0.1488715508
C  C135  1  0.90277000  0.36046000  0.17410000  1.0 -0.1488715508
C  C136  1  0.56355000  0.68875000  0.45433000  1.0 -0.0105229695
C  C137  1  0.23022000  0.02208000  0.78766000  1.0 -0.0105229695
C  C138  1  0.89688000  0.35542000  0.12100000  1.0 -0.0105229695
C  C139  1  0.60966000  0.69010000  0.58378000  1.0 -0.0980689686
C  C140  1  0.27633000  0.02343000  0.91711000  1.0 -0.0980689686
C  C141  1  0.94300000  0.35676000  0.25044000  1.0 -0.0980689686
C  C142  1  0.59930000  0.69445000  0.55922000  1.0 -0.16614438
C  C143  1  0.26596000  0.02779000  0.89256000  1.0 -0.16614438
C  C144  1  0.93263000  0.36112000  0.22589000  1.0 -0.16614438
C  C145  1  0.61824000  0.65124000  0.54874000  1.0 -0.0980689686
C  C146  1  0.28490000  0.98458000  0.88208000  1.0 -0.0980689686
C  C147  1  0.95157000  0.31791000  0.21541000  1.0 -0.0980689686
C  C148  1  0.60735000  0.65539000  0.52505000  1.0 -0.1299715571
C  C149  1  0.27401000  0.98873000  0.85839000  1.0 -0.1299715571
C  C150  1  0.94068000  0.32206000  0.19172000  1.0 -0.1299715571
C  C151  1  0.55736000  0.69771000  0.48300000  1.0 -0.080317427
C  C152  1  0.22402000  0.03105000  0.81634000  1.0 -0.080317427
C  C153  1  0.89069000  0.36438000  0.14967000  1.0 -0.080317427
C  C154  1  0.62990000  0.66352000  0.60639000  1.0 0.0016769887
C  C155  1  0.29657000  0.99685000  0.93972000  1.0 0.0016769887
C  C156  1  0.96323000  0.33019000  0.27306000  1.0 0.0016769887
C  C157  1  0.71613000  0.80391000  0.71415000  1.0 -0.0446406076
C  C158  1  0.38280000  0.13724000  0.04748000  1.0 -0.052322323
C  C159  1  0.04947000  0.47057000  0.38081000  1.0 -0.0446406076
C  C160  1  0.74572000  0.88266000  0.73571000  1.0 -0.0980689686
C  C161  1  0.41239000  0.21599000  0.06904000  1.0 -0.0980689686
C  C162  1  0.07906000  0.54932000  0.40237000  1.0 -0.0980689686
C  C163  1  0.76145000  0.97861000  0.75333000  1.0 0.0069573269
C  C164  1  0.42812000  0.31194000  0.08666000  1.0 0.0069573269
C  C165  1  0.09478000  0.64528000  0.42000000  1.0 0.0069573269
C  C166  1  0.74617000  0.93956000  0.74236000  1.0 0.0069573269
C  C167  1  0.41284000  0.27289000  0.07569000  1.0 0.0069573269
C  C168  1  0.07950000  0.60623000  0.40903000  1.0 0.0069573269
C  C169  1  0.76066000  0.92489000  0.74698000  1.0 -0.0191552702
C  C170  1  0.42733000  0.25822000  0.08031000  1.0 -0.0191552702
C  C171  1  0.09400000  0.59155000  0.41364000  1.0 -0.0191552702
C  C172  1  0.79102000  0.95025000  0.76389000  1.0 -0.0285832137
C  C173  1  0.45768000  0.28359000  0.09723000  1.0 -0.0285832137
C  C174  1  0.12435000  0.61692000  0.43056000  1.0 -0.0285832137
C  C175  1  0.79187000  0.00420000  0.76978000  1.0 -0.0105229695
C  C176  1  0.45853000  0.33754000  0.10312000  1.0 -0.0105229695
C  C177  1  0.12520000  0.67087000  0.43645000  1.0 -0.0105229695
C  C178  1  0.74710000  0.82999000  0.72367000  1.0 -0.080317427
C  C179  1  0.41377000  0.16332000  0.05700000  1.0 -0.080317427
C  C180  1  0.08043000  0.49666000  0.39034000  1.0 -0.080317427
C  C181  1  0.76182000  0.86927000  0.73404000  1.0 -0.1186218489
C  C182  1  0.42849000  0.20260000  0.06737000  1.0 -0.1186218489
C  C183  1  0.09516000  0.53593000  0.40070000  1.0 -0.1186218489
C  C184  1  0.69967000  0.81760000  0.71510000  1.0 -0.0615640881
C  C185  1  0.36634000  0.15093000  0.04843000  1.0 -0.0615640881
C  C186  1  0.03301000  0.48426000  0.38176000  1.0 -0.0615640881
C  C187  1  0.71471000  0.85633000  0.72599000  1.0 -0.1299715571
C  C188  1  0.38138000  0.18966000  0.05932000  1.0 -0.1299715571
C  C189  1  0.04805000  0.52299000  0.39265000  1.0 -0.1299715571
C  C190  1  0.80702000  0.99069000  0.77598000  1.0 -0.0285832137
C  C191  1  0.47369000  0.32402000  0.10931000  1.0 -0.0285832137
C  C192  1  0.14036000  0.65735000  0.44264000  1.0 -0.0285832137
C  C193  1  0.70029000  0.76056000  0.70343000  1.0 -0.052322323
C  C194  1  0.36695000  0.09390000  0.03677000  1.0 -0.052322323
C  C195  1  0.03362000  0.42723000  0.37010000  1.0 -0.052322323
C  C196  1  0.75444000  0.70696000  0.61720000  1.0 -0.0615640881
C  C197  1  0.42111000  0.04029000  0.95053000  1.0 -0.0615640881
C  C198  1  0.08777000  0.37363000  0.28387000  1.0 -0.0615640881
C  C199  1  0.80360000  0.73456000  0.58761000  1.0 -0.1488715508
C  C200  1  0.47027000  0.06789000  0.92094000  1.0 -0.1488715508
C  C201  1  0.13693000  0.40123000  0.25428000  1.0 -0.1488715508
C  C202  1  0.88383000  0.79716000  0.57188000  1.0 0.0069573269
C  C203  1  0.55049000  0.13050000  0.90522000  1.0 0.0069573269
C  C204  1  0.21716000  0.46383000  0.23855000  1.0 0.0069573269
C  C205  1  0.86006000  0.78436000  0.58716000  1.0 -0.0105229695
C  C206  1  0.52672000  0.11770000  0.92050000  1.0 -0.0105229695
C  C207  1  0.19339000  0.45103000  0.25383000  1.0 -0.0105229695
C  C208  1  0.83089000  0.75058000  0.57267000  1.0 -0.0919346018
C  C209  1  0.49756000  0.08391000  0.90600000  1.0 -0.0980689686
C  C210  1  0.16422000  0.41725000  0.23934000  1.0 -0.0980689686
C  C211  1  0.82590000  0.72868000  0.54232000  1.0 -0.1299715571
C  C212  1  0.49257000  0.06201000  0.87565000  1.0 -0.1299715571
C  C213  1  0.15924000  0.39534000  0.20898000  1.0 -0.1299715571
C  C214  1  0.87900000  0.77589000  0.54147000  1.0 -0.0697594218
C  C215  1  0.54567000  0.10922000  0.87480000  1.0 -0.0697594218
C  C216  1  0.21234000  0.44255000  0.20813000  1.0 -0.0697594218
C  C217  1  0.74956000  0.69255000  0.58623000  1.0 -0.1070918834
C  C218  1  0.41622000  0.02589000  0.91957000  1.0 -0.1070918834
C  C219  1  0.08289000  0.35922000  0.25290000  1.0 -0.1070918834
C  C220  1  0.77411000  0.70674000  0.57151000  1.0 -0.1396074713
C  C221  1  0.44078000  0.04007000  0.90484000  1.0 -0.1396074713
C  C222  1  0.10744000  0.37341000  0.23818000  1.0 -0.1396074713
C  C223  1  0.78459000  0.73616000  0.63366000  1.0 -0.0697594218
C  C224  1  0.45126000  0.06949000  0.96699000  1.0 -0.0697594218
C  C225  1  0.11792000  0.40283000  0.30033000  1.0 -0.0697594218
C  C226  1  0.80828000  0.74896000  0.61862000  1.0 -0.1299715571
C  C227  1  0.47495000  0.08229000  0.95195000  1.0 -0.1299715571
C  C228  1  0.14161000  0.41563000  0.28529000  1.0 -0.1299715571
C  C229  1  0.85033000  0.74102000  0.52631000  1.0 -0.1186218489
C  C230  1  0.51700000  0.07435000  0.85964000  1.0 -0.1186218489
C  C231  1  0.18366000  0.40769000  0.19298000  1.0 -0.1186218489
C  C232  1  0.72694000  0.69018000  0.63305000  1.0 0.0069573269
C  C233  1  0.39361000  0.02351000  0.96638000  1.0 0.0016769887
C  C234  1  0.06028000  0.35684000  0.29971000  1.0 0.0016769887
C  C235  1  0.88081000  0.95971000  0.54947000  1.0 -0.0615640881
C  C236  1  0.54748000  0.29304000  0.88280000  1.0 -0.0615640881
C  C237  1  0.21415000  0.62637000  0.21613000  1.0 -0.0615640881
C  C238  1  0.90237000  0.93211000  0.57906000  1.0 -0.1488715508
C  C239  1  0.56904000  0.26544000  0.91239000  1.0 -0.1488715508
C  C240  1  0.23571000  0.59877000  0.24572000  1.0 -0.1488715508
C  C241  1  0.92000000  0.86950000  0.59478000  1.0 0.0069573269
C  C242  1  0.58666000  0.20284000  0.92812000  1.0 0.0069573269
C  C243  1  0.25333000  0.53617000  0.26145000  1.0 0.0069573269
C  C244  1  0.90903000  0.88230000  0.57950000  1.0 -0.0105229695
C  C245  1  0.57569000  0.21564000  0.91284000  1.0 -0.0105229695
C  C246  1  0.24236000  0.54897000  0.24617000  1.0 -0.0105229695
C  C247  1  0.91364000  0.91609000  0.59400000  1.0 -0.0919346018
C  C248  1  0.58031000  0.24942000  0.92733000  1.0 -0.0980689686
C  C249  1  0.24698000  0.58275000  0.26066000  1.0 -0.0980689686
C  C250  1  0.93056000  0.93799000  0.62435000  1.0 -0.1299715571
C  C251  1  0.59723000  0.27132000  0.95768000  1.0 -0.1299715571
C  C252  1  0.26389000  0.60466000  0.29102000  1.0 -0.1299715571
C  C253  1  0.93645000  0.89078000  0.62520000  1.0 -0.0697594218
C  C254  1  0.60312000  0.22411000  0.95853000  1.0 -0.0697594218
C  C255  1  0.26978000  0.55745000  0.29187000  1.0 -0.0697594218
C  C256  1  0.89034000  0.97411000  0.58043000  1.0 -0.1070918834
C  C257  1  0.55700000  0.30745000  0.91377000  1.0 -0.1070918834
C  C258  1  0.22367000  0.64078000  0.24710000  1.0 -0.1070918834
C  C259  1  0.90070000  0.95993000  0.59516000  1.0 -0.1396074713
C  C260  1  0.56737000  0.29326000  0.92849000  1.0 -0.1396074713
C  C261  1  0.23404000  0.62659000  0.26182000  1.0 -0.1396074713
C  C262  1  0.88176000  0.93051000  0.53301000  1.0 -0.0697594218
C  C263  1  0.54843000  0.26384000  0.86634000  1.0 -0.0697594218
C  C264  1  0.21510000  0.59717000  0.19967000  1.0 -0.0697594218
C  C265  1  0.89265000  0.91771000  0.54805000  1.0 -0.1299715571
C  C266  1  0.55932000  0.25104000  0.88138000  1.0 -0.1299715571
C  C267  1  0.22599000  0.58437000  0.21471000  1.0 -0.1299715571
C  C268  1  0.94264000  0.92565000  0.64036000  1.0 -0.1186218489
C  C269  1  0.60931000  0.25898000  0.97369000  1.0 -0.1186218489
C  C270  1  0.27598000  0.59231000  0.30702000  1.0 -0.1186218489
C  C271  1  0.87010000  0.97649000  0.53362000  1.0 0.0069573269
C  C272  1  0.53677000  0.30982000  0.86695000  1.0 0.0016769887
C  C273  1  0.20343000  0.64316000  0.20029000  1.0 0.0069573269
C  C274  1  0.78387000  0.99801000  0.58777000  1.0 -0.080317427
C  C275  1  0.45053000  0.33135000  0.92111000  1.0 -0.080317427
C  C276  1  0.11720000  0.66468000  0.25444000  1.0 -0.080317427
C  C277  1  0.75428000  0.98998000  0.63693000  1.0 -0.1488715508
C  C278  1  0.42094000  0.32332000  0.97027000  1.0 -0.1488715508
C  C279  1  0.08761000  0.65665000  0.30360000  1.0 -0.1488715508
C  C280  1  0.73855000  0.99188000  0.71716000  1.0 -0.0105229695
C  C281  1  0.40522000  0.32521000  0.05049000  1.0 -0.0105229695
C  C282  1  0.07188000  0.65855000  0.38383000  1.0 -0.0105229695
C  C283  1  0.75383000  0.99619000  0.69339000  1.0 -0.0105229695
C  C284  1  0.42050000  0.32952000  0.02672000  1.0 -0.0105229695
C  C285  1  0.08716000  0.66286000  0.36006000  1.0 -0.0105229695
C  C286  1  0.73934000  0.98631000  0.66422000  1.0 -0.0980689686
C  C287  1  0.40600000  0.31965000  0.99756000  1.0 -0.0980689686
C  C288  1  0.07267000  0.65298000  0.33089000  1.0 -0.0980689686
C  C289  1  0.70898000  0.97288000  0.65924000  1.0 -0.1488715508
C  C290  1  0.37565000  0.30621000  0.99257000  1.0 -0.1488715508
C  C291  1  0.04232000  0.63954000  0.32590000  1.0 -0.1488715508
C  C292  1  0.70813000  0.97792000  0.71234000  1.0 -0.0105229695
C  C293  1  0.37480000  0.31125000  0.04567000  1.0 -0.0105229695
C  C294  1  0.04147000  0.64458000  0.37900000  1.0 -0.0105229695
C  C295  1  0.75290000  0.97657000  0.58289000  1.0 -0.0980689686
C  C296  1  0.41957000  0.30990000  0.91622000  1.0 -0.0980689686
C  C297  1  0.08623000  0.64324000  0.24956000  1.0 -0.0980689686
C  C298  1  0.73818000  0.97221000  0.60744000  1.0 -0.16614438
C  C299  1  0.40484000  0.30555000  0.94078000  1.0 -0.16614438
C  C300  1  0.07151000  0.63888000  0.27411000  1.0 -0.16614438
C  C301  1  0.80033000  0.01542000  0.61792000  1.0 -0.0980689686
C  C302  1  0.46699000  0.34876000  0.95126000  1.0 -0.0980689686
C  C303  1  0.13366000  0.68209000  0.28459000  1.0 -0.0980689686
C  C304  1  0.78529000  0.01127000  0.64161000  1.0 -0.1299715571
C  C305  1  0.45195000  0.34461000  0.97495000  1.0 -0.1299715571
C  C306  1  0.11862000  0.67794000  0.30828000  1.0 -0.1299715571
C  C307  1  0.69298000  0.96895000  0.68366000  1.0 -0.080317427
C  C308  1  0.35964000  0.30229000  0.01700000  1.0 -0.080317427
C  C309  1  0.02631000  0.63562000  0.35033000  1.0 -0.080317427
C  C310  1  0.79971000  0.00315000  0.56028000  1.0 0.0016769887
C  C311  1  0.46638000  0.33648000  0.89361000  1.0 0.0016769887
C  C312  1  0.13305000  0.66981000  0.22694000  1.0 0.0016769887
C  C313  1  0.74556000  0.86276000  0.45252000  1.0 -0.0446406076
C  C314  1  0.41223000  0.19609000  0.78585000  1.0 -0.0446406076
C  C315  1  0.07889000  0.52943000  0.11919000  1.0 -0.052322323
C  C316  1  0.69640000  0.78401000  0.43096000  1.0 -0.0980689686
C  C317  1  0.36307000  0.11734000  0.76429000  1.0 -0.0980689686
C  C318  1  0.02973000  0.45068000  0.09763000  1.0 -0.0980689686
C  C319  1  0.61617000  0.68806000  0.41334000  1.0 0.0069573269
C  C320  1  0.28284000  0.02139000  0.74667000  1.0 0.0069573269
C  C321  1  0.94951000  0.35472000  0.08000000  1.0 0.0069573269
C  C322  1  0.63994000  0.72711000  0.42431000  1.0 0.0069573269
C  C323  1  0.30661000  0.06044000  0.75764000  1.0 0.0069573269
C  C324  1  0.97328000  0.39377000  0.09097000  1.0 0.0069573269
C  C325  1  0.66911000  0.74178000  0.41969000  1.0 -0.0191552702
C  C326  1  0.33578000  0.07511000  0.75302000  1.0 -0.0191552702
C  C327  1  0.00244000  0.40845000  0.08636000  1.0 -0.0191552702
C  C328  1  0.67410000  0.71641000  0.40277000  1.0 -0.0285832137
C  C329  1  0.34076000  0.04975000  0.73611000  1.0 -0.0285832137
C  C330  1  0.00743000  0.38308000  0.06944000  1.0 -0.0285832137
C  C331  1  0.62100000  0.66246000  0.39688000  1.0 -0.0105229695
C  C332  1  0.28766000  0.99580000  0.73022000  1.0 -0.0105229695
C  C333  1  0.95433000  0.32913000  0.06355000  1.0 -0.0105229695
C  C334  1  0.75044000  0.83668000  0.44300000  1.0 -0.080317427
C  C335  1  0.41711000  0.17001000  0.77633000  1.0 -0.080317427
C  C336  1  0.08378000  0.50334000  0.10966000  1.0 -0.080317427
C  C337  1  0.72589000  0.79740000  0.43263000  1.0 -0.1186218489
C  C338  1  0.39256000  0.13073000  0.76596000  1.0 -0.1186218489
C  C339  1  0.05922000  0.46407000  0.09930000  1.0 -0.1186218489
C  C340  1  0.71541000  0.84907000  0.45157000  1.0 -0.0615640881
C  C341  1  0.38208000  0.18240000  0.78490000  1.0 -0.0615640881
C  C342  1  0.04874000  0.51574000  0.11824000  1.0 -0.0615640881
C  C343  1  0.69172000  0.81034000  0.44068000  1.0 -0.1299715571
C  C344  1  0.35839000  0.14367000  0.77401000  1.0 -0.1299715571
C  C345  1  0.02505000  0.47701000  0.10735000  1.0 -0.1299715571
C  C346  1  0.64967000  0.67598000  0.39069000  1.0 -0.0285832137
C  C347  1  0.31634000  0.00931000  0.72402000  1.0 -0.0285832137
C  C348  1  0.98300000  0.34265000  0.05736000  1.0 -0.0285832137
C  C349  1  0.77306000  0.90610000  0.46323000  1.0 -0.052322323
C  C350  1  0.43972000  0.23944000  0.79657000  1.0 -0.052322323
C  C351  1  0.10639000  0.57277000  0.12990000  1.0 -0.052322323
C  C352  1  0.05935000  0.92061000  0.51037000  1.0 -0.0615640881
C  C353  1  0.72601000  0.25395000  0.84371000  1.0 -0.0615640881
C  C354  1  0.39268000  0.58728000  0.17704000  1.0 -0.0615640881
C  C355  1  0.99966000  0.87196000  0.51891000  1.0 -0.1488715508
C  C356  1  0.66633000  0.20529000  0.85224000  1.0 -0.1488715508
C  C357  1  0.33299000  0.53863000  0.18558000  1.0 -0.1488715508
C  C358  1  0.92982000  0.83012000  0.55540000  1.0 0.0069573269
C  C359  1  0.59648000  0.16346000  0.88874000  1.0 0.0069573269
C  C360  1  0.26315000  0.49679000  0.22207000  1.0 0.0069573269
C  C361  1  0.95951000  0.85476000  0.55196000  1.0 -0.0105229695
C  C362  1  0.62617000  0.18810000  0.88530000  1.0 -0.0105229695
C  C363  1  0.29284000  0.52143000  0.21863000  1.0 -0.0105229695
C  C364  1  0.96775000  0.84670000  0.52461000  1.0 -0.0919346018
C  C365  1  0.63442000  0.18003000  0.85794000  1.0 -0.0980689686
C  C366  1  0.30108000  0.51337000  0.19128000  1.0 -0.0980689686
C  C367  1  0.94520000  0.81353000  0.49989000  1.0 -0.1299715571
C  C368  1  0.61187000  0.14686000  0.83322000  1.0 -0.1299715571
C  C369  1  0.27853000  0.48020000  0.16656000  1.0 -0.1299715571
C  C370  1  0.90727000  0.79666000  0.53108000  1.0 -0.0697594218
C  C371  1  0.57394000  0.12999000  0.86441000  1.0 -0.0697594218
C  C372  1  0.24060000  0.46333000  0.19775000  1.0 -0.0697594218
C  C373  1  0.03878000  0.88413000  0.49045000  1.0 -0.1070918834
C  C374  1  0.70545000  0.21746000  0.82378000  1.0 -0.1070918834
C  C375  1  0.37212000  0.55079000  0.15711000  1.0 -0.1070918834
C  C376  1  0.00914000  0.85977000  0.49500000  1.0 -0.1396074713
C  C377  1  0.67581000  0.19310000  0.82833000  1.0 -0.1396074713
C  C378  1  0.34248000  0.52643000  0.16166000  1.0 -0.1396074713
C  C379  1  0.04990000  0.93283000  0.53533000  1.0 -0.0697594218
C  C380  1  0.71657000  0.26616000  0.86866000  1.0 -0.0697594218
C  C381  1  0.38324000  0.59949000  0.20199000  1.0 -0.0697594218
C  C382  1  0.02045000  0.90851000  0.53885000  1.0 -0.1299715571
C  C383  1  0.68712000  0.24184000  0.87218000  1.0 -0.1299715571
C  C384  1  0.35379000  0.57517000  0.20551000  1.0 -0.1299715571
C  C385  1  0.91422000  0.78807000  0.50278000  1.0 -0.1186218489
C  C386  1  0.58088000  0.12141000  0.83612000  1.0 -0.1186218489
C  C387  1  0.24755000  0.45474000  0.16945000  1.0 -0.1186218489
C  C388  1  0.09181000  0.94734000  0.50447000  1.0 0.0069573269
C  C389  1  0.75848000  0.28067000  0.83780000  1.0 0.0016769887
C  C390  1  0.42515000  0.61400000  0.17113000  1.0 0.0069573269
C  C391  1  0.15629000  0.88231000  0.47207000  1.0 -0.080317427
C  C392  1  0.82296000  0.21564000  0.80540000  1.0 -0.080317427
C  C393  1  0.48963000  0.54897000  0.13873000  1.0 -0.080317427
C  C394  1  0.14776000  0.81408000  0.46103000  1.0 -0.1488715508
C  C395  1  0.81442000  0.14742000  0.79437000  1.0 -0.1488715508
C  C396  1  0.48109000  0.48075000  0.12770000  1.0 -0.1488715508
C  C397  1  0.11126000  0.70775000  0.43303000  1.0 -0.0105229695
C  C398  1  0.77793000  0.04108000  0.76636000  1.0 -0.0105229695
C  C399  1  0.44460000  0.37441000  0.09969000  1.0 -0.0105229695
C  C400  1  0.11470000  0.74088000  0.43808000  1.0 -0.0105229695
C  C401  1  0.78137000  0.07421000  0.77141000  1.0 -0.0105229695
C  C402  1  0.44804000  0.40754000  0.10474000  1.0 -0.0105229695
C  C403  1  0.14206000  0.77647000  0.45438000  1.0 -0.0980689686
C  C404  1  0.80872000  0.10981000  0.78772000  1.0 -0.0980689686
C  C405  1  0.47539000  0.44314000  0.12105000  1.0 -0.0980689686
C  C406  1  0.16678000  0.77864000  0.46500000  1.0 -0.1488715508
C  C407  1  0.83344000  0.11198000  0.79834000  1.0 -0.1488715508
C  C408  1  0.50011000  0.44531000  0.13167000  1.0 -0.1488715508
C  C409  1  0.13559000  0.70952000  0.44394000  1.0 -0.0105229695
C  C410  1  0.80225000  0.04286000  0.77728000  1.0 -0.0105229695
C  C411  1  0.46892000  0.37619000  0.11061000  1.0 -0.0105229695
C  C412  1  0.17622000  0.88167000  0.48799000  1.0 -0.0980689686
C  C413  1  0.84289000  0.21500000  0.82132000  1.0 -0.0980689686
C  C414  1  0.50955000  0.54834000  0.15466000  1.0 -0.0980689686
C  C415  1  0.17167000  0.84748000  0.48271000  1.0 -0.16614438
C  C416  1  0.83834000  0.18081000  0.81604000  1.0 -0.16614438
C  C417  1  0.50500000  0.51415000  0.14938000  1.0 -0.16614438
C  C418  1  0.13134000  0.84791000  0.45041000  1.0 -0.0980689686
C  C419  1  0.79801000  0.18124000  0.78374000  1.0 -0.0980689686
C  C420  1  0.46467000  0.51458000  0.11708000  1.0 -0.0980689686
C  C421  1  0.12782000  0.81494000  0.44528000  1.0 -0.1299715571
C  C422  1  0.79449000  0.14827000  0.77861000  1.0 -0.1299715571
C  C423  1  0.46115000  0.48161000  0.11195000  1.0 -0.1299715571
C  C424  1  0.16388000  0.74477000  0.45948000  1.0 -0.080317427
C  C425  1  0.83055000  0.07810000  0.79281000  1.0 -0.080317427
C  C426  1  0.49722000  0.41143000  0.12614000  1.0 -0.080317427
C  C427  1  0.16220000  0.92068000  0.47781000  1.0 0.0016769887
C  C428  1  0.82887000  0.25401000  0.81114000  1.0 0.0016769887
C  C429  1  0.49553000  0.58735000  0.14448000  1.0 0.0016769887
C  C430  1  0.19460000  0.01756000  0.60732000  1.0 -0.0446406076
C  C431  1  0.86127000  0.35089000  0.94065000  1.0 -0.0446406076
C  C432  1  0.52793000  0.68423000  0.27399000  1.0 -0.0446406076
C  C433  1  0.20563000  0.02006000  0.66701000  1.0 -0.0980689686
C  C434  1  0.87230000  0.35339000  0.00034000  1.0 -0.0980689686
C  C435  1  0.53897000  0.68672000  0.33367000  1.0 -0.0980689686
C  C436  1  0.23364000  0.01157000  0.73685000  1.0 0.0069573269
C  C437  1  0.90031000  0.34490000  0.07018000  1.0 0.0069573269
C  C438  1  0.56697000  0.67824000  0.40352000  1.0 0.0069573269
C  C439  1  0.22859000  0.00996000  0.70716000  1.0 0.0069573269
C  C440  1  0.89526000  0.34329000  0.04049000  1.0 0.0069573269
C  C441  1  0.56192000  0.67663000  0.37383000  1.0 0.0069573269
C  C442  1  0.21228000  0.02101000  0.69892000  1.0 -0.0191552702
C  C443  1  0.87895000  0.35434000  0.03225000  1.0 -0.0191552702
C  C444  1  0.54562000  0.68767000  0.36558000  1.0 -0.0191552702
C  C445  1  0.20166000  0.03511000  0.72147000  1.0 -0.0285832137
C  C446  1  0.86833000  0.36844000  0.05480000  1.0 -0.0285832137
C  C447  1  0.53500000  0.70177000  0.38813000  1.0 -0.0285832137
C  C448  1  0.22272000  0.02498000  0.75940000  1.0 -0.0105229695
C  C449  1  0.88939000  0.35831000  0.09273000  1.0 -0.0105229695
C  C450  1  0.55606000  0.69164000  0.42606000  1.0 -0.0105229695
C  C451  1  0.17868000  0.02156000  0.62788000  1.0 -0.080317427
C  C452  1  0.84534000  0.35490000  0.96122000  1.0 -0.080317427
C  C453  1  0.51201000  0.68823000  0.29455000  1.0 -0.080317427
C  C454  1  0.18396000  0.02229000  0.65752000  1.0 -0.1186218489
C  C455  1  0.85062000  0.35563000  0.99086000  1.0 -0.1186218489
C  C456  1  0.51729000  0.68896000  0.32419000  1.0 -0.1186218489
C  C457  1  0.21626000  0.01426000  0.61676000  1.0 -0.0615640881
C  C458  1  0.88292000  0.34760000  0.95010000  1.0 -0.0615640881
C  C459  1  0.54959000  0.68093000  0.28343000  1.0 -0.0615640881
C  C460  1  0.22139000  0.01587000  0.64621000  1.0 -0.1299715571
C  C461  1  0.88805000  0.34921000  0.97955000  1.0 -0.1299715571
C  C462  1  0.55472000  0.68254000  0.31288000  1.0 -0.1299715571
C  C463  1  0.20719000  0.03774000  0.75245000  1.0 -0.0285832137
C  C464  1  0.87386000  0.37107000  0.08578000  1.0 -0.0285832137
C  C465  1  0.54052000  0.70441000  0.41912000  1.0 -0.0285832137
C  C466  1  0.18886000  0.01772000  0.57485000  1.0 -0.052322323
C  C467  1  0.85552000  0.35106000  0.90819000  1.0 -0.052322323
C  C468  1  0.52219000  0.68439000  0.24152000  1.0 -0.052322323
C  C469  1  0.89268000  0.21564000  0.30540000  1.0 -0.080317427
C  C470  1  0.55935000  0.54897000  0.63873000  1.0 -0.080317427
C  C471  1  0.22601000  0.88231000  0.97207000  1.0 -0.080317427
C  C472  1  0.83299000  0.14742000  0.29437000  1.0 -0.1488715508
C  C473  1  0.49966000  0.48075000  0.62770000  1.0 -0.1488715508
C  C474  1  0.16633000  0.81408000  0.96103000  1.0 -0.1488715508
C  C475  1  0.76315000  0.04108000  0.26636000  1.0 -0.0105229695
C  C476  1  0.42982000  0.37441000  0.59969000  1.0 -0.0105229695
C  C477  1  0.09648000  0.70775000  0.93303000  1.0 -0.0105229695
C  C478  1  0.79284000  0.07421000  0.27141000  1.0 -0.0105229695
C  C479  1  0.45951000  0.40754000  0.60474000  1.0 -0.0105229695
C  C480  1  0.12617000  0.74088000  0.93808000  1.0 -0.0105229695
C  C481  1  0.80108000  0.10981000  0.28772000  1.0 -0.0980689686
C  C482  1  0.46775000  0.44314000  0.62105000  1.0 -0.0980689686
C  C483  1  0.13442000  0.77647000  0.95438000  1.0 -0.0980689686
C  C484  1  0.77853000  0.11198000  0.29834000  1.0 -0.1488715508
C  C485  1  0.44520000  0.44531000  0.63167000  1.0 -0.1488715508
C  C486  1  0.11187000  0.77864000  0.96500000  1.0 -0.1488715508
C  C487  1  0.74060000  0.04286000  0.27728000  1.0 -0.0105229695
C  C488  1  0.40727000  0.37619000  0.61061000  1.0 -0.0105229695
C  C489  1  0.07394000  0.70952000  0.94394000  1.0 -0.0105229695
C  C490  1  0.87212000  0.21500000  0.32132000  1.0 -0.0980689686
C  C491  1  0.53878000  0.54834000  0.65466000  1.0 -0.0980689686
C  C492  1  0.20545000  0.88167000  0.98799000  1.0 -0.0980689686
C  C493  1  0.84248000  0.18081000  0.31604000  1.0 -0.16614438
C  C494  1  0.50914000  0.51415000  0.64938000  1.0 -0.16614438
C  C495  1  0.17581000  0.84748000  0.98271000  1.0 -0.16614438
C  C496  1  0.88324000  0.18124000  0.28374000  1.0 -0.0980689686
C  C497  1  0.54990000  0.51458000  0.61708000  1.0 -0.0980689686
C  C498  1  0.21657000  0.84791000  0.95041000  1.0 -0.0980689686
C  C499  1  0.85379000  0.14827000  0.27861000  1.0 -0.1299715571
C  C500  1  0.52045000  0.48161000  0.61195000  1.0 -0.1299715571
C  C501  1  0.18712000  0.81494000  0.94528000  1.0 -0.1299715571
C  C502  1  0.74755000  0.07810000  0.29281000  1.0 -0.080317427
C  C503  1  0.41422000  0.41143000  0.62614000  1.0 -0.080317427
C  C504  1  0.08088000  0.74477000  0.95948000  1.0 -0.080317427
C  C505  1  0.92515000  0.25401000  0.31114000  1.0 0.0016769887
C  C506  1  0.59181000  0.58735000  0.64448000  1.0 0.0016769887
C  C507  1  0.25848000  0.92068000  0.97781000  1.0 0.0016769887
C  C508  1  0.98963000  0.35089000  0.44065000  1.0 -0.0446406076
C  C509  1  0.65629000  0.68423000  0.77399000  1.0 -0.0446406076
C  C510  1  0.32296000  0.01756000  0.10732000  1.0 -0.052322323
C  C511  1  0.98109000  0.35339000  0.50034000  1.0 -0.0980689686
C  C512  1  0.64776000  0.68672000  0.83367000  1.0 -0.0980689686
C  C513  1  0.31442000  0.02006000  0.16701000  1.0 -0.0980689686
C  C514  1  0.94460000  0.34490000  0.57018000  1.0 0.0069573269
C  C515  1  0.61126000  0.67824000  0.90352000  1.0 0.0069573269
C  C516  1  0.27793000  0.01157000  0.23685000  1.0 0.0069573269
C  C517  1  0.94804000  0.34329000  0.54049000  1.0 0.0069573269
C  C518  1  0.61470000  0.67663000  0.87383000  1.0 0.0069573269
C  C519  1  0.28137000  0.00996000  0.20716000  1.0 0.0069573269
C  C520  1  0.97539000  0.35434000  0.53225000  1.0 -0.0191552702
C  C521  1  0.64206000  0.68767000  0.86558000  1.0 -0.0191552702
C  C522  1  0.30872000  0.02101000  0.19892000  1.0 -0.0191552702
C  C523  1  0.00011000  0.36844000  0.55480000  1.0 -0.0285832137
C  C524  1  0.66678000  0.70177000  0.88813000  1.0 -0.0285832137
C  C525  1  0.33344000  0.03511000  0.22147000  1.0 -0.0285832137
C  C526  1  0.96892000  0.35831000  0.59273000  1.0 -0.0105229695
C  C527  1  0.63559000  0.69164000  0.92606000  1.0 -0.0105229695
C  C528  1  0.30225000  0.02498000  0.25940000  1.0 -0.0105229695
C  C529  1  0.00955000  0.35490000  0.46122000  1.0 -0.080317427
C  C530  1  0.67622000  0.68823000  0.79455000  1.0 -0.080317427
C  C531  1  0.34289000  0.02156000  0.12788000  1.0 -0.080317427
C  C532  1  0.00500000  0.35563000  0.49086000  1.0 -0.1186218489
C  C533  1  0.67167000  0.68896000  0.82419000  1.0 -0.1186218489
C  C534  1  0.33834000  0.02229000  0.15752000  1.0 -0.1186218489
C  C535  1  0.96467000  0.34760000  0.45010000  1.0 -0.0615640881
C  C536  1  0.63134000  0.68093000  0.78343000  1.0 -0.0615640881
C  C537  1  0.29801000  0.01426000  0.11676000  1.0 -0.0615640881
C  C538  1  0.96115000  0.34921000  0.47955000  1.0 -0.1299715571
C  C539  1  0.62782000  0.68254000  0.81288000  1.0 -0.1299715571
C  C540  1  0.29449000  0.01587000  0.14621000  1.0 -0.1299715571
C  C541  1  0.99722000  0.37107000  0.58578000  1.0 -0.0285832137
C  C542  1  0.66388000  0.70441000  0.91912000  1.0 -0.0285832137
C  C543  1  0.33055000  0.03774000  0.25245000  1.0 -0.0285832137
C  C544  1  0.99553000  0.35106000  0.40819000  1.0 -0.052322323
C  C545  1  0.66220000  0.68439000  0.74152000  1.0 -0.052322323
C  C546  1  0.32887000  0.01772000  0.07485000  1.0 -0.052322323
C  C547  1  0.02793000  0.25395000  0.34371000  1.0 -0.0615640881
C  C548  1  0.69460000  0.58728000  0.67704000  1.0 -0.0615640881
C  C549  1  0.36127000  0.92061000  0.01037000  1.0 -0.0615640881
C  C550  1  0.03897000  0.20529000  0.35224000  1.0 -0.1488715508
C  C551  1  0.70563000  0.53863000  0.68558000  1.0 -0.1488715508
C  C552  1  0.37230000  0.87196000  0.01891000  1.0 -0.1488715508
C  C553  1  0.06697000  0.16346000  0.38874000  1.0 0.0069573269
C  C554  1  0.73364000  0.49679000  0.72207000  1.0 0.0069573269
C  C555  1  0.40031000  0.83012000  0.05540000  1.0 0.0069573269
C  C556  1  0.06192000  0.18810000  0.38530000  1.0 -0.0105229695
C  C557  1  0.72859000  0.52143000  0.71863000  1.0 -0.0105229695
C  C558  1  0.39526000  0.85476000  0.05196000  1.0 -0.0105229695
C  C559  1  0.04562000  0.18003000  0.35794000  1.0 -0.0980689686
C  C560  1  0.71228000  0.51337000  0.69128000  1.0 -0.0980689686
C  C561  1  0.37895000  0.84670000  0.02461000  1.0 -0.0980689686
C  C562  1  0.03500000  0.14686000  0.33322000  1.0 -0.1299715571
C  C563  1  0.70166000  0.48020000  0.66656000  1.0 -0.1299715571
C  C564  1  0.36833000  0.81353000  0.99989000  1.0 -0.1299715571
C  C565  1  0.05606000  0.12999000  0.36441000  1.0 -0.0697594218
C  C566  1  0.72272000  0.46333000  0.69775000  1.0 -0.0697594218
C  C567  1  0.38939000  0.79666000  0.03108000  1.0 -0.0697594218
C  C568  1  0.01201000  0.21746000  0.32378000  1.0 -0.1070918834
C  C569  1  0.67868000  0.55079000  0.65711000  1.0 -0.1070918834
C  C570  1  0.34534000  0.88413000  0.99045000  1.0 -0.1070918834
C  C571  1  0.01729000  0.19310000  0.32833000  1.0 -0.1396074713
C  C572  1  0.68396000  0.52643000  0.66166000  1.0 -0.1396074713
C  C573  1  0.35062000  0.85977000  0.99500000  1.0 -0.1396074713
C  C574  1  0.04959000  0.26616000  0.36866000  1.0 -0.0697594218
C  C575  1  0.71626000  0.59949000  0.70199000  1.0 -0.0697594218
C  C576  1  0.38292000  0.93283000  0.03533000  1.0 -0.0697594218
C  C577  1  0.05472000  0.24184000  0.37218000  1.0 -0.1299715571
C  C578  1  0.72139000  0.57517000  0.70551000  1.0 -0.1299715571
C  C579  1  0.38805000  0.90851000  0.03885000  1.0 -0.1299715571
C  C580  1  0.04052000  0.12141000  0.33612000  1.0 -0.1186218489
C  C581  1  0.70719000  0.45474000  0.66945000  1.0 -0.1186218489
C  C582  1  0.37386000  0.78807000  0.00278000  1.0 -0.1186218489
C  C583  1  0.02219000  0.28067000  0.33780000  1.0 0.0016769887
C  C584  1  0.68886000  0.61400000  0.67113000  1.0 0.0069573269
C  C585  1  0.35552000  0.94734000  0.00447000  1.0 0.0069573269
C  C586  1  0.38081000  0.33135000  0.42111000  1.0 -0.080317427
C  C587  1  0.04748000  0.66468000  0.75444000  1.0 -0.080317427
C  C588  1  0.71415000  0.99801000  0.08777000  1.0 -0.080317427
C  C589  1  0.40237000  0.32332000  0.47027000  1.0 -0.1488715508
C  C590  1  0.06904000  0.65665000  0.80360000  1.0 -0.1488715508
C  C591  1  0.73571000  0.98998000  0.13693000  1.0 -0.1488715508
C  C592  1  0.42000000  0.32521000  0.55049000  1.0 -0.0105229695
C  C593  1  0.08666000  0.65855000  0.88383000  1.0 -0.0105229695
C  C594  1  0.75333000  0.99188000  0.21716000  1.0 -0.0105229695
C  C595  1  0.40903000  0.32952000  0.52672000  1.0 -0.0105229695
C  C596  1  0.07569000  0.66286000  0.86006000  1.0 -0.0105229695
C  C597  1  0.74236000  0.99619000  0.19339000  1.0 -0.0105229695
C  C598  1  0.41364000  0.31965000  0.49756000  1.0 -0.0980689686
C  C599  1  0.08031000  0.65298000  0.83089000  1.0 -0.0980689686
C  C600  1  0.74698000  0.98631000  0.16422000  1.0 -0.0980689686
C  C601  1  0.43056000  0.30621000  0.49257000  1.0 -0.1488715508
C  C602  1  0.09723000  0.63954000  0.82590000  1.0 -0.1488715508
C  C603  1  0.76389000  0.97288000  0.15924000  1.0 -0.1488715508
C  C604  1  0.43645000  0.31125000  0.54567000  1.0 -0.0105229695
C  C605  1  0.10312000  0.64458000  0.87900000  1.0 -0.0105229695
C  C606  1  0.76978000  0.97792000  0.21234000  1.0 -0.0105229695
C  C607  1  0.39034000  0.30990000  0.41622000  1.0 -0.0980689686
C  C608  1  0.05700000  0.64324000  0.74956000  1.0 -0.0980689686
C  C609  1  0.72367000  0.97657000  0.08289000  1.0 -0.0980689686
C  C610  1  0.40070000  0.30555000  0.44078000  1.0 -0.16614438
C  C611  1  0.06737000  0.63888000  0.77411000  1.0 -0.16614438
C  C612  1  0.73404000  0.97221000  0.10744000  1.0 -0.16614438
C  C613  1  0.38176000  0.34876000  0.45126000  1.0 -0.0980689686
C  C614  1  0.04843000  0.68209000  0.78459000  1.0 -0.0980689686
C  C615  1  0.71510000  0.01542000  0.11792000  1.0 -0.0980689686
C  C616  1  0.39265000  0.34461000  0.47495000  1.0 -0.1299715571
C  C617  1  0.05932000  0.67794000  0.80828000  1.0 -0.1299715571
C  C618  1  0.72599000  0.01127000  0.14161000  1.0 -0.1299715571
C  C619  1  0.44264000  0.30229000  0.51700000  1.0 -0.080317427
C  C620  1  0.10931000  0.63562000  0.85033000  1.0 -0.080317427
C  C621  1  0.77598000  0.96895000  0.18366000  1.0 -0.080317427
C  C622  1  0.37010000  0.33648000  0.39361000  1.0 0.0016769887
C  C623  1  0.03677000  0.66981000  0.72694000  1.0 0.0016769887
C  C624  1  0.70343000  0.00315000  0.06028000  1.0 0.0016769887
C  C625  1  0.28387000  0.19609000  0.28585000  1.0 -0.0446406076
C  C626  1  0.95053000  0.52943000  0.61919000  1.0 -0.0446406076
C  C627  1  0.61720000  0.86276000  0.95252000  1.0 -0.0446406076
C  C628  1  0.25428000  0.11734000  0.26429000  1.0 -0.0980689686
C  C629  1  0.92094000  0.45068000  0.59763000  1.0 -0.0980689686
C  C630  1  0.58761000  0.78401000  0.93096000  1.0 -0.0980689686
C  C631  1  0.23855000  0.02139000  0.24667000  1.0 0.0069573269
C  C632  1  0.90522000  0.35472000  0.58000000  1.0 0.0069573269
C  C633  1  0.57188000  0.68806000  0.91334000  1.0 0.0069573269
C  C634  1  0.25383000  0.06044000  0.25764000  1.0 0.0069573269
C  C635  1  0.92050000  0.39377000  0.59097000  1.0 0.0069573269
C  C636  1  0.58716000  0.72711000  0.92431000  1.0 0.0069573269
C  C637  1  0.23934000  0.07511000  0.25302000  1.0 -0.0191552702
C  C638  1  0.90600000  0.40845000  0.58636000  1.0 -0.0191552702
C  C639  1  0.57267000  0.74178000  0.91969000  1.0 -0.0191552702
C  C640  1  0.20898000  0.04975000  0.23611000  1.0 -0.0285832137
C  C641  1  0.87565000  0.38308000  0.56944000  1.0 -0.0285832137
C  C642  1  0.54232000  0.71641000  0.90277000  1.0 -0.0285832137
C  C643  1  0.20813000  0.99580000  0.23022000  1.0 -0.0105229695
C  C644  1  0.87480000  0.32913000  0.56355000  1.0 -0.0105229695
C  C645  1  0.54147000  0.66246000  0.89688000  1.0 -0.0105229695
C  C646  1  0.25290000  0.17001000  0.27633000  1.0 -0.080317427
C  C647  1  0.91957000  0.50334000  0.60966000  1.0 -0.0697594218
C  C648  1  0.58623000  0.83668000  0.94300000  1.0 -0.080317427
C  C649  1  0.23818000  0.13073000  0.26596000  1.0 -0.1186218489
C  C650  1  0.90484000  0.46407000  0.59930000  1.0 -0.1186218489
C  C651  1  0.57151000  0.79740000  0.93263000  1.0 -0.1186218489
C  C652  1  0.30033000  0.18240000  0.28490000  1.0 -0.0615640881
C  C653  1  0.96699000  0.51574000  0.61824000  1.0 -0.0615640881
C  C654  1  0.63366000  0.84907000  0.95157000  1.0 -0.0615640881
C  C655  1  0.28529000  0.14367000  0.27401000  1.0 -0.1299715571
C  C656  1  0.95195000  0.47701000  0.60735000  1.0 -0.1299715571
C  C657  1  0.61862000  0.81034000  0.94068000  1.0 -0.1299715571
C  C658  1  0.19298000  0.00931000  0.22402000  1.0 -0.0285832137
C  C659  1  0.85964000  0.34265000  0.55736000  1.0 -0.0285832137
C  C660  1  0.52631000  0.67598000  0.89069000  1.0 -0.0285832137
C  C661  1  0.29971000  0.23944000  0.29657000  1.0 -0.052322323
C  C662  1  0.96638000  0.57277000  0.62990000  1.0 -0.052322323
C  C663  1  0.63305000  0.90610000  0.96323000  1.0 -0.052322323
C  C664  1  0.24556000  0.29304000  0.38280000  1.0 -0.0615640881
C  C665  1  0.91223000  0.62637000  0.71613000  1.0 -0.0615640881
C  C666  1  0.57889000  0.95971000  0.04947000  1.0 -0.0615640881
C  C667  1  0.19640000  0.26544000  0.41239000  1.0 -0.1488715508
C  C668  1  0.86307000  0.59877000  0.74572000  1.0 -0.1488715508
C  C669  1  0.52973000  0.93211000  0.07906000  1.0 -0.1488715508
C  C670  1  0.11617000  0.20284000  0.42812000  1.0 0.0069573269
C  C671  1  0.78284000  0.53617000  0.76145000  1.0 0.0069573269
C  C672  1  0.44951000  0.86950000  0.09478000  1.0 0.0069573269
C  C673  1  0.13994000  0.21564000  0.41284000  1.0 -0.0105229695
C  C674  1  0.80661000  0.54897000  0.74617000  1.0 -0.0105229695
C  C675  1  0.47328000  0.88230000  0.07950000  1.0 -0.0105229695
C  C676  1  0.16911000  0.24942000  0.42733000  1.0 -0.0980689686
C  C677  1  0.83578000  0.58275000  0.76066000  1.0 -0.0919346018
C  C678  1  0.50244000  0.91609000  0.09400000  1.0 -0.0980689686
C  C679  1  0.17410000  0.27132000  0.45768000  1.0 -0.1299715571
C  C680  1  0.84076000  0.60466000  0.79102000  1.0 -0.1299715571
C  C681  1  0.50743000  0.93799000  0.12435000  1.0 -0.1299715571
C  C682  1  0.12100000  0.22411000  0.45853000  1.0 -0.0697594218
C  C683  1  0.78766000  0.55745000  0.79187000  1.0 -0.0697594218
C  C684  1  0.45433000  0.89078000  0.12520000  1.0 -0.0697594218
C  C685  1  0.25044000  0.30745000  0.41377000  1.0 -0.1070918834
C  C686  1  0.91711000  0.64078000  0.74710000  1.0 -0.1070918834
C  C687  1  0.58378000  0.97411000  0.08043000  1.0 -0.1070918834
C  C688  1  0.22589000  0.29326000  0.42849000  1.0 -0.1396074713
C  C689  1  0.89256000  0.62659000  0.76182000  1.0 -0.1396074713
C  C690  1  0.55922000  0.95993000  0.09516000  1.0 -0.1396074713
C  C691  1  0.21541000  0.26384000  0.36634000  1.0 -0.0697594218
C  C692  1  0.88208000  0.59717000  0.69967000  1.0 -0.0697594218
C  C693  1  0.54874000  0.93051000  0.03301000  1.0 -0.0697594218
C  C694  1  0.19172000  0.25104000  0.38138000  1.0 -0.1299715571
C  C695  1  0.85839000  0.58437000  0.71471000  1.0 -0.1299715571
C  C696  1  0.52505000  0.91771000  0.04805000  1.0 -0.1299715571
C  C697  1  0.14967000  0.25898000  0.47369000  1.0 -0.1186218489
C  C698  1  0.81634000  0.59231000  0.80702000  1.0 -0.1186218489
C  C699  1  0.48300000  0.92565000  0.14036000  1.0 -0.1186218489
C  C700  1  0.27306000  0.30982000  0.36695000  1.0 0.0016769887
C  C701  1  0.93972000  0.64316000  0.70029000  1.0 0.0069573269
C  C702  1  0.60639000  0.97649000  0.03362000  1.0 0.0069573269
C  C703  1  0.11919000  0.04029000  0.45053000  1.0 -0.0615640881
C  C704  1  0.78585000  0.37363000  0.78387000  1.0 -0.0615640881
C  C705  1  0.45252000  0.70696000  0.11720000  1.0 -0.0615640881
C  C706  1  0.09763000  0.06789000  0.42094000  1.0 -0.1488715508
C  C707  1  0.76429000  0.40123000  0.75428000  1.0 -0.1488715508
C  C708  1  0.43096000  0.73456000  0.08761000  1.0 -0.1488715508
C  C709  1  0.08000000  0.13050000  0.40522000  1.0 0.0069573269
C  C710  1  0.74667000  0.46383000  0.73855000  1.0 0.0069573269
C  C711  1  0.41334000  0.79716000  0.07188000  1.0 0.0069573269
C  C712  1  0.09097000  0.11770000  0.42050000  1.0 -0.0105229695
C  C713  1  0.75764000  0.45103000  0.75383000  1.0 -0.0105229695
C  C714  1  0.42431000  0.78436000  0.08716000  1.0 -0.0105229695
C  C715  1  0.08636000  0.08391000  0.40600000  1.0 -0.0980689686
C  C716  1  0.75302000  0.41725000  0.73934000  1.0 -0.0919346018
C  C717  1  0.41969000  0.75058000  0.07267000  1.0 -0.0980689686
C  C718  1  0.06944000  0.06201000  0.37565000  1.0 -0.1299715571
C  C719  1  0.73611000  0.39534000  0.70898000  1.0 -0.1299715571
C  C720  1  0.40277000  0.72868000  0.04232000  1.0 -0.1299715571
C  C721  1  0.06355000  0.10922000  0.37480000  1.0 -0.0697594218
C  C722  1  0.73022000  0.44255000  0.70813000  1.0 -0.0697594218
C  C723  1  0.39688000  0.77589000  0.04147000  1.0 -0.0697594218
C  C724  1  0.10966000  0.02589000  0.41957000  1.0 -0.1070918834
C  C725  1  0.77633000  0.35922000  0.75290000  1.0 -0.1070918834
C  C726  1  0.44300000  0.69255000  0.08623000  1.0 -0.1070918834
C  C727  1  0.09930000  0.04007000  0.40484000  1.0 -0.1396074713
C  C728  1  0.76596000  0.37341000  0.73818000  1.0 -0.1396074713
C  C729  1  0.43263000  0.70674000  0.07151000  1.0 -0.1396074713
C  C730  1  0.11824000  0.06949000  0.46699000  1.0 -0.0697594218
C  C731  1  0.78490000  0.40283000  0.80033000  1.0 -0.0697594218
C  C732  1  0.45157000  0.73616000  0.13366000  1.0 -0.0697594218
C  C733  1  0.10735000  0.08229000  0.45195000  1.0 -0.1299715571
C  C734  1  0.77401000  0.41563000  0.78529000  1.0 -0.1299715571
C  C735  1  0.44068000  0.74896000  0.11862000  1.0 -0.1299715571
C  C736  1  0.05736000  0.07435000  0.35964000  1.0 -0.1186218489
C  C737  1  0.72402000  0.40769000  0.69298000  1.0 -0.1186218489
C  C738  1  0.39069000  0.74102000  0.02631000  1.0 -0.1186218489
C  C739  1  0.12990000  0.02351000  0.46638000  1.0 0.0016769887
C  C740  1  0.79657000  0.35684000  0.79971000  1.0 0.0016769887
C  C741  1  0.46323000  0.69018000  0.13305000  1.0 0.0069573269
C  C742  1  0.21613000  0.00199000  0.41223000  1.0 -0.080317427
C  C743  1  0.88280000  0.33532000  0.74556000  1.0 -0.080317427
C  C744  1  0.54947000  0.66865000  0.07889000  1.0 -0.080317427
C  C745  1  0.24572000  0.01002000  0.36307000  1.0 -0.1488715508
C  C746  1  0.91239000  0.34335000  0.69640000  1.0 -0.1488715508
C  C747  1  0.57906000  0.67668000  0.02973000  1.0 -0.1488715508
C  C748  1  0.26145000  0.00812000  0.28284000  1.0 -0.0105229695
C  C749  1  0.92812000  0.34145000  0.61617000  1.0 -0.0105229695
C  C750  1  0.59478000  0.67479000  0.94951000  1.0 -0.0105229695
C  C751  1  0.24617000  0.00381000  0.30661000  1.0 -0.0105229695
C  C752  1  0.91284000  0.33714000  0.63994000  1.0 -0.0105229695
C  C753  1  0.57950000  0.67048000  0.97328000  1.0 -0.0105229695
C  C754  1  0.26066000  0.01369000  0.33578000  1.0 -0.0980689686
C  C755  1  0.92733000  0.34702000  0.66911000  1.0 -0.0980689686
C  C756  1  0.59400000  0.68035000  0.00244000  1.0 -0.0980689686
C  C757  1  0.29102000  0.02712000  0.34076000  1.0 -0.1488715508
C  C758  1  0.95768000  0.36046000  0.67410000  1.0 -0.1488715508
C  C759  1  0.62435000  0.69379000  0.00743000  1.0 -0.1488715508
C  C760  1  0.29187000  0.02208000  0.28766000  1.0 -0.0105229695
C  C761  1  0.95853000  0.35542000  0.62100000  1.0 -0.0105229695
C  C762  1  0.62520000  0.68875000  0.95433000  1.0 -0.0105229695
C  C763  1  0.24710000  0.02343000  0.41711000  1.0 -0.0980689686
C  C764  1  0.91377000  0.35676000  0.75044000  1.0 -0.0980689686
C  C765  1  0.58043000  0.69010000  0.08378000  1.0 -0.0980689686
C  C766  1  0.26182000  0.02779000  0.39256000  1.0 -0.16614438
C  C767  1  0.92849000  0.36112000  0.72589000  1.0 -0.16614438
C  C768  1  0.59516000  0.69445000  0.05922000  1.0 -0.16614438
C  C769  1  0.19967000  0.98458000  0.38208000  1.0 -0.0980689686
C  C770  1  0.86634000  0.31791000  0.71541000  1.0 -0.0980689686
C  C771  1  0.53301000  0.65124000  0.04874000  1.0 -0.0980689686
C  C772  1  0.21471000  0.98873000  0.35839000  1.0 -0.1299715571
C  C773  1  0.88138000  0.32206000  0.69172000  1.0 -0.1299715571
C  C774  1  0.54805000  0.65539000  0.02505000  1.0 -0.1299715571
C  C775  1  0.30702000  0.03105000  0.31634000  1.0 -0.080317427
C  C776  1  0.97369000  0.36438000  0.64967000  1.0 -0.080317427
C  C777  1  0.64036000  0.69771000  0.98300000  1.0 -0.080317427
C  C778  1  0.20029000  0.99685000  0.43972000  1.0 0.0016769887
C  C779  1  0.86695000  0.33019000  0.77306000  1.0 0.0016769887
C  C780  1  0.53362000  0.66352000  0.10639000  1.0 0.0016769887
C  C781  1  0.25444000  0.13724000  0.54748000  1.0 -0.0446406076
C  C782  1  0.92111000  0.47057000  0.88081000  1.0 -0.0446406076
C  C783  1  0.58777000  0.80391000  0.21415000  1.0 -0.0446406076
C  C784  1  0.30360000  0.21599000  0.56904000  1.0 -0.0980689686
C  C785  1  0.97027000  0.54932000  0.90237000  1.0 -0.0980689686
C  C786  1  0.63693000  0.88266000  0.23571000  1.0 -0.0980689686
C  C787  1  0.38383000  0.31194000  0.58666000  1.0 0.0069573269
C  C788  1  0.05049000  0.64528000  0.92000000  1.0 0.0069573269
C  C789  1  0.71716000  0.97861000  0.25333000  1.0 0.0069573269
C  C790  1  0.36006000  0.27289000  0.57569000  1.0 0.0069573269
C  C791  1  0.02672000  0.60623000  0.90903000  1.0 0.0069573269
C  C792  1  0.69339000  0.93956000  0.24236000  1.0 0.0069573269
C  C793  1  0.33089000  0.25822000  0.58031000  1.0 -0.0191552702
C  C794  1  0.99756000  0.59155000  0.91364000  1.0 -0.0191552702
C  C795  1  0.66422000  0.92489000  0.24698000  1.0 -0.0191552702
C  C796  1  0.32590000  0.28359000  0.59723000  1.0 -0.0285832137
C  C797  1  0.99257000  0.61692000  0.93056000  1.0 -0.0285832137
C  C798  1  0.65924000  0.95025000  0.26389000  1.0 -0.0285832137
C  C799  1  0.37900000  0.33754000  0.60312000  1.0 -0.0105229695
C  C800  1  0.04567000  0.67087000  0.93645000  1.0 -0.0105229695
C  C801  1  0.71234000  0.00420000  0.26978000  1.0 -0.0105229695
C  C802  1  0.24956000  0.16332000  0.55700000  1.0 -0.080317427
C  C803  1  0.91622000  0.49666000  0.89034000  1.0 -0.080317427
C  C804  1  0.58289000  0.82999000  0.22367000  1.0 -0.080317427
C  C805  1  0.27411000  0.20260000  0.56737000  1.0 -0.1186218489
C  C806  1  0.94078000  0.53593000  0.90070000  1.0 -0.1186218489
C  C807  1  0.60744000  0.86927000  0.23404000  1.0 -0.1186218489
C  C808  1  0.28459000  0.15093000  0.54843000  1.0 -0.0615640881
C  C809  1  0.95126000  0.48426000  0.88176000  1.0 -0.0615640881
C  C810  1  0.61792000  0.81760000  0.21510000  1.0 -0.0615640881
C  C811  1  0.30828000  0.18966000  0.55932000  1.0 -0.1299715571
C  C812  1  0.97495000  0.52299000  0.89265000  1.0 -0.1299715571
C  C813  1  0.64161000  0.85633000  0.22599000  1.0 -0.1299715571
C  C814  1  0.35033000  0.32402000  0.60931000  1.0 -0.0285832137
C  C815  1  0.01700000  0.65735000  0.94264000  1.0 -0.0285832137
C  C816  1  0.68366000  0.99069000  0.27598000  1.0 -0.0285832137
C  C817  1  0.22694000  0.09390000  0.53677000  1.0 -0.052322323
C  C818  1  0.89361000  0.42723000  0.87010000  1.0 -0.052322323
C  C819  1  0.56028000  0.76056000  0.20343000  1.0 -0.052322323
C  C820  1  0.94065000  0.07939000  0.48963000  1.0 -0.0615640881
C  C821  1  0.60732000  0.41272000  0.82296000  1.0 -0.0615640881
C  C822  1  0.27399000  0.74605000  0.15629000  1.0 -0.0615640881
C  C823  1  0.00034000  0.12804000  0.48109000  1.0 -0.1488715508
C  C824  1  0.66701000  0.46137000  0.81442000  1.0 -0.1488715508
C  C825  1  0.33367000  0.79471000  0.14776000  1.0 -0.1488715508
C  C826  1  0.07018000  0.16988000  0.44460000  1.0 0.0069573269
C  C827  1  0.73685000  0.50321000  0.77793000  1.0 0.0069573269
C  C828  1  0.40352000  0.83654000  0.11126000  1.0 0.0069573269
C  C829  1  0.04049000  0.14524000  0.44804000  1.0 -0.0105229695
C  C830  1  0.70716000  0.47857000  0.78137000  1.0 -0.0105229695
C  C831  1  0.37383000  0.81190000  0.11470000  1.0 -0.0105229695
C  C832  1  0.03225000  0.15330000  0.47539000  1.0 -0.0980689686
C  C833  1  0.69892000  0.48663000  0.80872000  1.0 -0.0919346018
C  C834  1  0.36558000  0.81997000  0.14206000  1.0 -0.0980689686
C  C835  1  0.05480000  0.18647000  0.50011000  1.0 -0.1299715571
C  C836  1  0.72147000  0.51980000  0.83344000  1.0 -0.1299715571
C  C837  1  0.38813000  0.85314000  0.16678000  1.0 -0.1299715571
C  C838  1  0.09273000  0.20334000  0.46892000  1.0 -0.0697594218
C  C839  1  0.75940000  0.53667000  0.80225000  1.0 -0.0697594218
C  C840  1  0.42606000  0.87001000  0.13559000  1.0 -0.0697594218
C  C841  1  0.96122000  0.11587000  0.50955000  1.0 -0.1070918834
C  C842  1  0.62788000  0.44921000  0.84289000  1.0 -0.1070918834
C  C843  1  0.29455000  0.78254000  0.17622000  1.0 -0.1070918834
C  C844  1  0.99086000  0.14023000  0.50500000  1.0 -0.1396074713
C  C845  1  0.65752000  0.47357000  0.83834000  1.0 -0.1396074713
C  C846  1  0.32419000  0.80690000  0.17167000  1.0 -0.1396074713
C  C847  1  0.95010000  0.06717000  0.46467000  1.0 -0.0697594218
C  C848  1  0.61676000  0.40051000  0.79801000  1.0 -0.0697594218
C  C849  1  0.28343000  0.73384000  0.13134000  1.0 -0.0697594218
C  C850  1  0.97955000  0.09149000  0.46115000  1.0 -0.1299715571
C  C851  1  0.64621000  0.42483000  0.79449000  1.0 -0.1299715571
C  C852  1  0.31288000  0.75816000  0.12782000  1.0 -0.1299715571
C  C853  1  0.08578000  0.21193000  0.49722000  1.0 -0.1186218489
C  C854  1  0.75245000  0.54526000  0.83055000  1.0 -0.1186218489
C  C855  1  0.41912000  0.87859000  0.16388000  1.0 -0.1186218489
C  C856  1  0.90819000  0.05266000  0.49553000  1.0 0.0069573269
C  C857  1  0.57485000  0.38600000  0.82887000  1.0 0.0016769887
C  C858  1  0.24152000  0.71933000  0.16220000  1.0 0.0069573269
C  C859  1  0.84371000  0.11769000  0.52793000  1.0 -0.080317427
C  C860  1  0.51037000  0.45103000  0.86127000  1.0 -0.080317427
C  C861  1  0.17704000  0.78436000  0.19460000  1.0 -0.080317427
C  C862  1  0.85224000  0.18592000  0.53897000  1.0 -0.1488715508
C  C863  1  0.51891000  0.51925000  0.87230000  1.0 -0.1488715508
C  C864  1  0.18558000  0.85258000  0.20563000  1.0 -0.1488715508
C  C865  1  0.88874000  0.29225000  0.56697000  1.0 -0.0105229695
C  C866  1  0.55540000  0.62559000  0.90031000  1.0 -0.0105229695
C  C867  1  0.22207000  0.95892000  0.23364000  1.0 -0.0105229695
C  C868  1  0.88530000  0.25912000  0.56192000  1.0 -0.0105229695
C  C869  1  0.55196000  0.59246000  0.89526000  1.0 -0.0105229695
C  C870  1  0.21863000  0.92579000  0.22859000  1.0 -0.0105229695
C  C871  1  0.85794000  0.22353000  0.54562000  1.0 -0.0980689686
C  C872  1  0.52461000  0.55686000  0.87895000  1.0 -0.0980689686
C  C873  1  0.19128000  0.89019000  0.21228000  1.0 -0.0980689686
C  C874  1  0.83322000  0.22136000  0.53500000  1.0 -0.1488715508
C  C875  1  0.49989000  0.55469000  0.86833000  1.0 -0.1488715508
C  C876  1  0.16656000  0.88802000  0.20166000  1.0 -0.1488715508
C  C877  1  0.86441000  0.29048000  0.55606000  1.0 -0.0105229695
C  C878  1  0.53108000  0.62381000  0.88939000  1.0 -0.0105229695
C  C879  1  0.19775000  0.95714000  0.22272000  1.0 -0.0105229695
C  C880  1  0.82378000  0.11833000  0.51201000  1.0 -0.0980689686
C  C881  1  0.49045000  0.45166000  0.84534000  1.0 -0.0980689686
C  C882  1  0.15711000  0.78500000  0.17868000  1.0 -0.0980689686
C  C883  1  0.82833000  0.15252000  0.51729000  1.0 -0.16614438
C  C884  1  0.49500000  0.48585000  0.85062000  1.0 -0.16614438
C  C885  1  0.16166000  0.81919000  0.18396000  1.0 -0.16614438
C  C886  1  0.86866000  0.15209000  0.54959000  1.0 -0.0980689686
C  C887  1  0.53533000  0.48542000  0.88292000  1.0 -0.0980689686
C  C888  1  0.20199000  0.81876000  0.21626000  1.0 -0.0980689686
C  C889  1  0.87218000  0.18506000  0.55472000  1.0 -0.1299715571
C  C890  1  0.53885000  0.51839000  0.88805000  1.0 -0.1299715571
C  C891  1  0.20551000  0.85173000  0.22139000  1.0 -0.1299715571
C  C892  1  0.83612000  0.25523000  0.54052000  1.0 -0.080317427
C  C893  1  0.50278000  0.58857000  0.87386000  1.0 -0.080317427
C  C894  1  0.16945000  0.92190000  0.20719000  1.0 -0.080317427
C  C895  1  0.83780000  0.07932000  0.52219000  1.0 0.0016769887
C  C896  1  0.50447000  0.41265000  0.85552000  1.0 0.0016769887
C  C897  1  0.17113000  0.74599000  0.18886000  1.0 0.0016769887
C  C898  1  0.80540000  0.98244000  0.39268000  1.0 -0.0446406076
C  C899  1  0.47207000  0.31577000  0.72601000  1.0 -0.0446406076
C  C900  1  0.13873000  0.64911000  0.05935000  1.0 -0.0446406076
C  C901  1  0.79437000  0.97994000  0.33299000  1.0 -0.0980689686
C  C902  1  0.46103000  0.31328000  0.66633000  1.0 -0.0980689686
C  C903  1  0.12770000  0.64661000  0.99966000  1.0 -0.0980689686
C  C904  1  0.76636000  0.98843000  0.26315000  1.0 0.0069573269
C  C905  1  0.43303000  0.32176000  0.59648000  1.0 0.0069573269
C  C906  1  0.09969000  0.65510000  0.92982000  1.0 0.0069573269
C  C907  1  0.77141000  0.99004000  0.29284000  1.0 0.0069573269
C  C908  1  0.43808000  0.32337000  0.62617000  1.0 0.0069573269
C  C909  1  0.10474000  0.65671000  0.95951000  1.0 0.0069573269
C  C910  1  0.78772000  0.97899000  0.30108000  1.0 -0.0191552702
C  C911  1  0.45438000  0.31233000  0.63442000  1.0 -0.0191552702
C  C912  1  0.12105000  0.64566000  0.96775000  1.0 -0.0191552702
C  C913  1  0.79834000  0.96489000  0.27853000  1.0 -0.0285832137
C  C914  1  0.46500000  0.29823000  0.61187000  1.0 -0.0285832137
C  C915  1  0.13167000  0.63156000  0.94520000  1.0 -0.0285832137
C  C916  1  0.77728000  0.97502000  0.24060000  1.0 -0.0105229695
C  C917  1  0.44394000  0.30836000  0.57394000  1.0 -0.0105229695
C  C918  1  0.11061000  0.64169000  0.90727000  1.0 -0.0105229695
C  C919  1  0.82132000  0.97844000  0.37212000  1.0 -0.080317427
C  C920  1  0.48799000  0.31177000  0.70545000  1.0 -0.080317427
C  C921  1  0.15466000  0.64510000  0.03878000  1.0 -0.080317427
C  C922  1  0.81604000  0.97771000  0.34248000  1.0 -0.1186218489
C  C923  1  0.48271000  0.31104000  0.67581000  1.0 -0.1186218489
C  C924  1  0.14938000  0.64437000  0.00914000  1.0 -0.1186218489
C  C925  1  0.78374000  0.98574000  0.38324000  1.0 -0.0615640881
C  C926  1  0.45041000  0.31907000  0.71657000  1.0 -0.0615640881
C  C927  1  0.11708000  0.65240000  0.04990000  1.0 -0.0615640881
C  C928  1  0.77861000  0.98413000  0.35379000  1.0 -0.1299715571
C  C929  1  0.44528000  0.31746000  0.68712000  1.0 -0.1299715571
C  C930  1  0.11195000  0.65079000  0.02045000  1.0 -0.1299715571
C  C931  1  0.79281000  0.96226000  0.24755000  1.0 -0.0285832137
C  C932  1  0.45948000  0.29559000  0.58088000  1.0 -0.0285832137
C  C933  1  0.12614000  0.62893000  0.91422000  1.0 -0.0285832137
C  C934  1  0.81114000  0.98228000  0.42515000  1.0 -0.052322323
C  C935  1  0.47781000  0.31561000  0.75848000  1.0 -0.052322323
C  C936  1  0.14448000  0.64894000  0.09181000  1.0 -0.052322323
C  C937  1  0.58333000  0.66666667  0.41667000  1.0 0.0192461548
C  C938  1  0.25000000  0.00000000  0.75000000  1.0 0.0192461548
C  C939  1  0.91667000  0.33333333  0.08333000  1.0 0.0192461548
C  C940  1  0.08333000  0.66666667  0.41667000  1.0 0.0192461548
C  C941  1  0.75000000  0.00000000  0.75000000  1.0 0.0192461548
C  C942  1  0.41667000  0.33333333  0.08333000  1.0 0.0192461548
C  C943  1  0.91667000  0.83333000  0.58333000  1.0 0.0192461548
C  C944  1  0.58333000  0.16667000  0.91667000  1.0 0.0192461548
C  C945  1  0.25000000  0.50000000  0.25000000  1.0 0.0192461548
C  C946  1  0.75000000  0.00000000  0.25000000  1.0 0.0192461548
C  C947  1  0.41667000  0.33333333  0.58333000  1.0 0.0192461548
C  C948  1  0.08333000  0.66666667  0.91667000  1.0 0.0192461548
C  C949  1  0.25000000  0.00000000  0.25000000  1.0 0.0192461548
C  C950  1  0.91667000  0.33333333  0.58333000  1.0 0.0192461548
C  C951  1  0.58333000  0.66666667  0.91667000  1.0 0.0192461548
C  C952  1  0.08333000  0.16667000  0.41667000  1.0 0.0192461548
C  C953  1  0.75000000  0.50000000  0.75000000  1.0 0.0192461548
C  C954  1  0.41667000  0.83333000  0.08333000  1.0 0.0192461548
O  O1  1  0.06964000  0.71659000  0.67131000  1.0 0.1493981222
O  O2  1  0.73631000  0.04992000  0.00464000  1.0 0.1591168935
O  O3  1  0.40297000  0.38326000  0.33798000  1.0 0.1591168935
O  O4  1  0.05693000  0.74930000  0.70416000  1.0 0.1436768274
O  O5  1  0.72360000  0.08263000  0.03749000  1.0 0.1493981222
O  O6  1  0.39027000  0.41596000  0.37082000  1.0 0.1493981222
O  O7  1  0.98028000  0.64231000  0.59703000  1.0 0.0695720223
O  O8  1  0.64695000  0.97564000  0.93036000  1.0 0.0695720223
O  O9  1  0.31362000  0.30897000  0.26369000  1.0 0.0695720223
O  O10  1  0.02570000  0.65487000  0.60973000  1.0 0.0485805016
O  O11  1  0.69236000  0.98821000  0.94307000  1.0 0.0485805016
O  O12  1  0.35903000  0.32154000  0.27640000  1.0 0.0485805016
O  O13  1  0.99536000  0.73166000  0.68638000  1.0 0.1852769384
O  O14  1  0.66202000  0.06500000  0.01972000  1.0 0.1852769384
O  O15  1  0.32869000  0.39833000  0.35305000  1.0 0.1852769384
O  O16  1  0.96251000  0.68611000  0.64097000  1.0 0.1493981222
O  O17  1  0.62918000  0.01944000  0.97430000  1.0 0.1493981222
O  O18  1  0.29584000  0.35278000  0.30764000  1.0 0.1493981222
O  O19  1  0.62721000  0.67712000  0.63184000  1.0 0.1591168935
O  O20  1  0.29388000  0.01045000  0.96517000  1.0 0.1591168935
O  O21  1  0.96055000  0.34378000  0.29850000  1.0 0.1591168935
O  O22  1  0.63983000  0.64422000  0.59908000  1.0 0.1493981222
O  O23  1  0.30649000  0.97756000  0.93242000  1.0 0.1436768274
O  O24  1  0.97316000  0.31089000  0.26575000  1.0 0.1493981222
O  O25  1  0.71657000  0.75140000  0.70612000  1.0 0.0695720223
O  O26  1  0.38324000  0.08473000  0.03945000  1.0 0.0695720223
O  O27  1  0.04990000  0.41807000  0.37279000  1.0 0.0695720223
O  O28  1  0.67106000  0.73865000  0.69351000  1.0 0.0485805016
O  O29  1  0.33773000  0.07198000  0.02684000  1.0 0.0485805016
O  O30  1  0.00440000  0.40531000  0.36017000  1.0 0.0485805016
O  O31  1  0.70150000  0.66204000  0.61676000  1.0 0.1852769384
O  O32  1  0.36816000  0.99538000  0.95010000  1.0 0.1852769384
O  O33  1  0.03483000  0.32871000  0.28343000  1.0 0.1845178323
O  O34  1  0.73425000  0.70741000  0.66227000  1.0 0.1493981222
O  O35  1  0.40092000  0.04074000  0.99560000  1.0 0.1493981222
O  O36  1  0.06758000  0.37408000  0.32894000  1.0 0.1493981222
O  O37  1  0.87279000  0.00462000  0.54990000  1.0 0.1852769384
O  O38  1  0.53945000  0.33796000  0.88324000  1.0 0.1852769384
O  O39  1  0.20612000  0.67129000  0.21657000  1.0 0.1845178323
O  O40  1  0.86017000  0.95926000  0.50440000  1.0 0.1493981222
O  O41  1  0.52684000  0.29259000  0.83773000  1.0 0.1493981222
O  O42  1  0.19351000  0.62592000  0.17106000  1.0 0.1493981222
O  O43  1  0.78343000  0.98955000  0.53483000  1.0 0.1591168935
O  O44  1  0.45010000  0.32288000  0.86816000  1.0 0.1591168935
O  O45  1  0.11676000  0.65622000  0.20150000  1.0 0.1493981222
O  O46  1  0.82894000  0.02244000  0.56758000  1.0 0.1493981222
O  O47  1  0.49560000  0.35578000  0.90092000  1.0 0.1493981222
O  O48  1  0.16227000  0.68911000  0.23425000  1.0 0.1436768274
O  O49  1  0.79850000  0.91527000  0.46055000  1.0 0.0695720223
O  O50  1  0.46517000  0.24860000  0.79388000  1.0 0.0695720223
O  O51  1  0.13184000  0.58193000  0.12721000  1.0 0.0695720223
O  O52  1  0.76575000  0.92802000  0.47316000  1.0 0.0485805016
O  O53  1  0.43242000  0.26135000  0.80649000  1.0 0.0485805016
O  O54  1  0.09908000  0.59469000  0.13983000  1.0 0.0485805016
O  O55  1  0.09703000  0.93500000  0.48028000  1.0 0.1852769384
O  O56  1  0.76369000  0.26834000  0.81362000  1.0 0.1852769384
O  O57  1  0.43036000  0.60167000  0.14695000  1.0 0.1852769384
O  O58  1  0.10973000  0.98056000  0.52570000  1.0 0.1493981222
O  O59  1  0.77640000  0.31389000  0.85903000  1.0 0.1493981222
O  O60  1  0.44307000  0.64722000  0.19236000  1.0 0.1493981222
O  O61  1  0.18638000  0.95008000  0.49536000  1.0 0.1493981222
O  O62  1  0.85305000  0.28341000  0.82869000  1.0 0.1591168935
O  O63  1  0.51972000  0.61674000  0.16202000  1.0 0.1591168935
O  O64  1  0.14097000  0.91737000  0.46251000  1.0 0.1436768274
O  O65  1  0.80764000  0.25070000  0.79584000  1.0 0.1493981222
O  O66  1  0.47430000  0.58404000  0.12918000  1.0 0.1436768274
O  O67  1  0.17131000  0.02436000  0.56964000  1.0 0.0695720223
O  O68  1  0.83798000  0.35769000  0.90297000  1.0 0.0695720223
O  O69  1  0.50464000  0.69103000  0.23631000  1.0 0.0695720223
O  O70  1  0.20416000  0.01179000  0.55693000  1.0 0.0485805016
O  O71  1  0.87082000  0.34513000  0.89027000  1.0 0.0485805016
O  O72  1  0.53749000  0.67846000  0.22360000  1.0 0.0485805016
O  O73  1  0.93036000  0.28341000  0.32869000  1.0 0.1591168935
O  O74  1  0.59703000  0.61674000  0.66202000  1.0 0.1591168935
O  O75  1  0.26369000  0.95008000  0.99536000  1.0 0.1493981222
O  O76  1  0.94307000  0.25070000  0.29584000  1.0 0.1493981222
O  O77  1  0.60973000  0.58404000  0.62918000  1.0 0.1493981222
O  O78  1  0.27640000  0.91737000  0.96251000  1.0 0.1493981222
O  O79  1  0.01972000  0.35769000  0.40297000  1.0 0.0695720223
O  O80  1  0.68638000  0.69103000  0.73631000  1.0 0.0695720223
O  O81  1  0.35305000  0.02436000  0.06964000  1.0 0.0695720223
O  O82  1  0.97430000  0.34513000  0.39027000  1.0 0.0485805016
O  O83  1  0.64097000  0.67846000  0.72360000  1.0 0.0485805016
O  O84  1  0.30764000  0.01179000  0.05693000  1.0 0.0485805016
O  O85  1  0.00464000  0.26834000  0.31362000  1.0 0.1852769384
O  O86  1  0.67131000  0.60167000  0.64695000  1.0 0.1852769384
O  O87  1  0.33798000  0.93500000  0.98028000  1.0 0.1852769384
O  O88  1  0.03749000  0.31389000  0.35903000  1.0 0.1493981222
O  O89  1  0.70416000  0.64722000  0.69236000  1.0 0.1493981222
O  O90  1  0.37082000  0.98056000  0.02570000  1.0 0.1493981222
O  O91  1  0.37279000  0.32288000  0.36816000  1.0 0.1591168935
O  O92  1  0.03945000  0.65622000  0.70150000  1.0 0.1493981222
O  O93  1  0.70612000  0.98955000  0.03483000  1.0 0.1591168935
O  O94  1  0.36017000  0.35578000  0.40092000  1.0 0.1493981222
O  O95  1  0.02684000  0.68911000  0.73425000  1.0 0.1436768274
O  O96  1  0.69351000  0.02244000  0.06758000  1.0 0.1493981222
O  O97  1  0.28343000  0.24860000  0.29388000  1.0 0.0695720223
O  O98  1  0.95010000  0.58193000  0.62721000  1.0 0.0695720223
O  O99  1  0.61676000  0.91527000  0.96055000  1.0 0.0695720223
O  O100  1  0.32894000  0.26135000  0.30649000  1.0 0.0485805016
O  O101  1  0.99560000  0.59469000  0.63983000  1.0 0.0485805016
O  O102  1  0.66227000  0.92802000  0.97316000  1.0 0.0485805016
O  O103  1  0.29850000  0.33796000  0.38324000  1.0 0.1852769384
O  O104  1  0.96517000  0.67129000  0.71657000  1.0 0.1852769384
O  O105  1  0.63184000  0.00462000  0.04990000  1.0 0.1852769384
O  O106  1  0.26575000  0.29259000  0.33773000  1.0 0.1493981222
O  O107  1  0.93242000  0.62592000  0.67106000  1.0 0.1493981222
O  O108  1  0.59908000  0.95926000  0.00440000  1.0 0.1493981222
O  O109  1  0.12721000  0.99538000  0.45010000  1.0 0.1852769384
O  O110  1  0.79388000  0.32871000  0.78343000  1.0 0.1852769384
O  O111  1  0.46055000  0.66204000  0.11676000  1.0 0.1845178323
O  O112  1  0.13983000  0.04074000  0.49560000  1.0 0.1493981222
O  O113  1  0.80649000  0.37408000  0.82894000  1.0 0.1493981222
O  O114  1  0.47316000  0.70741000  0.16227000  1.0 0.1493981222
O  O115  1  0.21657000  0.01045000  0.46517000  1.0 0.1591168935
O  O116  1  0.88324000  0.34378000  0.79850000  1.0 0.1591168935
O  O117  1  0.54990000  0.67712000  0.13184000  1.0 0.1591168935
O  O118  1  0.17106000  0.97756000  0.43242000  1.0 0.1436768274
O  O119  1  0.83773000  0.31089000  0.76575000  1.0 0.1493981222
O  O120  1  0.50440000  0.64422000  0.09908000  1.0 0.1436768274
O  O121  1  0.20150000  0.08473000  0.53945000  1.0 0.0695720223
O  O122  1  0.86816000  0.41807000  0.87279000  1.0 0.0695720223
O  O123  1  0.53483000  0.75140000  0.20612000  1.0 0.0695720223
O  O124  1  0.23425000  0.07198000  0.52684000  1.0 0.0485805016
O  O125  1  0.90092000  0.40531000  0.86017000  1.0 0.0485805016
O  O126  1  0.56758000  0.73865000  0.19351000  1.0 0.0485805016
O  O127  1  0.90297000  0.06500000  0.51972000  1.0 0.1852769384
O  O128  1  0.56964000  0.39833000  0.85305000  1.0 0.1852769384
O  O129  1  0.23631000  0.73166000  0.18638000  1.0 0.1845178323
O  O130  1  0.89027000  0.01944000  0.47430000  1.0 0.1493981222
O  O131  1  0.55693000  0.35278000  0.80764000  1.0 0.1493981222
O  O132  1  0.22360000  0.68611000  0.14097000  1.0 0.1493981222
O  O133  1  0.81362000  0.04992000  0.50464000  1.0 0.1591168935
O  O134  1  0.48028000  0.38326000  0.83798000  1.0 0.1591168935
O  O135  1  0.14695000  0.71659000  0.17131000  1.0 0.1493981222
O  O136  1  0.85903000  0.08263000  0.53749000  1.0 0.1493981222
O  O137  1  0.52570000  0.41596000  0.87082000  1.0 0.1493981222
O  O138  1  0.19236000  0.74930000  0.20416000  1.0 0.1436768274
O  O139  1  0.82869000  0.97564000  0.43036000  1.0 0.0695720223
O  O140  1  0.49536000  0.30897000  0.76369000  1.0 0.0695720223
O  O141  1  0.16202000  0.64231000  0.09703000  1.0 0.0695720223
O  O142  1  0.79584000  0.98821000  0.44307000  1.0 0.0485805016
O  O143  1  0.46251000  0.32154000  0.77640000  1.0 0.0485805016
O  O144  1  0.12918000  0.65487000  0.10973000  1.0 0.0485805016
O  O145  1  0.39582000  0.31242000  0.31242000  1.0 -0.0919346018
O  O146  1  0.06249000  0.64575000  0.64575000  1.0 -0.0919346018
O  O147  1  0.72916000  0.97908000  0.97908000  1.0 -0.0919346018
O  O148  1  0.24993000  0.27084000  0.27084000  1.0 -0.080317427
O  O149  1  0.91659000  0.60418000  0.60418000  1.0 -0.080317427
O  O150  1  0.58326000  0.93751000  0.93751000  1.0 -0.080317427
O  O151  1  0.35425000  0.41674000  0.41674000  1.0 -0.080317427
O  O152  1  0.02092000  0.75007000  0.75007000  1.0 -0.080317427
O  O153  1  0.68758000  0.08341000  0.08341000  1.0 -0.080317427
O  O154  1  0.93751000  0.35425000  0.35425000  1.0 -0.0919346018
O  O155  1  0.60418000  0.68758000  0.68758000  1.0 -0.0919346018
O  O156  1  0.27084000  0.02092000  0.02092000  1.0 -0.0919346018
O  O157  1  0.08341000  0.39582000  0.39582000  1.0 -0.080317427
O  O158  1  0.75007000  0.72916000  0.72916000  1.0 -0.080317427
O  O159  1  0.41674000  0.06249000  0.06249000  1.0 -0.080317427
O  O160  1  0.97908000  0.24993000  0.24993000  1.0 -0.080317427
O  O161  1  0.64575000  0.58326000  0.58326000  1.0 -0.080317427
O  O162  1  0.31242000  0.91659000  0.91659000  1.0 -0.080317427
O  O163  1  0.89582000  0.08341000  0.58341000  1.0 -0.080317427
O  O164  1  0.56249000  0.41674000  0.91674000  1.0 -0.080317427
O  O165  1  0.22916000  0.75007000  0.25007000  1.0 -0.080317427
O  O166  1  0.74993000  0.97908000  0.47908000  1.0 -0.0919346018
O  O167  1  0.41659000  0.31242000  0.81242000  1.0 -0.0919346018
O  O168  1  0.08326000  0.64575000  0.14575000  1.0 -0.0919346018
O  O169  1  0.85425000  0.93751000  0.43751000  1.0 -0.080317427
O  O170  1  0.52092000  0.27084000  0.77084000  1.0 -0.080317427
O  O171  1  0.18758000  0.60418000  0.10418000  1.0 -0.080317427
O  O172  1  0.10418000  0.91659000  0.41659000  1.0 -0.080317427
O  O173  1  0.77084000  0.24993000  0.74993000  1.0 -0.080317427
O  O174  1  0.43751000  0.58326000  0.08326000  1.0 -0.080317427
O  O175  1  0.25007000  0.02092000  0.52092000  1.0 -0.0919346018
O  O176  1  0.91674000  0.35425000  0.85425000  1.0 -0.0919346018
O  O177  1  0.58341000  0.68758000  0.18758000  1.0 -0.0919346018
O  O178  1  0.14575000  0.06249000  0.56249000  1.0 -0.080317427
O  O179  1  0.81242000  0.39582000  0.89582000  1.0 -0.080317427
O  O180  1  0.47908000  0.72916000  0.22916000  1.0 -0.080317427
O  O181  1  0.33333333  0.33333333  0.33333333  1.0 0.202236654
O  O182  1  0.00000000  0.66666667  0.66666667  1.0 0.202236654
O  O183  1  0.66666667  0.00000000  0.00000000  1.0 0.202236654
O  O184  1  0.00000000  0.33333333  0.33333333  1.0 0.202236654
O  O185  1  0.66666667  0.66666667  0.66666667  1.0 0.202236654
O  O186  1  0.33333333  0.00000000  0.00000000  1.0 0.202236654
O  O187  1  0.83333000  0.00000000  0.50000000  1.0 0.202236654
O  O188  1  0.50000000  0.33333333  0.83333000  1.0 0.202236654
O  O189  1  0.16667000  0.66666667  0.16667000  1.0 0.202236654
O  O190  1  0.16667000  0.00000000  0.50000000  1.0 0.202236654
O  O191  1  0.83333000  0.33333333  0.83333000  1.0 0.202236654
O  O192  1  0.50000000  0.66666667  0.16667000  1.0 0.202236654
