# DDEC6 charges by PACMAN v1.1 (https://github.com/mtap-research/PACMAN-charge/)
data_QOTKOC01_ASR_pacman
_symmetry_space_group_name_H-M   'P 1'
_cell_length_a   30.34600000
_cell_length_b   30.34600000
_cell_length_c   35.30300000
_cell_angle_alpha   90.00000000
_cell_angle_beta   90.00000000
_cell_angle_gamma   120.00000000
_symmetry_Int_Tables_number   1
_chemical_formula_structural   In6H84C159O26
_chemical_formula_sum   'In12 H168 C318 O52'
_cell_volume   28154.32706005
_cell_formula_units_Z   2
loop_
 _symmetry_equiv_pos_site_id
 _symmetry_equiv_pos_as_xyz
  1  'x, y, z'
loop_
 _atom_site_type_symbol
 _atom_site_label
 _atom_site_symmetry_multiplicity
 _atom_site_fract_x
 _atom_site_fract_y
 _atom_site_fract_z
 _atom_site_occupancy
 _atom_site_charge
In  In1  1  0.27873000  0.68655000  0.00000000  1.0 1.471953419
In  In2  1  0.40782000  0.72127000  0.00000000  1.0 1.471953419
In  In3  1  0.31345000  0.59218000  0.00000000  1.0 1.471953419
In  In4  1  0.72127000  0.31345000  0.00000000  1.0 1.471953419
In  In5  1  0.59218000  0.27873000  0.00000000  1.0 1.471953419
In  In6  1  0.68655000  0.40782000  0.00000000  1.0 1.471953419
In  In7  1  0.59218000  0.31345000  0.50000000  1.0 1.471953419
In  In8  1  0.68655000  0.27873000  0.50000000  1.0 1.471953419
In  In9  1  0.72127000  0.40782000  0.50000000  1.0 1.471953419
In  In10  1  0.40782000  0.68655000  0.50000000  1.0 1.471953419
In  In11  1  0.31345000  0.72127000  0.50000000  1.0 1.471953419
In  In12  1  0.27873000  0.59218000  0.50000000  1.0 1.471953419
H  H1  1  0.44410000  0.82970000  0.90830000  1.0 0.1283945462
H  H2  1  0.46060000  0.88840000  0.86190000  1.0 0.1218760227
H  H3  1  0.31190000  0.84550000  0.85970000  1.0 0.1113982999
H  H4  1  0.30090000  0.78330000  0.90390000  1.0 0.1283945462
H  H5  1  0.47440000  0.93270000  0.80430000  1.0 0.1218760227
H  H6  1  0.34780000  0.96980000  0.77710000  1.0 0.1113982999
H  H7  1  0.32820000  0.90280000  0.82470000  1.0 0.1113982999
H  H8  1  0.38560000  0.55590000  0.90830000  1.0 0.1283945462
H  H9  1  0.42780000  0.53940000  0.86190000  1.0 0.1218760227
H  H10  1  0.53360000  0.68810000  0.85970000  1.0 0.1113982999
H  H11  1  0.48240000  0.69910000  0.90390000  1.0 0.1283945462
H  H12  1  0.45830000  0.52560000  0.80430000  1.0 0.1218760227
H  H13  1  0.62200000  0.65220000  0.77710000  1.0 0.1113982999
H  H14  1  0.57460000  0.67180000  0.82470000  1.0 0.1113982999
H  H15  1  0.17030000  0.61440000  0.90830000  1.0 0.1283945462
H  H16  1  0.11160000  0.57220000  0.86190000  1.0 0.1218760227
H  H17  1  0.15450000  0.46640000  0.85970000  1.0 0.1113982999
H  H18  1  0.21670000  0.51760000  0.90390000  1.0 0.1283945462
H  H19  1  0.06730000  0.54170000  0.80430000  1.0 0.1218760227
H  H20  1  0.03020000  0.37800000  0.77710000  1.0 0.1113982999
H  H21  1  0.09720000  0.42540000  0.82470000  1.0 0.1113982999
H  H22  1  0.55590000  0.17030000  0.90830000  1.0 0.1283945462
H  H23  1  0.53940000  0.11160000  0.86190000  1.0 0.1218760227
H  H24  1  0.68810000  0.15450000  0.85970000  1.0 0.1113982999
H  H25  1  0.69910000  0.21670000  0.90390000  1.0 0.1283945462
H  H26  1  0.52560000  0.06730000  0.80430000  1.0 0.1218760227
H  H27  1  0.65220000  0.03020000  0.77710000  1.0 0.1113982999
H  H28  1  0.67180000  0.09720000  0.82470000  1.0 0.1113982999
H  H29  1  0.61440000  0.44410000  0.90830000  1.0 0.1283945462
H  H30  1  0.57220000  0.46060000  0.86190000  1.0 0.1218760227
H  H31  1  0.46640000  0.31190000  0.85970000  1.0 0.1113982999
H  H32  1  0.51760000  0.30090000  0.90390000  1.0 0.1283945462
H  H33  1  0.54170000  0.47440000  0.80430000  1.0 0.1218760227
H  H34  1  0.37800000  0.34780000  0.77710000  1.0 0.1113982999
H  H35  1  0.42540000  0.32820000  0.82470000  1.0 0.1113982999
H  H36  1  0.82970000  0.38560000  0.90830000  1.0 0.1283945462
H  H37  1  0.88840000  0.42780000  0.86190000  1.0 0.1218760227
H  H38  1  0.84550000  0.53360000  0.85970000  1.0 0.1113982999
H  H39  1  0.78330000  0.48240000  0.90390000  1.0 0.1283945462
H  H40  1  0.93270000  0.45830000  0.80430000  1.0 0.1218760227
H  H41  1  0.96980000  0.62200000  0.77710000  1.0 0.1113982999
H  H42  1  0.90280000  0.57460000  0.82470000  1.0 0.1113982999
H  H43  1  0.61440000  0.17030000  0.59170000  1.0 0.1283945462
H  H44  1  0.57220000  0.11160000  0.63810000  1.0 0.1218760227
H  H45  1  0.46640000  0.15450000  0.64030000  1.0 0.1113982999
H  H46  1  0.51760000  0.21670000  0.59610000  1.0 0.1283945462
H  H47  1  0.54170000  0.06730000  0.69570000  1.0 0.1218760227
H  H48  1  0.37800000  0.03020000  0.72290000  1.0 0.1113982999
H  H49  1  0.42540000  0.09720000  0.67530000  1.0 0.1113982999
H  H50  1  0.82970000  0.44410000  0.59170000  1.0 0.1283945462
H  H51  1  0.88840000  0.46060000  0.63810000  1.0 0.1218760227
H  H52  1  0.84550000  0.31190000  0.64030000  1.0 0.1113982999
H  H53  1  0.78330000  0.30090000  0.59610000  1.0 0.1283945462
H  H54  1  0.93270000  0.47440000  0.69570000  1.0 0.1218760227
H  H55  1  0.96980000  0.34780000  0.72290000  1.0 0.1113982999
H  H56  1  0.90280000  0.32820000  0.67530000  1.0 0.1113982999
H  H57  1  0.55590000  0.38560000  0.59170000  1.0 0.1283945462
H  H58  1  0.53940000  0.42780000  0.63810000  1.0 0.1218760227
H  H59  1  0.68810000  0.53360000  0.64030000  1.0 0.1113982999
H  H60  1  0.69910000  0.48240000  0.59610000  1.0 0.1283945462
H  H61  1  0.52560000  0.45830000  0.69570000  1.0 0.1218760227
H  H62  1  0.65220000  0.62200000  0.72290000  1.0 0.1113982999
H  H63  1  0.67180000  0.57460000  0.67530000  1.0 0.1113982999
H  H64  1  0.38560000  0.82970000  0.59170000  1.0 0.1283945462
H  H65  1  0.42780000  0.88840000  0.63810000  1.0 0.1218760227
H  H66  1  0.53360000  0.84550000  0.64030000  1.0 0.1113982999
H  H67  1  0.48240000  0.78330000  0.59610000  1.0 0.1283945462
H  H68  1  0.45830000  0.93270000  0.69570000  1.0 0.1218760227
H  H69  1  0.62200000  0.96980000  0.72290000  1.0 0.1113982999
H  H70  1  0.57460000  0.90280000  0.67530000  1.0 0.1113982999
H  H71  1  0.17030000  0.55590000  0.59170000  1.0 0.1283945462
H  H72  1  0.11160000  0.53940000  0.63810000  1.0 0.1218760227
H  H73  1  0.15450000  0.68810000  0.64030000  1.0 0.1113982999
H  H74  1  0.21670000  0.69910000  0.59610000  1.0 0.1283945462
H  H75  1  0.06730000  0.52560000  0.69570000  1.0 0.1218760227
H  H76  1  0.03020000  0.65220000  0.72290000  1.0 0.1113982999
H  H77  1  0.09720000  0.67180000  0.67530000  1.0 0.1113982999
H  H78  1  0.44410000  0.61440000  0.59170000  1.0 0.1283945462
H  H79  1  0.46060000  0.57220000  0.63810000  1.0 0.1218760227
H  H80  1  0.31190000  0.46640000  0.64030000  1.0 0.1113982999
H  H81  1  0.30090000  0.51760000  0.59610000  1.0 0.1283945462
H  H82  1  0.47440000  0.54170000  0.69570000  1.0 0.1218760227
H  H83  1  0.34780000  0.37800000  0.72290000  1.0 0.1113982999
H  H84  1  0.32820000  0.42540000  0.67530000  1.0 0.1113982999
H  H85  1  0.55590000  0.17030000  0.09170000  1.0 0.1283945462
H  H86  1  0.53940000  0.11160000  0.13810000  1.0 0.1218760227
H  H87  1  0.68810000  0.15450000  0.14030000  1.0 0.1113982999
H  H88  1  0.69910000  0.21670000  0.09610000  1.0 0.1283945462
H  H89  1  0.52560000  0.06730000  0.19570000  1.0 0.1218760227
H  H90  1  0.65220000  0.03020000  0.22290000  1.0 0.1113982999
H  H91  1  0.67180000  0.09720000  0.17530000  1.0 0.1113982999
H  H92  1  0.61440000  0.44410000  0.09170000  1.0 0.1283945462
H  H93  1  0.57220000  0.46060000  0.13810000  1.0 0.1218760227
H  H94  1  0.46640000  0.31190000  0.14030000  1.0 0.1113982999
H  H95  1  0.51760000  0.30090000  0.09610000  1.0 0.1283945462
H  H96  1  0.54170000  0.47440000  0.19570000  1.0 0.1218760227
H  H97  1  0.37800000  0.34780000  0.22290000  1.0 0.1113982999
H  H98  1  0.42540000  0.32820000  0.17530000  1.0 0.1113982999
H  H99  1  0.82970000  0.38560000  0.09170000  1.0 0.1283945462
H  H100  1  0.88840000  0.42780000  0.13810000  1.0 0.1218760227
H  H101  1  0.84550000  0.53360000  0.14030000  1.0 0.1113982999
H  H102  1  0.78330000  0.48240000  0.09610000  1.0 0.1283945462
H  H103  1  0.93270000  0.45830000  0.19570000  1.0 0.1218760227
H  H104  1  0.96980000  0.62200000  0.22290000  1.0 0.1113982999
H  H105  1  0.90280000  0.57460000  0.17530000  1.0 0.1113982999
H  H106  1  0.44410000  0.82970000  0.09170000  1.0 0.1283945462
H  H107  1  0.46060000  0.88840000  0.13810000  1.0 0.1218760227
H  H108  1  0.31190000  0.84550000  0.14030000  1.0 0.1113982999
H  H109  1  0.30090000  0.78330000  0.09610000  1.0 0.1283945462
H  H110  1  0.47440000  0.93270000  0.19570000  1.0 0.1218760227
H  H111  1  0.34780000  0.96980000  0.22290000  1.0 0.1113982999
H  H112  1  0.32820000  0.90280000  0.17530000  1.0 0.1113982999
H  H113  1  0.38560000  0.55590000  0.09170000  1.0 0.1283945462
H  H114  1  0.42780000  0.53940000  0.13810000  1.0 0.1218760227
H  H115  1  0.53360000  0.68810000  0.14030000  1.0 0.1113982999
H  H116  1  0.48240000  0.69910000  0.09610000  1.0 0.1283945462
H  H117  1  0.45830000  0.52560000  0.19570000  1.0 0.1218760227
H  H118  1  0.62200000  0.65220000  0.22290000  1.0 0.1113982999
H  H119  1  0.57460000  0.67180000  0.17530000  1.0 0.1113982999
H  H120  1  0.17030000  0.61440000  0.09170000  1.0 0.1283945462
H  H121  1  0.11160000  0.57220000  0.13810000  1.0 0.1218760227
H  H122  1  0.15450000  0.46640000  0.14030000  1.0 0.1113982999
H  H123  1  0.21670000  0.51760000  0.09610000  1.0 0.1283945462
H  H124  1  0.06730000  0.54170000  0.19570000  1.0 0.1218760227
H  H125  1  0.03020000  0.37800000  0.22290000  1.0 0.1113982999
H  H126  1  0.09720000  0.42540000  0.17530000  1.0 0.1113982999
H  H127  1  0.38560000  0.82970000  0.40830000  1.0 0.1283945462
H  H128  1  0.42780000  0.88840000  0.36190000  1.0 0.1218760227
H  H129  1  0.53360000  0.84550000  0.35970000  1.0 0.1113982999
H  H130  1  0.48240000  0.78330000  0.40390000  1.0 0.1283945462
H  H131  1  0.45830000  0.93270000  0.30430000  1.0 0.1218760227
H  H132  1  0.62200000  0.96980000  0.27710000  1.0 0.1113982999
H  H133  1  0.57460000  0.90280000  0.32470000  1.0 0.1113982999
H  H134  1  0.17030000  0.55590000  0.40830000  1.0 0.1283945462
H  H135  1  0.11160000  0.53940000  0.36190000  1.0 0.1218760227
H  H136  1  0.15450000  0.68810000  0.35970000  1.0 0.1113982999
H  H137  1  0.21670000  0.69910000  0.40390000  1.0 0.1283945462
H  H138  1  0.06730000  0.52560000  0.30430000  1.0 0.1218760227
H  H139  1  0.03020000  0.65220000  0.27710000  1.0 0.1113982999
H  H140  1  0.09720000  0.67180000  0.32470000  1.0 0.1113982999
H  H141  1  0.44410000  0.61440000  0.40830000  1.0 0.1283945462
H  H142  1  0.46060000  0.57220000  0.36190000  1.0 0.1218760227
H  H143  1  0.31190000  0.46640000  0.35970000  1.0 0.1113982999
H  H144  1  0.30090000  0.51760000  0.40390000  1.0 0.1283945462
H  H145  1  0.47440000  0.54170000  0.30430000  1.0 0.1218760227
H  H146  1  0.34780000  0.37800000  0.27710000  1.0 0.1113982999
H  H147  1  0.32820000  0.42540000  0.32470000  1.0 0.1113982999
H  H148  1  0.61440000  0.17030000  0.40830000  1.0 0.1283945462
H  H149  1  0.57220000  0.11160000  0.36190000  1.0 0.1218760227
H  H150  1  0.46640000  0.15450000  0.35970000  1.0 0.1113982999
H  H151  1  0.51760000  0.21670000  0.40390000  1.0 0.1283945462
H  H152  1  0.54170000  0.06730000  0.30430000  1.0 0.1218760227
H  H153  1  0.37800000  0.03020000  0.27710000  1.0 0.1113982999
H  H154  1  0.42540000  0.09720000  0.32470000  1.0 0.1113982999
H  H155  1  0.82970000  0.44410000  0.40830000  1.0 0.1283945462
H  H156  1  0.88840000  0.46060000  0.36190000  1.0 0.1218760227
H  H157  1  0.84550000  0.31190000  0.35970000  1.0 0.1113982999
H  H158  1  0.78330000  0.30090000  0.40390000  1.0 0.1283945462
H  H159  1  0.93270000  0.47440000  0.30430000  1.0 0.1218760227
H  H160  1  0.96980000  0.34780000  0.27710000  1.0 0.1113982999
H  H161  1  0.90280000  0.32820000  0.32470000  1.0 0.1113982999
H  H162  1  0.55590000  0.38560000  0.40830000  1.0 0.1283945462
H  H163  1  0.53940000  0.42780000  0.36190000  1.0 0.1218760227
H  H164  1  0.68810000  0.53360000  0.35970000  1.0 0.1113982999
H  H165  1  0.69910000  0.48240000  0.40390000  1.0 0.1283945462
H  H166  1  0.52560000  0.45830000  0.30430000  1.0 0.1218760227
H  H167  1  0.65220000  0.62200000  0.27710000  1.0 0.1113982999
H  H168  1  0.67180000  0.57460000  0.32470000  1.0 0.1113982999
C  C1  1  0.36400000  0.76800000  0.94750000  1.0 0.6065005482
C  C2  1  0.37120000  0.80360000  0.91400000  1.0 -0.0151466131
C  C3  1  0.41650000  0.83270000  0.89860000  1.0 -0.1035520649
C  C4  1  0.42660000  0.86660000  0.87000000  1.0 -0.1498788849
C  C5  1  0.38670000  0.86910000  0.85260000  1.0 0.0773278198
C  C6  1  0.33970000  0.84170000  0.86780000  1.0 -0.1498788849
C  C7  1  0.33460000  0.80690000  0.89640000  1.0 -0.1074089474
C  C8  1  0.40250000  0.91220000  0.82070000  1.0 0.1113982999
C  C9  1  0.44760000  0.93940000  0.79900000  1.0 -0.228094834
C  C10  1  0.45620000  0.97360000  0.77180000  1.0 -0.0027676228
C  C11  1  0.41770000  0.98050000  0.76480000  1.0 -0.0140385657
C  C12  1  0.37180000  0.95950000  0.78320000  1.0 -0.1498788849
C  C13  1  0.36030000  0.92080000  0.81230000  1.0 -0.1747855469
C  C14  1  0.40400000  0.63600000  0.94750000  1.0 0.6065005482
C  C15  1  0.43240000  0.62880000  0.91400000  1.0 -0.0151466131
C  C16  1  0.41620000  0.58350000  0.89860000  1.0 -0.1035520649
C  C17  1  0.44000000  0.57340000  0.87000000  1.0 -0.1498788849
C  C18  1  0.48240000  0.61330000  0.85260000  1.0 0.0773278198
C  C19  1  0.50200000  0.66030000  0.86780000  1.0 -0.1498788849
C  C20  1  0.47230000  0.66540000  0.89640000  1.0 -0.1074089474
C  C21  1  0.50970000  0.59750000  0.82070000  1.0 0.1113982999
C  C22  1  0.49180000  0.55240000  0.79900000  1.0 -0.228094834
C  C23  1  0.51740000  0.54380000  0.77180000  1.0 -0.0027676228
C  C24  1  0.56280000  0.58230000  0.76480000  1.0 -0.0140385657
C  C25  1  0.58770000  0.62820000  0.78320000  1.0 -0.1498788849
C  C26  1  0.56050000  0.63970000  0.81230000  1.0 -0.1747855469
C  C27  1  0.23200000  0.59600000  0.94750000  1.0 0.6065005482
C  C28  1  0.19640000  0.56760000  0.91400000  1.0 -0.0151466131
C  C29  1  0.16730000  0.58380000  0.89860000  1.0 -0.1035520649
C  C30  1  0.13340000  0.56000000  0.87000000  1.0 -0.1498788849
C  C31  1  0.13090000  0.51760000  0.85260000  1.0 0.0773278198
C  C32  1  0.15830000  0.49800000  0.86780000  1.0 -0.1498788849
C  C33  1  0.19310000  0.52770000  0.89640000  1.0 -0.1074089474
C  C34  1  0.08780000  0.49030000  0.82070000  1.0 0.1113982999
C  C35  1  0.06060000  0.50820000  0.79900000  1.0 -0.228094834
C  C36  1  0.02640000  0.48260000  0.77180000  1.0 -0.0027676228
C  C37  1  0.01950000  0.43720000  0.76480000  1.0 -0.0151466131
C  C38  1  0.04050000  0.41230000  0.78320000  1.0 -0.1498788849
C  C39  1  0.07920000  0.43950000  0.81230000  1.0 -0.1747855469
C  C40  1  0.63600000  0.23200000  0.94750000  1.0 0.6065005482
C  C41  1  0.62880000  0.19640000  0.91400000  1.0 -0.0151466131
C  C42  1  0.58350000  0.16730000  0.89860000  1.0 -0.1035520649
C  C43  1  0.57340000  0.13340000  0.87000000  1.0 -0.1498788849
C  C44  1  0.61330000  0.13090000  0.85260000  1.0 0.0773278198
C  C45  1  0.66030000  0.15830000  0.86780000  1.0 -0.1498788849
C  C46  1  0.66540000  0.19310000  0.89640000  1.0 -0.1074089474
C  C47  1  0.59750000  0.08780000  0.82070000  1.0 0.1113982999
C  C48  1  0.55240000  0.06060000  0.79900000  1.0 -0.228094834
C  C49  1  0.54380000  0.02640000  0.77180000  1.0 -0.0027676228
C  C50  1  0.58230000  0.01950000  0.76480000  1.0 -0.0151466131
C  C51  1  0.62820000  0.04050000  0.78320000  1.0 -0.1498788849
C  C52  1  0.63970000  0.07920000  0.81230000  1.0 -0.1747855469
C  C53  1  0.59600000  0.36400000  0.94750000  1.0 0.6065005482
C  C54  1  0.56760000  0.37120000  0.91400000  1.0 -0.0151466131
C  C55  1  0.58380000  0.41650000  0.89860000  1.0 -0.1035520649
C  C56  1  0.56000000  0.42660000  0.87000000  1.0 -0.1498788849
C  C57  1  0.51760000  0.38670000  0.85260000  1.0 0.0773278198
C  C58  1  0.49800000  0.33970000  0.86780000  1.0 -0.1498788849
C  C59  1  0.52770000  0.33460000  0.89640000  1.0 -0.1074089474
C  C60  1  0.49030000  0.40250000  0.82070000  1.0 0.1113982999
C  C61  1  0.50820000  0.44760000  0.79900000  1.0 -0.228094834
C  C62  1  0.48260000  0.45620000  0.77180000  1.0 -0.0027676228
C  C63  1  0.43720000  0.41770000  0.76480000  1.0 -0.0151466131
C  C64  1  0.41230000  0.37180000  0.78320000  1.0 -0.1498788849
C  C65  1  0.43950000  0.36030000  0.81230000  1.0 -0.1747855469
C  C66  1  0.76800000  0.40400000  0.94750000  1.0 0.6065005482
C  C67  1  0.80360000  0.43240000  0.91400000  1.0 -0.0151466131
C  C68  1  0.83270000  0.41620000  0.89860000  1.0 -0.1035520649
C  C69  1  0.86660000  0.44000000  0.87000000  1.0 -0.1498788849
C  C70  1  0.86910000  0.48240000  0.85260000  1.0 0.0773278198
C  C71  1  0.84170000  0.50200000  0.86780000  1.0 -0.1498788849
C  C72  1  0.80690000  0.47230000  0.89640000  1.0 -0.1074089474
C  C73  1  0.91220000  0.50970000  0.82070000  1.0 0.1113982999
C  C74  1  0.93940000  0.49180000  0.79900000  1.0 -0.228094834
C  C75  1  0.97360000  0.51740000  0.77180000  1.0 -0.0027676228
C  C76  1  0.98050000  0.56280000  0.76480000  1.0 -0.0140385657
C  C77  1  0.95950000  0.58770000  0.78320000  1.0 -0.1498788849
C  C78  1  0.92080000  0.56050000  0.81230000  1.0 -0.1747855469
C  C79  1  0.59600000  0.23200000  0.55250000  1.0 0.6065005482
C  C80  1  0.56760000  0.19640000  0.58600000  1.0 -0.0151466131
C  C81  1  0.58380000  0.16730000  0.60140000  1.0 -0.1035520649
C  C82  1  0.56000000  0.13340000  0.63000000  1.0 -0.1498788849
C  C83  1  0.51760000  0.13090000  0.64740000  1.0 0.0773278198
C  C84  1  0.49800000  0.15830000  0.63220000  1.0 -0.1498788849
C  C85  1  0.52770000  0.19310000  0.60360000  1.0 -0.1074089474
C  C86  1  0.49030000  0.08780000  0.67930000  1.0 0.1113982999
C  C87  1  0.50820000  0.06060000  0.70100000  1.0 -0.228094834
C  C88  1  0.48260000  0.02640000  0.72820000  1.0 -0.0027676228
C  C89  1  0.43720000  0.01950000  0.73520000  1.0 -0.0151466131
C  C90  1  0.41230000  0.04050000  0.71680000  1.0 -0.1498788849
C  C91  1  0.43950000  0.07920000  0.68770000  1.0 -0.1756712078
C  C92  1  0.76800000  0.36400000  0.55250000  1.0 0.6065005482
C  C93  1  0.80360000  0.37120000  0.58600000  1.0 -0.0151466131
C  C94  1  0.83270000  0.41650000  0.60140000  1.0 -0.1035520649
C  C95  1  0.86660000  0.42660000  0.63000000  1.0 -0.1498788849
C  C96  1  0.86910000  0.38670000  0.64740000  1.0 0.0773278198
C  C97  1  0.84170000  0.33970000  0.63220000  1.0 -0.1498788849
C  C98  1  0.80690000  0.33460000  0.60360000  1.0 -0.1074089474
C  C99  1  0.91220000  0.40250000  0.67930000  1.0 0.1113982999
C  C100  1  0.93940000  0.44760000  0.70100000  1.0 -0.228094834
C  C101  1  0.97360000  0.45620000  0.72820000  1.0 -0.0027676228
C  C102  1  0.98050000  0.41770000  0.73520000  1.0 -0.0140385657
C  C103  1  0.95950000  0.37180000  0.71680000  1.0 -0.1498788849
C  C104  1  0.92080000  0.36030000  0.68770000  1.0 -0.1747855469
C  C105  1  0.63600000  0.40400000  0.55250000  1.0 0.6065005482
C  C106  1  0.62880000  0.43240000  0.58600000  1.0 -0.0151466131
C  C107  1  0.58350000  0.41620000  0.60140000  1.0 -0.1035520649
C  C108  1  0.57340000  0.44000000  0.63000000  1.0 -0.1498788849
C  C109  1  0.61330000  0.48240000  0.64740000  1.0 0.0773278198
C  C110  1  0.66030000  0.50200000  0.63220000  1.0 -0.1498788849
C  C111  1  0.66540000  0.47230000  0.60360000  1.0 -0.1074089474
C  C112  1  0.59750000  0.50970000  0.67930000  1.0 0.1113982999
C  C113  1  0.55240000  0.49180000  0.70100000  1.0 -0.228094834
C  C114  1  0.54380000  0.51740000  0.72820000  1.0 -0.0027676228
C  C115  1  0.58230000  0.56280000  0.73520000  1.0 -0.0140385657
C  C116  1  0.62820000  0.58770000  0.71680000  1.0 -0.1498788849
C  C117  1  0.63970000  0.56050000  0.68770000  1.0 -0.1747855469
C  C118  1  0.40400000  0.76800000  0.55250000  1.0 0.6065005482
C  C119  1  0.43240000  0.80360000  0.58600000  1.0 -0.0151466131
C  C120  1  0.41620000  0.83270000  0.60140000  1.0 -0.1035520649
C  C121  1  0.44000000  0.86660000  0.63000000  1.0 -0.1498788849
C  C122  1  0.48240000  0.86910000  0.64740000  1.0 0.0773278198
C  C123  1  0.50200000  0.84170000  0.63220000  1.0 -0.1498788849
C  C124  1  0.47230000  0.80690000  0.60360000  1.0 -0.1074089474
C  C125  1  0.50970000  0.91220000  0.67930000  1.0 0.1113982999
C  C126  1  0.49180000  0.93940000  0.70100000  1.0 -0.228094834
C  C127  1  0.51740000  0.97360000  0.72820000  1.0 -0.0027676228
C  C128  1  0.56280000  0.98050000  0.73520000  1.0 -0.0140385657
C  C129  1  0.58770000  0.95950000  0.71680000  1.0 -0.1498788849
C  C130  1  0.56050000  0.92080000  0.68770000  1.0 -0.1747855469
C  C131  1  0.23200000  0.63600000  0.55250000  1.0 0.6065005482
C  C132  1  0.19640000  0.62880000  0.58600000  1.0 -0.0151466131
C  C133  1  0.16730000  0.58350000  0.60140000  1.0 -0.1035520649
C  C134  1  0.13340000  0.57340000  0.63000000  1.0 -0.1498788849
C  C135  1  0.13090000  0.61330000  0.64740000  1.0 0.0773278198
C  C136  1  0.15830000  0.66030000  0.63220000  1.0 -0.1498788849
C  C137  1  0.19310000  0.66540000  0.60360000  1.0 -0.1074089474
C  C138  1  0.08780000  0.59750000  0.67930000  1.0 0.1113982999
C  C139  1  0.06060000  0.55240000  0.70100000  1.0 -0.228094834
C  C140  1  0.02640000  0.54380000  0.72820000  1.0 -0.0027676228
C  C141  1  0.01950000  0.58230000  0.73520000  1.0 -0.0151466131
C  C142  1  0.04050000  0.62820000  0.71680000  1.0 -0.1498788849
C  C143  1  0.07920000  0.63970000  0.68770000  1.0 -0.1747855469
C  C144  1  0.36400000  0.59600000  0.55250000  1.0 0.6065005482
C  C145  1  0.37120000  0.56760000  0.58600000  1.0 -0.0151466131
C  C146  1  0.41650000  0.58380000  0.60140000  1.0 -0.1035520649
C  C147  1  0.42660000  0.56000000  0.63000000  1.0 -0.1498788849
C  C148  1  0.38670000  0.51760000  0.64740000  1.0 0.0773278198
C  C149  1  0.33970000  0.49800000  0.63220000  1.0 -0.1498788849
C  C150  1  0.33460000  0.52770000  0.60360000  1.0 -0.1074089474
C  C151  1  0.40250000  0.49030000  0.67930000  1.0 0.1113982999
C  C152  1  0.44760000  0.50820000  0.70100000  1.0 -0.228094834
C  C153  1  0.45620000  0.48260000  0.72820000  1.0 -0.0027676228
C  C154  1  0.41770000  0.43720000  0.73520000  1.0 -0.0151466131
C  C155  1  0.37180000  0.41230000  0.71680000  1.0 -0.1498788849
C  C156  1  0.36030000  0.43950000  0.68770000  1.0 -0.1747855469
C  C157  1  0.63600000  0.23200000  0.05250000  1.0 0.6065005482
C  C158  1  0.62880000  0.19640000  0.08600000  1.0 -0.0151466131
C  C159  1  0.58350000  0.16730000  0.10140000  1.0 -0.1035520649
C  C160  1  0.57340000  0.13340000  0.13000000  1.0 -0.1498788849
C  C161  1  0.61330000  0.13090000  0.14740000  1.0 0.0773278198
C  C162  1  0.66030000  0.15830000  0.13220000  1.0 -0.1498788849
C  C163  1  0.66540000  0.19310000  0.10360000  1.0 -0.1074089474
C  C164  1  0.59750000  0.08780000  0.17930000  1.0 0.1113982999
C  C165  1  0.55240000  0.06060000  0.20100000  1.0 -0.228094834
C  C166  1  0.54380000  0.02640000  0.22820000  1.0 -0.0027676228
C  C167  1  0.58230000  0.01950000  0.23520000  1.0 -0.0151466131
C  C168  1  0.62820000  0.04050000  0.21680000  1.0 -0.1498788849
C  C169  1  0.63970000  0.07920000  0.18770000  1.0 -0.1747855469
C  C170  1  0.59600000  0.36400000  0.05250000  1.0 0.6065005482
C  C171  1  0.56760000  0.37120000  0.08600000  1.0 -0.0151466131
C  C172  1  0.58380000  0.41650000  0.10140000  1.0 -0.1035520649
C  C173  1  0.56000000  0.42660000  0.13000000  1.0 -0.1498788849
C  C174  1  0.51760000  0.38670000  0.14740000  1.0 0.0773278198
C  C175  1  0.49800000  0.33970000  0.13220000  1.0 -0.1498788849
C  C176  1  0.52770000  0.33460000  0.10360000  1.0 -0.1074089474
C  C177  1  0.49030000  0.40250000  0.17930000  1.0 0.1113982999
C  C178  1  0.50820000  0.44760000  0.20100000  1.0 -0.228094834
C  C179  1  0.48260000  0.45620000  0.22820000  1.0 -0.0027676228
C  C180  1  0.43720000  0.41770000  0.23520000  1.0 -0.0151466131
C  C181  1  0.41230000  0.37180000  0.21680000  1.0 -0.1498788849
C  C182  1  0.43950000  0.36030000  0.18770000  1.0 -0.1747855469
C  C183  1  0.76800000  0.40400000  0.05250000  1.0 0.6065005482
C  C184  1  0.80360000  0.43240000  0.08600000  1.0 -0.0140385657
C  C185  1  0.83270000  0.41620000  0.10140000  1.0 -0.1035520649
C  C186  1  0.86660000  0.44000000  0.13000000  1.0 -0.1498788849
C  C187  1  0.86910000  0.48240000  0.14740000  1.0 0.0773278198
C  C188  1  0.84170000  0.50200000  0.13220000  1.0 -0.1498788849
C  C189  1  0.80690000  0.47230000  0.10360000  1.0 -0.1074089474
C  C190  1  0.91220000  0.50970000  0.17930000  1.0 0.1113982999
C  C191  1  0.93940000  0.49180000  0.20100000  1.0 -0.228094834
C  C192  1  0.97360000  0.51740000  0.22820000  1.0 -0.0027676228
C  C193  1  0.98050000  0.56280000  0.23520000  1.0 -0.0140385657
C  C194  1  0.95950000  0.58770000  0.21680000  1.0 -0.1498788849
C  C195  1  0.92080000  0.56050000  0.18770000  1.0 -0.1747855469
C  C196  1  0.36400000  0.76800000  0.05250000  1.0 0.6065005482
C  C197  1  0.37120000  0.80360000  0.08600000  1.0 -0.0151466131
C  C198  1  0.41650000  0.83270000  0.10140000  1.0 -0.1035520649
C  C199  1  0.42660000  0.86660000  0.13000000  1.0 -0.1498788849
C  C200  1  0.38670000  0.86910000  0.14740000  1.0 0.0773278198
C  C201  1  0.33970000  0.84170000  0.13220000  1.0 -0.1498788849
C  C202  1  0.33460000  0.80690000  0.10360000  1.0 -0.1074089474
C  C203  1  0.40250000  0.91220000  0.17930000  1.0 0.1113982999
C  C204  1  0.44760000  0.93940000  0.20100000  1.0 -0.228094834
C  C205  1  0.45620000  0.97360000  0.22820000  1.0 -0.0027676228
C  C206  1  0.41770000  0.98050000  0.23520000  1.0 -0.0140385657
C  C207  1  0.37180000  0.95950000  0.21680000  1.0 -0.1498788849
C  C208  1  0.36030000  0.92080000  0.18770000  1.0 -0.1747855469
C  C209  1  0.40400000  0.63600000  0.05250000  1.0 0.6065005482
C  C210  1  0.43240000  0.62880000  0.08600000  1.0 -0.0151466131
C  C211  1  0.41620000  0.58350000  0.10140000  1.0 -0.1035520649
C  C212  1  0.44000000  0.57340000  0.13000000  1.0 -0.1498788849
C  C213  1  0.48240000  0.61330000  0.14740000  1.0 0.0773278198
C  C214  1  0.50200000  0.66030000  0.13220000  1.0 -0.1498788849
C  C215  1  0.47230000  0.66540000  0.10360000  1.0 -0.1074089474
C  C216  1  0.50970000  0.59750000  0.17930000  1.0 0.1113982999
C  C217  1  0.49180000  0.55240000  0.20100000  1.0 -0.228094834
C  C218  1  0.51740000  0.54380000  0.22820000  1.0 -0.0027676228
C  C219  1  0.56280000  0.58230000  0.23520000  1.0 -0.0140385657
C  C220  1  0.58770000  0.62820000  0.21680000  1.0 -0.1498788849
C  C221  1  0.56050000  0.63970000  0.18770000  1.0 -0.1747855469
C  C222  1  0.23200000  0.59600000  0.05250000  1.0 0.6065005482
C  C223  1  0.19640000  0.56760000  0.08600000  1.0 -0.0151466131
C  C224  1  0.16730000  0.58380000  0.10140000  1.0 -0.1035520649
C  C225  1  0.13340000  0.56000000  0.13000000  1.0 -0.1498788849
C  C226  1  0.13090000  0.51760000  0.14740000  1.0 0.0773278198
C  C227  1  0.15830000  0.49800000  0.13220000  1.0 -0.1498788849
C  C228  1  0.19310000  0.52770000  0.10360000  1.0 -0.1074089474
C  C229  1  0.08780000  0.49030000  0.17930000  1.0 0.1113982999
C  C230  1  0.06060000  0.50820000  0.20100000  1.0 -0.228094834
C  C231  1  0.02640000  0.48260000  0.22820000  1.0 -0.0027676228
C  C232  1  0.01950000  0.43720000  0.23520000  1.0 -0.0151466131
C  C233  1  0.04050000  0.41230000  0.21680000  1.0 -0.1498788849
C  C234  1  0.07920000  0.43950000  0.18770000  1.0 -0.1747855469
C  C235  1  0.40400000  0.76800000  0.44750000  1.0 0.6065005482
C  C236  1  0.43240000  0.80360000  0.41400000  1.0 -0.0151466131
C  C237  1  0.41620000  0.83270000  0.39860000  1.0 -0.1035520649
C  C238  1  0.44000000  0.86660000  0.37000000  1.0 -0.1498788849
C  C239  1  0.48240000  0.86910000  0.35260000  1.0 0.0773278198
C  C240  1  0.50200000  0.84170000  0.36780000  1.0 -0.1498788849
C  C241  1  0.47230000  0.80690000  0.39640000  1.0 -0.1074089474
C  C242  1  0.50970000  0.91220000  0.32070000  1.0 0.1113982999
C  C243  1  0.49180000  0.93940000  0.29900000  1.0 -0.228094834
C  C244  1  0.51740000  0.97360000  0.27180000  1.0 -0.0027676228
C  C245  1  0.56280000  0.98050000  0.26480000  1.0 -0.0140385657
C  C246  1  0.58770000  0.95950000  0.28320000  1.0 -0.1498788849
C  C247  1  0.56050000  0.92080000  0.31230000  1.0 -0.1747855469
C  C248  1  0.23200000  0.63600000  0.44750000  1.0 0.6065005482
C  C249  1  0.19640000  0.62880000  0.41400000  1.0 -0.0151466131
C  C250  1  0.16730000  0.58350000  0.39860000  1.0 -0.1035520649
C  C251  1  0.13340000  0.57340000  0.37000000  1.0 -0.1498788849
C  C252  1  0.13090000  0.61330000  0.35260000  1.0 0.0773278198
C  C253  1  0.15830000  0.66030000  0.36780000  1.0 -0.1498788849
C  C254  1  0.19310000  0.66540000  0.39640000  1.0 -0.1074089474
C  C255  1  0.08780000  0.59750000  0.32070000  1.0 0.1113982999
C  C256  1  0.06060000  0.55240000  0.29900000  1.0 -0.228094834
C  C257  1  0.02640000  0.54380000  0.27180000  1.0 -0.0027676228
C  C258  1  0.01950000  0.58230000  0.26480000  1.0 -0.0151466131
C  C259  1  0.04050000  0.62820000  0.28320000  1.0 -0.1498788849
C  C260  1  0.07920000  0.63970000  0.31230000  1.0 -0.1747855469
C  C261  1  0.36400000  0.59600000  0.44750000  1.0 0.6065005482
C  C262  1  0.37120000  0.56760000  0.41400000  1.0 -0.0151466131
C  C263  1  0.41650000  0.58380000  0.39860000  1.0 -0.1035520649
C  C264  1  0.42660000  0.56000000  0.37000000  1.0 -0.1498788849
C  C265  1  0.38670000  0.51760000  0.35260000  1.0 0.0773278198
C  C266  1  0.33970000  0.49800000  0.36780000  1.0 -0.1498788849
C  C267  1  0.33460000  0.52770000  0.39640000  1.0 -0.1074089474
C  C268  1  0.40250000  0.49030000  0.32070000  1.0 0.1113982999
C  C269  1  0.44760000  0.50820000  0.29900000  1.0 -0.228094834
C  C270  1  0.45620000  0.48260000  0.27180000  1.0 -0.0027676228
C  C271  1  0.41770000  0.43720000  0.26480000  1.0 -0.0151466131
C  C272  1  0.37180000  0.41230000  0.28320000  1.0 -0.1498788849
C  C273  1  0.36030000  0.43950000  0.31230000  1.0 -0.1747855469
C  C274  1  0.59600000  0.23200000  0.44750000  1.0 0.6065005482
C  C275  1  0.56760000  0.19640000  0.41400000  1.0 -0.0151466131
C  C276  1  0.58380000  0.16730000  0.39860000  1.0 -0.1035520649
C  C277  1  0.56000000  0.13340000  0.37000000  1.0 -0.1498788849
C  C278  1  0.51760000  0.13090000  0.35260000  1.0 0.0773278198
C  C279  1  0.49800000  0.15830000  0.36780000  1.0 -0.1498788849
C  C280  1  0.52770000  0.19310000  0.39640000  1.0 -0.1074089474
C  C281  1  0.49030000  0.08780000  0.32070000  1.0 0.1113982999
C  C282  1  0.50820000  0.06060000  0.29900000  1.0 -0.228094834
C  C283  1  0.48260000  0.02640000  0.27180000  1.0 -0.0027676228
C  C284  1  0.43720000  0.01950000  0.26480000  1.0 -0.0151466131
C  C285  1  0.41230000  0.04050000  0.28320000  1.0 -0.1498788849
C  C286  1  0.43950000  0.07920000  0.31230000  1.0 -0.1747855469
C  C287  1  0.76800000  0.36400000  0.44750000  1.0 0.6065005482
C  C288  1  0.80360000  0.37120000  0.41400000  1.0 -0.0151466131
C  C289  1  0.83270000  0.41650000  0.39860000  1.0 -0.1035520649
C  C290  1  0.86660000  0.42660000  0.37000000  1.0 -0.1498788849
C  C291  1  0.86910000  0.38670000  0.35260000  1.0 0.0773278198
C  C292  1  0.84170000  0.33970000  0.36780000  1.0 -0.1498788849
C  C293  1  0.80690000  0.33460000  0.39640000  1.0 -0.1074089474
C  C294  1  0.91220000  0.40250000  0.32070000  1.0 0.1113982999
C  C295  1  0.93940000  0.44760000  0.29900000  1.0 -0.228094834
C  C296  1  0.97360000  0.45620000  0.27180000  1.0 -0.0027676228
C  C297  1  0.98050000  0.41770000  0.26480000  1.0 -0.0140385657
C  C298  1  0.95950000  0.37180000  0.28320000  1.0 -0.1498788849
C  C299  1  0.92080000  0.36030000  0.31230000  1.0 -0.1747855469
C  C300  1  0.63600000  0.40400000  0.44750000  1.0 0.6065005482
C  C301  1  0.62880000  0.43240000  0.41400000  1.0 -0.0151466131
C  C302  1  0.58350000  0.41620000  0.39860000  1.0 -0.1035520649
C  C303  1  0.57340000  0.44000000  0.37000000  1.0 -0.1498788849
C  C304  1  0.61330000  0.48240000  0.35260000  1.0 0.0773278198
C  C305  1  0.66030000  0.50200000  0.36780000  1.0 -0.1498788849
C  C306  1  0.66540000  0.47230000  0.39640000  1.0 -0.1074089474
C  C307  1  0.59750000  0.50970000  0.32070000  1.0 0.1113982999
C  C308  1  0.55240000  0.49180000  0.29900000  1.0 -0.228094834
C  C309  1  0.54380000  0.51740000  0.27180000  1.0 -0.0027676228
C  C310  1  0.58230000  0.56280000  0.26480000  1.0 -0.0140385657
C  C311  1  0.62820000  0.58770000  0.28320000  1.0 -0.1498788849
C  C312  1  0.63970000  0.56050000  0.31230000  1.0 -0.1747855469
C  C313  1  0.50000000  0.00000000  0.75000000  1.0 -0.0140385657
C  C314  1  0.50000000  0.50000000  0.75000000  1.0 -0.0140385657
C  C315  1  0.00000000  0.50000000  0.75000000  1.0 -0.0140385657
C  C316  1  0.50000000  0.00000000  0.25000000  1.0 -0.0140385657
C  C317  1  0.50000000  0.50000000  0.25000000  1.0 -0.0140385657
C  C318  1  0.00000000  0.50000000  0.25000000  1.0 -0.0140385657
O  O1  1  0.40010000  0.76620000  0.95848000  1.0 -0.4985236902
O  O2  1  0.31670000  0.74395000  0.95705000  1.0 -0.5882076302
O  O3  1  0.36610000  0.59990000  0.95848000  1.0 -0.4985236902
O  O4  1  0.42725000  0.68330000  0.95705000  1.0 -0.5882076302
O  O5  1  0.23380000  0.63390000  0.95848000  1.0 -0.4985236902
O  O6  1  0.25605000  0.57275000  0.95705000  1.0 -0.5882076302
O  O7  1  0.59990000  0.23380000  0.95848000  1.0 -0.4985236902
O  O8  1  0.68330000  0.25605000  0.95705000  1.0 -0.5882076302
O  O9  1  0.63390000  0.40010000  0.95848000  1.0 -0.4985236902
O  O10  1  0.57275000  0.31670000  0.95705000  1.0 -0.5882076302
O  O11  1  0.76620000  0.36610000  0.95848000  1.0 -0.4985236902
O  O12  1  0.74395000  0.42725000  0.95705000  1.0 -0.5882076302
O  O13  1  0.63390000  0.23380000  0.54152000  1.0 -0.4985236902
O  O14  1  0.57275000  0.25605000  0.54295000  1.0 -0.5882076302
O  O15  1  0.76620000  0.40010000  0.54152000  1.0 -0.4985236902
O  O16  1  0.74395000  0.31670000  0.54295000  1.0 -0.5882076302
O  O17  1  0.59990000  0.36610000  0.54152000  1.0 -0.4985236902
O  O18  1  0.68330000  0.42725000  0.54295000  1.0 -0.5882076302
O  O19  1  0.36610000  0.76620000  0.54152000  1.0 -0.4985236902
O  O20  1  0.42725000  0.74395000  0.54295000  1.0 -0.5882076302
O  O21  1  0.23380000  0.59990000  0.54152000  1.0 -0.4985236902
O  O22  1  0.25605000  0.68330000  0.54295000  1.0 -0.5882076302
O  O23  1  0.40010000  0.63390000  0.54152000  1.0 -0.4985236902
O  O24  1  0.31670000  0.57275000  0.54295000  1.0 -0.5882076302
O  O25  1  0.59990000  0.23380000  0.04152000  1.0 -0.4985236902
O  O26  1  0.68330000  0.25605000  0.04295000  1.0 -0.5882076302
O  O27  1  0.63390000  0.40010000  0.04152000  1.0 -0.4985236902
O  O28  1  0.57275000  0.31670000  0.04295000  1.0 -0.5882076302
O  O29  1  0.76620000  0.36610000  0.04152000  1.0 -0.4985236902
O  O30  1  0.74395000  0.42725000  0.04295000  1.0 -0.5882076302
O  O31  1  0.40010000  0.76620000  0.04152000  1.0 -0.4985236902
O  O32  1  0.31670000  0.74395000  0.04295000  1.0 -0.5882076302
O  O33  1  0.36610000  0.59990000  0.04152000  1.0 -0.4985236902
O  O34  1  0.42725000  0.68330000  0.04295000  1.0 -0.5882076302
O  O35  1  0.23380000  0.63390000  0.04152000  1.0 -0.4985236902
O  O36  1  0.25605000  0.57275000  0.04295000  1.0 -0.5882076302
O  O37  1  0.36610000  0.76620000  0.45848000  1.0 -0.4985236902
O  O38  1  0.42725000  0.74395000  0.45705000  1.0 -0.5882076302
O  O39  1  0.23380000  0.59990000  0.45848000  1.0 -0.4985236902
O  O40  1  0.25605000  0.68330000  0.45705000  1.0 -0.5882076302
O  O41  1  0.40010000  0.63390000  0.45848000  1.0 -0.4985236902
O  O42  1  0.31670000  0.57275000  0.45705000  1.0 -0.5882076302
O  O43  1  0.63390000  0.23380000  0.45848000  1.0 -0.4985236902
O  O44  1  0.57275000  0.25605000  0.45705000  1.0 -0.5882076302
O  O45  1  0.76620000  0.40010000  0.45848000  1.0 -0.4985236902
O  O46  1  0.74395000  0.31670000  0.45705000  1.0 -0.5882076302
O  O47  1  0.59990000  0.36610000  0.45848000  1.0 -0.4985236902
O  O48  1  0.68330000  0.42725000  0.45705000  1.0 -0.5882076302
O  O49  1  0.33333333  0.66666667  0.00000000  1.0 -1.0783370762
O  O50  1  0.66666667  0.33333333  0.00000000  1.0 -1.0783370762
O  O51  1  0.66666667  0.33333333  0.50000000  1.0 -1.0783370762
O  O52  1  0.33333333  0.66666667  0.50000000  1.0 -1.0783370762
