# DDEC6 charges by PACMAN v1.1 (https://github.com/mtap-research/PACMAN-charge/)
data_QOTKOC02_FSR_pacman
_symmetry_space_group_name_H-M   'P 1'
_cell_length_a   14.14210000
_cell_length_b   14.14210000
_cell_length_c   17.32050000
_cell_angle_alpha   90.00000000
_cell_angle_beta   90.00000000
_cell_angle_gamma   120.00000000
_symmetry_Int_Tables_number   1
_chemical_formula_structural   In6H84C159O32
_chemical_formula_sum   'In36 H504 C954 O192'
_cell_volume   2999.98348741
_cell_formula_units_Z   6
loop_
 _symmetry_equiv_pos_site_id
 _symmetry_equiv_pos_as_xyz
  1  'x, y, z'
loop_
 _atom_site_type_symbol
 _atom_site_label
 _atom_site_symmetry_multiplicity
 _atom_site_fract_x
 _atom_site_fract_y
 _atom_site_fract_z
 _atom_site_occupancy
 _atom_site_charge
In  In1  1  0.32322000  0.36362000  0.36362000  1.0 0.170369427
In  In2  1  0.98989000  0.69695000  0.69695000  1.0 0.170369427
In  In3  1  0.65656000  0.03028000  0.03028000  1.0 0.170369427
In  In4  1  0.37373000  0.34344000  0.34344000  1.0 0.1583472601
In  In5  1  0.04039000  0.67678000  0.67678000  1.0 0.1583472601
In  In6  1  0.70706000  0.01011000  0.01011000  1.0 0.1583472601
In  In7  1  0.30305000  0.29294000  0.29294000  1.0 0.1583472601
In  In8  1  0.96972000  0.62627000  0.62627000  1.0 0.1511203717
In  In9  1  0.63638000  0.95961000  0.95961000  1.0 0.1583472601
In  In10  1  0.01011000  0.30305000  0.30305000  1.0 0.170369427
In  In11  1  0.67678000  0.63638000  0.63638000  1.0 0.170369427
In  In12  1  0.34344000  0.96972000  0.96972000  1.0 0.170369427
In  In13  1  0.95961000  0.32322000  0.32322000  1.0 0.1583472601
In  In14  1  0.62627000  0.65656000  0.65656000  1.0 0.1583472601
In  In15  1  0.29294000  0.98989000  0.98989000  1.0 0.1583472601
In  In16  1  0.03028000  0.37373000  0.37373000  1.0 0.1583472601
In  In17  1  0.69695000  0.70706000  0.70706000  1.0 0.1511203717
In  In18  1  0.36362000  0.04039000  0.04039000  1.0 0.1583472601
In  In19  1  0.82322000  0.95961000  0.45961000  1.0 0.1583472601
In  In20  1  0.48989000  0.29294000  0.79294000  1.0 0.1583472601
In  In21  1  0.15656000  0.62627000  0.12627000  1.0 0.1583472601
In  In22  1  0.87373000  0.03028000  0.53028000  1.0 0.170369427
In  In23  1  0.54039000  0.36362000  0.86362000  1.0 0.170369427
In  In24  1  0.20706000  0.69695000  0.19695000  1.0 0.170369427
In  In25  1  0.80305000  0.01011000  0.51011000  1.0 0.1583472601
In  In26  1  0.46972000  0.34344000  0.84344000  1.0 0.1583472601
In  In27  1  0.13638000  0.67678000  0.17678000  1.0 0.170369427
In  In28  1  0.17678000  0.04039000  0.54039000  1.0 0.1511203717
In  In29  1  0.84344000  0.37373000  0.87373000  1.0 0.1511203717
In  In30  1  0.51011000  0.70706000  0.20706000  1.0 0.1583472601
In  In31  1  0.12627000  0.96972000  0.46972000  1.0 0.170369427
In  In32  1  0.79294000  0.30305000  0.80305000  1.0 0.170369427
In  In33  1  0.45961000  0.63638000  0.13638000  1.0 0.170369427
In  In34  1  0.19695000  0.98989000  0.48989000  1.0 0.170369427
In  In35  1  0.86362000  0.32322000  0.82322000  1.0 0.1583472601
In  In36  1  0.53028000  0.65656000  0.15656000  1.0 0.1583472601
H  H1  1  0.96003000  0.74727000  0.65487000  1.0 0.120328809
H  H2  1  0.62670000  0.08060000  0.98820000  1.0 0.120328809
H  H3  1  0.29337000  0.41393000  0.32153000  1.0 0.120328809
H  H4  1  0.94157000  0.76883000  0.63153000  1.0 0.0819373376
H  H5  1  0.60823000  0.10217000  0.96487000  1.0 0.0819373376
H  H6  1  0.27490000  0.43550000  0.29820000  1.0 0.0819373376
H  H7  1  0.92813000  0.69787000  0.55067000  1.0 0.0819373376
H  H8  1  0.59480000  0.03120000  0.88400000  1.0 0.0819373376
H  H9  1  0.26147000  0.36453000  0.21733000  1.0 0.0819373376
H  H10  1  0.94407000  0.67253000  0.57503000  1.0 0.1094923151
H  H11  1  0.61073000  0.00587000  0.90837000  1.0 0.1094923151
H  H12  1  0.27740000  0.33920000  0.24170000  1.0 0.1094923151
H  H13  1  0.93420000  0.79780000  0.60720000  1.0 0.0709394059
H  H14  1  0.60087000  0.13113000  0.94053000  1.0 0.0709394059
H  H15  1  0.26753000  0.46447000  0.27387000  1.0 0.0709394059
H  H16  1  0.87897000  0.72673000  0.50593000  1.0 0.092793224
H  H17  1  0.54563000  0.06007000  0.83927000  1.0 0.092793224
H  H18  1  0.21230000  0.39340000  0.17260000  1.0 0.092793224
H  H19  1  0.90013000  0.70607000  0.53247000  1.0 0.0819373376
H  H20  1  0.56680000  0.03940000  0.86580000  1.0 0.0819373376
H  H21  1  0.23347000  0.37273000  0.19913000  1.0 0.0819373376
H  H22  1  0.12057000  0.79903000  0.70663000  1.0 0.1094923151
H  H23  1  0.78723000  0.13237000  0.03997000  1.0 0.1094923151
H  H24  1  0.45390000  0.46570000  0.37330000  1.0 0.1094923151
H  H25  1  0.16060000  0.86240000  0.72510000  1.0 0.0709394059
H  H26  1  0.82727000  0.19573000  0.05843000  1.0 0.0709394059
H  H27  1  0.49393000  0.52907000  0.39177000  1.0 0.0709394059
H  H28  1  0.10307000  0.88573000  0.73853000  1.0 0.0709394059
H  H29  1  0.76973000  0.21907000  0.07187000  1.0 0.0709394059
H  H30  1  0.43640000  0.55240000  0.40520000  1.0 0.0709394059
H  H31  1  0.06180000  0.82010000  0.72260000  1.0 0.1094923151
H  H32  1  0.72847000  0.15343000  0.05593000  1.0 0.1094923151
H  H33  1  0.39513000  0.48677000  0.38927000  1.0 0.1094923151
H  H34  1  0.19693000  0.92307000  0.73247000  1.0 0.0709394059
H  H35  1  0.86360000  0.25640000  0.06580000  1.0 0.0709394059
H  H36  1  0.53027000  0.58973000  0.39913000  1.0 0.0709394059
H  H37  1  0.18110000  0.00850000  0.78770000  1.0 0.0819373376
H  H38  1  0.84777000  0.34183000  0.12103000  1.0 0.0819373376
H  H39  1  0.51443000  0.67517000  0.45437000  1.0 0.0819373376
H  H40  1  0.13927000  0.94013000  0.76653000  1.0 0.0994499452
H  H41  1  0.80593000  0.27347000  0.09987000  1.0 0.0994499452
H  H42  1  0.47260000  0.60680000  0.43320000  1.0 0.0994499452
H  H43  1  0.01180000  0.63850000  0.54610000  1.0 0.0994499452
H  H44  1  0.67847000  0.97183000  0.87943000  1.0 0.0994499452
H  H45  1  0.34513000  0.30517000  0.21277000  1.0 0.0994499452
H  H46  1  0.03513000  0.64337000  0.50607000  1.0 0.0709394059
H  H47  1  0.70180000  0.97670000  0.83940000  1.0 0.0709394059
H  H48  1  0.36847000  0.31003000  0.17273000  1.0 0.0709394059
H  H49  1  0.11600000  0.71080000  0.56360000  1.0 0.0709394059
H  H50  1  0.78267000  0.04413000  0.89693000  1.0 0.0709394059
H  H51  1  0.44933000  0.37747000  0.23027000  1.0 0.0709394059
H  H52  1  0.09163000  0.70237000  0.60487000  1.0 0.1255354113
H  H53  1  0.75830000  0.03570000  0.93820000  1.0 0.1255354113
H  H54  1  0.42497000  0.36903000  0.27153000  1.0 0.1255354113
H  H55  1  0.05947000  0.66033000  0.46973000  1.0 0.0709394059
H  H56  1  0.72613000  0.99367000  0.80307000  1.0 0.0709394059
H  H57  1  0.39280000  0.32700000  0.13640000  1.0 0.0709394059
H  H58  1  0.16073000  0.70637000  0.48557000  1.0 0.0819373376
H  H59  1  0.82740000  0.03970000  0.81890000  1.0 0.0819373376
H  H60  1  0.49407000  0.37303000  0.15223000  1.0 0.0819373376
H  H61  1  0.13420000  0.70100000  0.52740000  1.0 0.0709394059
H  H62  1  0.80087000  0.03433000  0.86073000  1.0 0.0709394059
H  H63  1  0.46753000  0.36767000  0.19407000  1.0 0.0709394059
H  H64  1  0.76823000  0.70927000  0.61687000  1.0 0.120328809
H  H65  1  0.43490000  0.04260000  0.95020000  1.0 0.120328809
H  H66  1  0.10157000  0.37593000  0.28353000  1.0 0.120328809
H  H67  1  0.81663000  0.74757000  0.61027000  1.0 0.0819373376
H  H68  1  0.48330000  0.08090000  0.94360000  1.0 0.0819373376
H  H69  1  0.14997000  0.41423000  0.27693000  1.0 0.0819373376
H  H70  1  0.83667000  0.83173000  0.68453000  1.0 0.0819373376
H  H71  1  0.50333000  0.16507000  0.01787000  1.0 0.0819373376
H  H72  1  0.17000000  0.49840000  0.35120000  1.0 0.0819373376
H  H73  1  0.78760000  0.79080000  0.69330000  1.0 0.1094923151
H  H74  1  0.45427000  0.12413000  0.02663000  1.0 0.1094923151
H  H75  1  0.12093000  0.45747000  0.35997000  1.0 0.1094923151
H  H76  1  0.85953000  0.78967000  0.59907000  1.0 0.0709394059
H  H77  1  0.52620000  0.12300000  0.93240000  1.0 0.0709394059
H  H78  1  0.19287000  0.45633000  0.26573000  1.0 0.0709394059
H  H79  1  0.93490000  0.90100000  0.68020000  1.0 0.092793224
H  H80  1  0.60157000  0.23433000  0.01353000  1.0 0.092793224
H  H81  1  0.26823000  0.56767000  0.34687000  1.0 0.092793224
H  H82  1  0.88227000  0.85873000  0.68513000  1.0 0.0819373376
H  H83  1  0.54893000  0.19207000  0.01847000  1.0 0.0819373376
H  H84  1  0.21560000  0.52540000  0.35180000  1.0 0.0819373376
H  H85  1  0.60770000  0.65750000  0.56510000  1.0 0.1094923151
H  H86  1  0.27437000  0.99083000  0.89843000  1.0 0.1094923151
H  H87  1  0.94103000  0.32417000  0.23177000  1.0 0.1094923151
H  H88  1  0.59760000  0.65400000  0.51670000  1.0 0.0709394059
H  H89  1  0.26427000  0.98733000  0.85003000  1.0 0.0709394059
H  H90  1  0.93093000  0.32067000  0.18337000  1.0 0.0709394059
H  H91  1  0.66173000  0.64387000  0.49667000  1.0 0.0709394059
H  H92  1  0.32840000  0.97720000  0.83000000  1.0 0.0709394059
H  H93  1  0.99507000  0.31053000  0.16333000  1.0 0.0709394059
H  H94  1  0.66987000  0.64323000  0.54573000  1.0 0.1094923151
H  H95  1  0.33653000  0.97657000  0.87907000  1.0 0.1094923151
H  H96  1  0.00320000  0.30990000  0.21240000  1.0 0.1094923151
H  H97  1  0.59680000  0.66440000  0.47380000  1.0 0.0709394059
H  H98  1  0.26347000  0.99773000  0.80713000  1.0 0.0709394059
H  H99  1  0.93013000  0.33107000  0.14047000  1.0 0.0709394059
H  H100  1  0.63277000  0.61923000  0.39843000  1.0 0.0819373376
H  H101  1  0.29943000  0.95257000  0.73177000  1.0 0.0819373376
H  H102  1  0.96610000  0.28590000  0.06510000  1.0 0.0819373376
H  H103  1  0.64313000  0.62467000  0.45107000  1.0 0.0994499452
H  H104  1  0.30980000  0.95800000  0.78440000  1.0 0.0994499452
H  H105  1  0.97647000  0.29133000  0.11773000  1.0 0.0994499452
H  H106  1  0.71647000  0.81803000  0.72563000  1.0 0.0994499452
H  H107  1  0.38313000  0.15137000  0.05897000  1.0 0.0994499452
H  H108  1  0.04980000  0.48470000  0.39230000  1.0 0.0994499452
H  H109  1  0.72307000  0.87303000  0.73573000  1.0 0.0709394059
H  H110  1  0.38973000  0.20637000  0.06907000  1.0 0.0709394059
H  H111  1  0.05640000  0.53970000  0.40240000  1.0 0.0709394059
H  H112  1  0.64880000  0.81880000  0.67160000  1.0 0.0709394059
H  H113  1  0.31547000  0.15213000  0.00493000  1.0 0.0709394059
H  H114  1  0.98213000  0.48547000  0.33827000  1.0 0.0709394059
H  H115  1  0.64003000  0.76097000  0.66347000  1.0 0.1255354113
H  H116  1  0.30670000  0.09430000  0.99680000  1.0 0.1255354113
H  H117  1  0.97337000  0.42763000  0.33013000  1.0 0.1255354113
H  H118  1  0.73427000  0.92713000  0.73653000  1.0 0.0709394059
H  H119  1  0.40093000  0.26047000  0.06987000  1.0 0.0709394059
H  H120  1  0.06760000  0.59380000  0.40320000  1.0 0.0709394059
H  H121  1  0.65313000  0.92137000  0.70057000  1.0 0.0819373376
H  H122  1  0.31980000  0.25470000  0.03390000  1.0 0.0819373376
H  H123  1  0.98647000  0.58803000  0.36723000  1.0 0.0819373376
H  H124  1  0.64820000  0.86380000  0.69020000  1.0 0.0709394059
H  H125  1  0.31487000  0.19713000  0.02353000  1.0 0.0709394059
H  H126  1  0.98153000  0.53047000  0.35687000  1.0 0.0709394059
H  H127  1  0.73177000  0.84863000  0.44103000  1.0 0.0994499452
H  H128  1  0.39843000  0.18197000  0.77437000  1.0 0.0994499452
H  H129  1  0.06510000  0.51530000  0.10770000  1.0 0.0994499452
H  H130  1  0.68337000  0.79363000  0.43093000  1.0 0.0709394059
H  H131  1  0.35003000  0.12697000  0.76427000  1.0 0.0709394059
H  H132  1  0.01670000  0.46030000  0.09760000  1.0 0.0709394059
H  H133  1  0.66333000  0.84787000  0.49507000  1.0 0.0709394059
H  H134  1  0.33000000  0.18120000  0.82840000  1.0 0.0709394059
H  H135  1  0.99667000  0.51453000  0.16173000  1.0 0.0709394059
H  H136  1  0.71240000  0.90570000  0.50320000  1.0 0.1255354113
H  H137  1  0.37907000  0.23903000  0.83653000  1.0 0.1255354113
H  H138  1  0.04573000  0.57237000  0.16987000  1.0 0.1255354113
H  H139  1  0.64047000  0.73953000  0.43013000  1.0 0.0709394059
H  H140  1  0.30713000  0.07287000  0.76347000  1.0 0.0709394059
H  H141  1  0.97380000  0.40620000  0.09680000  1.0 0.0709394059
H  H142  1  0.56510000  0.74530000  0.46610000  1.0 0.0819373376
H  H143  1  0.23177000  0.07863000  0.79943000  1.0 0.0819373376
H  H144  1  0.89843000  0.41197000  0.13277000  1.0 0.0819373376
H  H145  1  0.61773000  0.80287000  0.47647000  1.0 0.0709394059
H  H146  1  0.28440000  0.13620000  0.80980000  1.0 0.0709394059
H  H147  1  0.95107000  0.46953000  0.14313000  1.0 0.0709394059
H  H148  1  0.89230000  0.95740000  0.54980000  1.0 0.120328809
H  H149  1  0.55897000  0.29073000  0.88313000  1.0 0.120328809
H  H150  1  0.22563000  0.62407000  0.21647000  1.0 0.120328809
H  H151  1  0.90240000  0.91910000  0.55640000  1.0 0.0819373376
H  H152  1  0.56907000  0.25243000  0.88973000  1.0 0.0819373376
H  H153  1  0.23573000  0.58577000  0.22307000  1.0 0.0819373376
H  H154  1  0.83827000  0.83493000  0.48213000  1.0 0.0819373376
H  H155  1  0.50493000  0.16827000  0.81547000  1.0 0.0819373376
H  H156  1  0.17160000  0.50160000  0.14880000  1.0 0.0819373376
H  H157  1  0.83013000  0.87587000  0.47337000  1.0 0.1094923151
H  H158  1  0.49680000  0.20920000  0.80670000  1.0 0.1094923151
H  H159  1  0.16347000  0.54253000  0.14003000  1.0 0.1094923151
H  H160  1  0.90320000  0.87700000  0.56760000  1.0 0.0709394059
H  H161  1  0.56987000  0.21033000  0.90093000  1.0 0.0709394059
H  H162  1  0.23653000  0.54367000  0.23427000  1.0 0.0709394059
H  H163  1  0.86723000  0.76567000  0.48647000  1.0 0.092793224
H  H164  1  0.53390000  0.09900000  0.81980000  1.0 0.092793224
H  H165  1  0.20057000  0.43233000  0.15313000  1.0 0.092793224
H  H166  1  0.85687000  0.80793000  0.48153000  1.0 0.0819373376
H  H167  1  0.52353000  0.14127000  0.81487000  1.0 0.0819373376
H  H168  1  0.19020000  0.47460000  0.14820000  1.0 0.0819373376
H  H169  1  0.78353000  0.00917000  0.60157000  1.0 0.1094923151
H  H170  1  0.45020000  0.34250000  0.93490000  1.0 0.1094923151
H  H171  1  0.11687000  0.67583000  0.26823000  1.0 0.1094923151
H  H172  1  0.77693000  0.01267000  0.64997000  1.0 0.0709394059
H  H173  1  0.44360000  0.34600000  0.98330000  1.0 0.0709394059
H  H174  1  0.11027000  0.67933000  0.31663000  1.0 0.0709394059
H  H175  1  0.85120000  0.02280000  0.67000000  1.0 0.0709394059
H  H176  1  0.51787000  0.35613000  0.00333000  1.0 0.0709394059
H  H177  1  0.18453000  0.68947000  0.33667000  1.0 0.0709394059
H  H178  1  0.85997000  0.02343000  0.62093000  1.0 0.1094923151
H  H179  1  0.52663000  0.35677000  0.95427000  1.0 0.1094923151
H  H180  1  0.19330000  0.69010000  0.28760000  1.0 0.1094923151
H  H181  1  0.76573000  0.00227000  0.69287000  1.0 0.0709394059
H  H182  1  0.43240000  0.33560000  0.02620000  1.0 0.0709394059
H  H183  1  0.09907000  0.66893000  0.35953000  1.0 0.0709394059
H  H184  1  0.84687000  0.04743000  0.76823000  1.0 0.0819373376
H  H185  1  0.51353000  0.38077000  0.10157000  1.0 0.0819373376
H  H186  1  0.18020000  0.71410000  0.43490000  1.0 0.0819373376
H  H187  1  0.85180000  0.04200000  0.71560000  1.0 0.0994499452
H  H188  1  0.51847000  0.37533000  0.04893000  1.0 0.0994499452
H  H189  1  0.18513000  0.70867000  0.38227000  1.0 0.0994499452
H  H190  1  0.20663000  0.02817000  0.62057000  1.0 0.0994499452
H  H191  1  0.87330000  0.36150000  0.95390000  1.0 0.0994499452
H  H192  1  0.53997000  0.69483000  0.28723000  1.0 0.0994499452
H  H193  1  0.22510000  0.02330000  0.66060000  1.0 0.0709394059
H  H194  1  0.89177000  0.35663000  0.99393000  1.0 0.0709394059
H  H195  1  0.55843000  0.68997000  0.32727000  1.0 0.0709394059
H  H196  1  0.23853000  0.95587000  0.60307000  1.0 0.0709394059
H  H197  1  0.90520000  0.28920000  0.93640000  1.0 0.0709394059
H  H198  1  0.57187000  0.62253000  0.26973000  1.0 0.0709394059
H  H199  1  0.22260000  0.96430000  0.56180000  1.0 0.1255354113
H  H200  1  0.88927000  0.29763000  0.89513000  1.0 0.1255354113
H  H201  1  0.55593000  0.63097000  0.22847000  1.0 0.1255354113
H  H202  1  0.23247000  0.00633000  0.69693000  1.0 0.0709394059
H  H203  1  0.89913000  0.33967000  0.03027000  1.0 0.0709394059
H  H204  1  0.56580000  0.67300000  0.36360000  1.0 0.0709394059
H  H205  1  0.28770000  0.96030000  0.68110000  1.0 0.0819373376
H  H206  1  0.95437000  0.29363000  0.01443000  1.0 0.0819373376
H  H207  1  0.62103000  0.62697000  0.34777000  1.0 0.0819373376
H  H208  1  0.26653000  0.96567000  0.63927000  1.0 0.0709394059
H  H209  1  0.93320000  0.29900000  0.97260000  1.0 0.0709394059
H  H210  1  0.59987000  0.63233000  0.30593000  1.0 0.0709394059
H  H211  1  0.04610000  0.91940000  0.51180000  1.0 0.120328809
H  H212  1  0.71277000  0.25273000  0.84513000  1.0 0.120328809
H  H213  1  0.37943000  0.58607000  0.17847000  1.0 0.120328809
H  H214  1  0.00607000  0.89783000  0.53513000  1.0 0.0819373376
H  H215  1  0.67273000  0.23117000  0.86847000  1.0 0.0819373376
H  H216  1  0.33940000  0.56450000  0.20180000  1.0 0.0819373376
H  H217  1  0.06360000  0.96880000  0.61600000  1.0 0.0819373376
H  H218  1  0.73027000  0.30213000  0.94933000  1.0 0.0819373376
H  H219  1  0.39693000  0.63547000  0.28267000  1.0 0.0819373376
H  H220  1  0.10487000  0.99413000  0.59163000  1.0 0.1094923151
H  H221  1  0.77153000  0.32747000  0.92497000  1.0 0.1094923151
H  H222  1  0.43820000  0.66080000  0.25830000  1.0 0.1094923151
H  H223  1  0.96973000  0.86887000  0.55947000  1.0 0.0709394059
H  H224  1  0.63640000  0.20220000  0.89280000  1.0 0.0709394059
H  H225  1  0.30307000  0.53553000  0.22613000  1.0 0.0709394059
H  H226  1  0.98557000  0.93993000  0.66073000  1.0 0.092793224
H  H227  1  0.65223000  0.27327000  0.99407000  1.0 0.092793224
H  H228  1  0.31890000  0.60660000  0.32740000  1.0 0.092793224
H  H229  1  0.02740000  0.96060000  0.63420000  1.0 0.0819373376
H  H230  1  0.69407000  0.29393000  0.96753000  1.0 0.0819373376
H  H231  1  0.36073000  0.62727000  0.30087000  1.0 0.0819373376
H  H232  1  0.15487000  0.86763000  0.46003000  1.0 0.1094923151
H  H233  1  0.82153000  0.20097000  0.79337000  1.0 0.1094923151
H  H234  1  0.48820000  0.53430000  0.12670000  1.0 0.1094923151
H  H235  1  0.13153000  0.80427000  0.44157000  1.0 0.0709394059
H  H236  1  0.79820000  0.13760000  0.77490000  1.0 0.0709394059
H  H237  1  0.46487000  0.47093000  0.10823000  1.0 0.0709394059
H  H238  1  0.05067000  0.78093000  0.42813000  1.0 0.0709394059
H  H239  1  0.71733000  0.11427000  0.76147000  1.0 0.0709394059
H  H240  1  0.38400000  0.44760000  0.09480000  1.0 0.0709394059
H  H241  1  0.07503000  0.84657000  0.44407000  1.0 0.1094923151
H  H242  1  0.74170000  0.17990000  0.77740000  1.0 0.1094923151
H  H243  1  0.40837000  0.51323000  0.11073000  1.0 0.1094923151
H  H244  1  0.10720000  0.74360000  0.43420000  1.0 0.0709394059
H  H245  1  0.77387000  0.07693000  0.76753000  1.0 0.0709394059
H  H246  1  0.44053000  0.41027000  0.10087000  1.0 0.0709394059
H  H247  1  0.00593000  0.65817000  0.37897000  1.0 0.0819373376
H  H248  1  0.67260000  0.99150000  0.71230000  1.0 0.0819373376
H  H249  1  0.33927000  0.32483000  0.04563000  1.0 0.0819373376
H  H250  1  0.03247000  0.72653000  0.40013000  1.0 0.0994499452
H  H251  1  0.69913000  0.05987000  0.73347000  1.0 0.0994499452
H  H252  1  0.36580000  0.39320000  0.06680000  1.0 0.0994499452
H  H253  1  0.03997000  0.25273000  0.34513000  1.0 0.120328809
H  H254  1  0.70663000  0.58607000  0.67847000  1.0 0.120328809
H  H255  1  0.37330000  0.91940000  0.01180000  1.0 0.120328809
H  H256  1  0.05843000  0.23117000  0.36847000  1.0 0.0819373376
H  H257  1  0.72510000  0.56450000  0.70180000  1.0 0.0819373376
H  H258  1  0.39177000  0.89783000  0.03513000  1.0 0.0819373376
H  H259  1  0.07187000  0.30213000  0.44933000  1.0 0.0819373376
H  H260  1  0.73853000  0.63547000  0.78267000  1.0 0.0819373376
H  H261  1  0.40520000  0.96880000  0.11600000  1.0 0.0819373376
H  H262  1  0.05593000  0.32747000  0.42497000  1.0 0.1094923151
H  H263  1  0.72260000  0.66080000  0.75830000  1.0 0.1094923151
H  H264  1  0.38927000  0.99413000  0.09163000  1.0 0.1094923151
H  H265  1  0.06580000  0.20220000  0.39280000  1.0 0.0709394059
H  H266  1  0.73247000  0.53553000  0.72613000  1.0 0.0709394059
H  H267  1  0.39913000  0.86887000  0.05947000  1.0 0.0709394059
H  H268  1  0.12103000  0.27327000  0.49407000  1.0 0.092793224
H  H269  1  0.78770000  0.60660000  0.82740000  1.0 0.092793224
H  H270  1  0.45437000  0.93993000  0.16073000  1.0 0.092793224
H  H271  1  0.09987000  0.29393000  0.46753000  1.0 0.0819373376
H  H272  1  0.76653000  0.62727000  0.80087000  1.0 0.0819373376
H  H273  1  0.43320000  0.96060000  0.13420000  1.0 0.0819373376
H  H274  1  0.87943000  0.20097000  0.29337000  1.0 0.1094923151
H  H275  1  0.54610000  0.53430000  0.62670000  1.0 0.1094923151
H  H276  1  0.21277000  0.86763000  0.96003000  1.0 0.1094923151
H  H277  1  0.83940000  0.13760000  0.27490000  1.0 0.0709394059
H  H278  1  0.50607000  0.47093000  0.60823000  1.0 0.0709394059
H  H279  1  0.17273000  0.80427000  0.94157000  1.0 0.0709394059
H  H280  1  0.89693000  0.11427000  0.26147000  1.0 0.0709394059
H  H281  1  0.56360000  0.44760000  0.59480000  1.0 0.0709394059
H  H282  1  0.23027000  0.78093000  0.92813000  1.0 0.0709394059
H  H283  1  0.93820000  0.17990000  0.27740000  1.0 0.1094923151
H  H284  1  0.60487000  0.51323000  0.61073000  1.0 0.1094923151
H  H285  1  0.27153000  0.84657000  0.94407000  1.0 0.1094923151
H  H286  1  0.80307000  0.07693000  0.26753000  1.0 0.0709394059
H  H287  1  0.46973000  0.41027000  0.60087000  1.0 0.0709394059
H  H288  1  0.13640000  0.74360000  0.93420000  1.0 0.0709394059
H  H289  1  0.81890000  0.99150000  0.21230000  1.0 0.0819373376
H  H290  1  0.48557000  0.32483000  0.54563000  1.0 0.0819373376
H  H291  1  0.15223000  0.65817000  0.87897000  1.0 0.0819373376
H  H292  1  0.86073000  0.05987000  0.23347000  1.0 0.0994499452
H  H293  1  0.52740000  0.39320000  0.56680000  1.0 0.0994499452
H  H294  1  0.19407000  0.72653000  0.90013000  1.0 0.0994499452
H  H295  1  0.98820000  0.36150000  0.45390000  1.0 0.0994499452
H  H296  1  0.65487000  0.69483000  0.78723000  1.0 0.0994499452
H  H297  1  0.32153000  0.02817000  0.12057000  1.0 0.0994499452
H  H298  1  0.96487000  0.35663000  0.49393000  1.0 0.0709394059
H  H299  1  0.63153000  0.68997000  0.82727000  1.0 0.0709394059
H  H300  1  0.29820000  0.02330000  0.16060000  1.0 0.0709394059
H  H301  1  0.88400000  0.28920000  0.43640000  1.0 0.0709394059
H  H302  1  0.55067000  0.62253000  0.76973000  1.0 0.0709394059
H  H303  1  0.21733000  0.95587000  0.10307000  1.0 0.0709394059
H  H304  1  0.90837000  0.29763000  0.39513000  1.0 0.1255354113
H  H305  1  0.57503000  0.63097000  0.72847000  1.0 0.1255354113
H  H306  1  0.24170000  0.96430000  0.06180000  1.0 0.1255354113
H  H307  1  0.94053000  0.33967000  0.53027000  1.0 0.0709394059
H  H308  1  0.60720000  0.67300000  0.86360000  1.0 0.0709394059
H  H309  1  0.27387000  0.00633000  0.19693000  1.0 0.0709394059
H  H310  1  0.83927000  0.29363000  0.51443000  1.0 0.0819373376
H  H311  1  0.50593000  0.62697000  0.84777000  1.0 0.0819373376
H  H312  1  0.17260000  0.96030000  0.18110000  1.0 0.0819373376
H  H313  1  0.86580000  0.29900000  0.47260000  1.0 0.0709394059
H  H314  1  0.53247000  0.63233000  0.80593000  1.0 0.0709394059
H  H315  1  0.19913000  0.96567000  0.13927000  1.0 0.0709394059
H  H316  1  0.23177000  0.29073000  0.38313000  1.0 0.120328809
H  H317  1  0.89843000  0.62407000  0.71647000  1.0 0.120328809
H  H318  1  0.56510000  0.95740000  0.04980000  1.0 0.120328809
H  H319  1  0.18337000  0.25243000  0.38973000  1.0 0.0819373376
H  H320  1  0.85003000  0.58577000  0.72307000  1.0 0.0819373376
H  H321  1  0.51670000  0.91910000  0.05640000  1.0 0.0819373376
H  H322  1  0.16333000  0.16827000  0.31547000  1.0 0.0819373376
H  H323  1  0.83000000  0.50160000  0.64880000  1.0 0.0819373376
H  H324  1  0.49667000  0.83493000  0.98213000  1.0 0.0819373376
H  H325  1  0.21240000  0.20920000  0.30670000  1.0 0.1094923151
H  H326  1  0.87907000  0.54253000  0.64003000  1.0 0.1094923151
H  H327  1  0.54573000  0.87587000  0.97337000  1.0 0.1094923151
H  H328  1  0.14047000  0.21033000  0.40093000  1.0 0.0709394059
H  H329  1  0.80713000  0.54367000  0.73427000  1.0 0.0709394059
H  H330  1  0.47380000  0.87700000  0.06760000  1.0 0.0709394059
H  H331  1  0.06510000  0.09900000  0.31980000  1.0 0.092793224
H  H332  1  0.73177000  0.43233000  0.65313000  1.0 0.092793224
H  H333  1  0.39843000  0.76567000  0.98647000  1.0 0.092793224
H  H334  1  0.11773000  0.14127000  0.31487000  1.0 0.0819373376
H  H335  1  0.78440000  0.47460000  0.64820000  1.0 0.0819373376
H  H336  1  0.45107000  0.80793000  0.98153000  1.0 0.0819373376
H  H337  1  0.39230000  0.34250000  0.43490000  1.0 0.1094923151
H  H338  1  0.05897000  0.67583000  0.76823000  1.0 0.1094923151
H  H339  1  0.72563000  0.00917000  0.10157000  1.0 0.1094923151
H  H340  1  0.40240000  0.34600000  0.48330000  1.0 0.0709394059
H  H341  1  0.06907000  0.67933000  0.81663000  1.0 0.0709394059
H  H342  1  0.73573000  0.01267000  0.14997000  1.0 0.0709394059
H  H343  1  0.33827000  0.35613000  0.50333000  1.0 0.0709394059
H  H344  1  0.00493000  0.68947000  0.83667000  1.0 0.0709394059
H  H345  1  0.67160000  0.02280000  0.17000000  1.0 0.0709394059
H  H346  1  0.33013000  0.35677000  0.45427000  1.0 0.1094923151
H  H347  1  0.99680000  0.69010000  0.78760000  1.0 0.1094923151
H  H348  1  0.66347000  0.02343000  0.12093000  1.0 0.1094923151
H  H349  1  0.40320000  0.33560000  0.52620000  1.0 0.0709394059
H  H350  1  0.06987000  0.66893000  0.85953000  1.0 0.0709394059
H  H351  1  0.73653000  0.00227000  0.19287000  1.0 0.0709394059
H  H352  1  0.36723000  0.38077000  0.60157000  1.0 0.0819373376
H  H353  1  0.03390000  0.71410000  0.93490000  1.0 0.0819373376
H  H354  1  0.70057000  0.04743000  0.26823000  1.0 0.0819373376
H  H355  1  0.35687000  0.37533000  0.54893000  1.0 0.0994499452
H  H356  1  0.02353000  0.70867000  0.88227000  1.0 0.0994499452
H  H357  1  0.69020000  0.04200000  0.21560000  1.0 0.0994499452
H  H358  1  0.28353000  0.18197000  0.27437000  1.0 0.0994499452
H  H359  1  0.95020000  0.51530000  0.60770000  1.0 0.0994499452
H  H360  1  0.61687000  0.84863000  0.94103000  1.0 0.0994499452
H  H361  1  0.27693000  0.12697000  0.26427000  1.0 0.0709394059
H  H362  1  0.94360000  0.46030000  0.59760000  1.0 0.0709394059
H  H363  1  0.61027000  0.79363000  0.93093000  1.0 0.0709394059
H  H364  1  0.35120000  0.18120000  0.32840000  1.0 0.0709394059
H  H365  1  0.01787000  0.51453000  0.66173000  1.0 0.0709394059
H  H366  1  0.68453000  0.84787000  0.99507000  1.0 0.0709394059
H  H367  1  0.35997000  0.23903000  0.33653000  1.0 0.1255354113
H  H368  1  0.02663000  0.57237000  0.66987000  1.0 0.1255354113
H  H369  1  0.69330000  0.90570000  0.00320000  1.0 0.1255354113
H  H370  1  0.26573000  0.07287000  0.26347000  1.0 0.0709394059
H  H371  1  0.93240000  0.40620000  0.59680000  1.0 0.0709394059
H  H372  1  0.59907000  0.73953000  0.93013000  1.0 0.0709394059
H  H373  1  0.34687000  0.07863000  0.29943000  1.0 0.0819373376
H  H374  1  0.01353000  0.41197000  0.63277000  1.0 0.0819373376
H  H375  1  0.68020000  0.74530000  0.96610000  1.0 0.0819373376
H  H376  1  0.35180000  0.13620000  0.30980000  1.0 0.0709394059
H  H377  1  0.01847000  0.46953000  0.64313000  1.0 0.0709394059
H  H378  1  0.68513000  0.80287000  0.97647000  1.0 0.0709394059
H  H379  1  0.26823000  0.15137000  0.55897000  1.0 0.0994499452
H  H380  1  0.93490000  0.48470000  0.89230000  1.0 0.0994499452
H  H381  1  0.60157000  0.81803000  0.22563000  1.0 0.0994499452
H  H382  1  0.31663000  0.20637000  0.56907000  1.0 0.0709394059
H  H383  1  0.98330000  0.53970000  0.90240000  1.0 0.0709394059
H  H384  1  0.64997000  0.87303000  0.23573000  1.0 0.0709394059
H  H385  1  0.33667000  0.15213000  0.50493000  1.0 0.0709394059
H  H386  1  0.00333000  0.48547000  0.83827000  1.0 0.0709394059
H  H387  1  0.67000000  0.81880000  0.17160000  1.0 0.0709394059
H  H388  1  0.28760000  0.09430000  0.49680000  1.0 0.1255354113
H  H389  1  0.95427000  0.42763000  0.83013000  1.0 0.1255354113
H  H390  1  0.62093000  0.76097000  0.16347000  1.0 0.1255354113
H  H391  1  0.35953000  0.26047000  0.56987000  1.0 0.0709394059
H  H392  1  0.02620000  0.59380000  0.90320000  1.0 0.0709394059
H  H393  1  0.69287000  0.92713000  0.23653000  1.0 0.0709394059
H  H394  1  0.43490000  0.25470000  0.53390000  1.0 0.0819373376
H  H395  1  0.10157000  0.58803000  0.86723000  1.0 0.0819373376
H  H396  1  0.76823000  0.92137000  0.20057000  1.0 0.0819373376
H  H397  1  0.38227000  0.19713000  0.52353000  1.0 0.0709394059
H  H398  1  0.04893000  0.53047000  0.85687000  1.0 0.0709394059
H  H399  1  0.71560000  0.86380000  0.19020000  1.0 0.0709394059
H  H400  1  0.10770000  0.04260000  0.45020000  1.0 0.120328809
H  H401  1  0.77437000  0.37593000  0.78353000  1.0 0.120328809
H  H402  1  0.44103000  0.70927000  0.11687000  1.0 0.120328809
H  H403  1  0.09760000  0.08090000  0.44360000  1.0 0.0819373376
H  H404  1  0.76427000  0.41423000  0.77693000  1.0 0.0819373376
H  H405  1  0.43093000  0.74757000  0.11027000  1.0 0.0819373376
H  H406  1  0.16173000  0.16507000  0.51787000  1.0 0.0819373376
H  H407  1  0.82840000  0.49840000  0.85120000  1.0 0.0819373376
H  H408  1  0.49507000  0.83173000  0.18453000  1.0 0.0819373376
H  H409  1  0.16987000  0.12413000  0.52663000  1.0 0.1094923151
H  H410  1  0.83653000  0.45747000  0.85997000  1.0 0.1094923151
H  H411  1  0.50320000  0.79080000  0.19330000  1.0 0.1094923151
H  H412  1  0.09680000  0.12300000  0.43240000  1.0 0.0709394059
H  H413  1  0.76347000  0.45633000  0.76573000  1.0 0.0709394059
H  H414  1  0.43013000  0.78967000  0.09907000  1.0 0.0709394059
H  H415  1  0.13277000  0.23433000  0.51353000  1.0 0.092793224
H  H416  1  0.79943000  0.56767000  0.84687000  1.0 0.092793224
H  H417  1  0.46610000  0.90100000  0.18020000  1.0 0.092793224
H  H418  1  0.14313000  0.19207000  0.51847000  1.0 0.0819373376
H  H419  1  0.80980000  0.52540000  0.85180000  1.0 0.0819373376
H  H420  1  0.47647000  0.85873000  0.18513000  1.0 0.0819373376
H  H421  1  0.21647000  0.99083000  0.39843000  1.0 0.1094923151
H  H422  1  0.88313000  0.32417000  0.73177000  1.0 0.1094923151
H  H423  1  0.54980000  0.65750000  0.06510000  1.0 0.1094923151
H  H424  1  0.22307000  0.98733000  0.35003000  1.0 0.0709394059
H  H425  1  0.88973000  0.32067000  0.68337000  1.0 0.0709394059
H  H426  1  0.55640000  0.65400000  0.01670000  1.0 0.0709394059
H  H427  1  0.14880000  0.97720000  0.33000000  1.0 0.0709394059
H  H428  1  0.81547000  0.31053000  0.66333000  1.0 0.0709394059
H  H429  1  0.48213000  0.64387000  0.99667000  1.0 0.0709394059
H  H430  1  0.14003000  0.97657000  0.37907000  1.0 0.1094923151
H  H431  1  0.80670000  0.30990000  0.71240000  1.0 0.1094923151
H  H432  1  0.47337000  0.64323000  0.04573000  1.0 0.1094923151
H  H433  1  0.23427000  0.99773000  0.30713000  1.0 0.0709394059
H  H434  1  0.90093000  0.33107000  0.64047000  1.0 0.0709394059
H  H435  1  0.56760000  0.66440000  0.97380000  1.0 0.0709394059
H  H436  1  0.15313000  0.95257000  0.23177000  1.0 0.0819373376
H  H437  1  0.81980000  0.28590000  0.56510000  1.0 0.0819373376
H  H438  1  0.48647000  0.61923000  0.89843000  1.0 0.0819373376
H  H439  1  0.14820000  0.95800000  0.28440000  1.0 0.0994499452
H  H440  1  0.81487000  0.29133000  0.61773000  1.0 0.0994499452
H  H441  1  0.48153000  0.62467000  0.95107000  1.0 0.0994499452
H  H442  1  0.79337000  0.97183000  0.37943000  1.0 0.0994499452
H  H443  1  0.46003000  0.30517000  0.71277000  1.0 0.0994499452
H  H444  1  0.12670000  0.63850000  0.04610000  1.0 0.0994499452
H  H445  1  0.77490000  0.97670000  0.33940000  1.0 0.0709394059
H  H446  1  0.44157000  0.31003000  0.67273000  1.0 0.0709394059
H  H447  1  0.10823000  0.64337000  0.00607000  1.0 0.0709394059
H  H448  1  0.76147000  0.04413000  0.39693000  1.0 0.0709394059
H  H449  1  0.42813000  0.37747000  0.73027000  1.0 0.0709394059
H  H450  1  0.09480000  0.71080000  0.06360000  1.0 0.0709394059
H  H451  1  0.77740000  0.03570000  0.43820000  1.0 0.1255354113
H  H452  1  0.44407000  0.36903000  0.77153000  1.0 0.1255354113
H  H453  1  0.11073000  0.70237000  0.10487000  1.0 0.1255354113
H  H454  1  0.76753000  0.99367000  0.30307000  1.0 0.0709394059
H  H455  1  0.43420000  0.32700000  0.63640000  1.0 0.0709394059
H  H456  1  0.10087000  0.66033000  0.96973000  1.0 0.0709394059
H  H457  1  0.71230000  0.03970000  0.31890000  1.0 0.0819373376
H  H458  1  0.37897000  0.37303000  0.65223000  1.0 0.0819373376
H  H459  1  0.04563000  0.70637000  0.98557000  1.0 0.0819373376
H  H460  1  0.73347000  0.03433000  0.36073000  1.0 0.0709394059
H  H461  1  0.40013000  0.36767000  0.69407000  1.0 0.0709394059
H  H462  1  0.06680000  0.70100000  0.02740000  1.0 0.0709394059
H  H463  1  0.95390000  0.08060000  0.48820000  1.0 0.120328809
H  H464  1  0.62057000  0.41393000  0.82153000  1.0 0.120328809
H  H465  1  0.28723000  0.74727000  0.15487000  1.0 0.120328809
H  H466  1  0.99393000  0.10217000  0.46487000  1.0 0.0819373376
H  H467  1  0.66060000  0.43550000  0.79820000  1.0 0.0819373376
H  H468  1  0.32727000  0.76883000  0.13153000  1.0 0.0819373376
H  H469  1  0.93640000  0.03120000  0.38400000  1.0 0.0819373376
H  H470  1  0.60307000  0.36453000  0.71733000  1.0 0.0819373376
H  H471  1  0.26973000  0.69787000  0.05067000  1.0 0.0819373376
H  H472  1  0.89513000  0.00587000  0.40837000  1.0 0.1094923151
H  H473  1  0.56180000  0.33920000  0.74170000  1.0 0.1094923151
H  H474  1  0.22847000  0.67253000  0.07503000  1.0 0.1094923151
H  H475  1  0.03027000  0.13113000  0.44053000  1.0 0.0709394059
H  H476  1  0.69693000  0.46447000  0.77387000  1.0 0.0709394059
H  H477  1  0.36360000  0.79780000  0.10720000  1.0 0.0709394059
H  H478  1  0.01443000  0.06007000  0.33927000  1.0 0.092793224
H  H479  1  0.68110000  0.39340000  0.67260000  1.0 0.092793224
H  H480  1  0.34777000  0.72673000  0.00593000  1.0 0.092793224
H  H481  1  0.97260000  0.03940000  0.36580000  1.0 0.0819373376
H  H482  1  0.63927000  0.37273000  0.69913000  1.0 0.0819373376
H  H483  1  0.30593000  0.70607000  0.03247000  1.0 0.0819373376
H  H484  1  0.84513000  0.13237000  0.53997000  1.0 0.1094923151
H  H485  1  0.51180000  0.46570000  0.87330000  1.0 0.1094923151
H  H486  1  0.17847000  0.79903000  0.20663000  1.0 0.1094923151
H  H487  1  0.86847000  0.19573000  0.55843000  1.0 0.0709394059
H  H488  1  0.53513000  0.52907000  0.89177000  1.0 0.0709394059
H  H489  1  0.20180000  0.86240000  0.22510000  1.0 0.0709394059
H  H490  1  0.94933000  0.21907000  0.57187000  1.0 0.0709394059
H  H491  1  0.61600000  0.55240000  0.90520000  1.0 0.0709394059
H  H492  1  0.28267000  0.88573000  0.23853000  1.0 0.0709394059
H  H493  1  0.92497000  0.15343000  0.55593000  1.0 0.1094923151
H  H494  1  0.59163000  0.48677000  0.88927000  1.0 0.1094923151
H  H495  1  0.25830000  0.82010000  0.22260000  1.0 0.1094923151
H  H496  1  0.89280000  0.25640000  0.56580000  1.0 0.0709394059
H  H497  1  0.55947000  0.58973000  0.89913000  1.0 0.0709394059
H  H498  1  0.22613000  0.92307000  0.23247000  1.0 0.0709394059
H  H499  1  0.99407000  0.34183000  0.62103000  1.0 0.0819373376
H  H500  1  0.66073000  0.67517000  0.95437000  1.0 0.0819373376
H  H501  1  0.32740000  0.00850000  0.28770000  1.0 0.0819373376
H  H502  1  0.96753000  0.27347000  0.59987000  1.0 0.0994499452
H  H503  1  0.63420000  0.60680000  0.93320000  1.0 0.0994499452
H  H504  1  0.30087000  0.94013000  0.26653000  1.0 0.0994499452
C  C1  1  0.96369000  0.68951000  0.63295000  1.0 0.0109161783
C  C2  1  0.63035000  0.02285000  0.96629000  1.0 0.0109161783
C  C3  1  0.29702000  0.35618000  0.29962000  1.0 0.0109161783
C  C4  1  0.95278000  0.70685000  0.61692000  1.0 -0.0593089188
C  C5  1  0.61945000  0.04018000  0.95025000  1.0 -0.0593089188
C  C6  1  0.28611000  0.37352000  0.28359000  1.0 -0.0593089188
C  C7  1  0.95251000  0.73602000  0.63323000  1.0 -0.0709758415
C  C8  1  0.61918000  0.06935000  0.96656000  1.0 -0.0709758415
C  C9  1  0.28584000  0.40269000  0.29990000  1.0 -0.0709758415
C  C10  1  0.94194000  0.74899000  0.61926000  1.0 -0.1209108233
C  C11  1  0.60861000  0.08232000  0.95259000  1.0 -0.1209108233
C  C12  1  0.27528000  0.41565000  0.28592000  1.0 -0.1209108233
C  C13  1  0.93158000  0.73521000  0.58812000  1.0 -0.1506424933
C  C14  1  0.59825000  0.06854000  0.92145000  1.0 -0.1506424933
C  C15  1  0.26492000  0.40187000  0.25478000  1.0 -0.1506424933
C  C16  1  0.93374000  0.70748000  0.57244000  1.0 -0.1308876231
C  C17  1  0.60041000  0.04081000  0.90577000  1.0 -0.1308876231
C  C18  1  0.26707000  0.37415000  0.23911000  1.0 -0.1358078219
C  C19  1  0.94374000  0.69257000  0.58676000  1.0 -0.1059833041
C  C20  1  0.61040000  0.02591000  0.92010000  1.0 -0.1059833041
C  C21  1  0.27707000  0.35924000  0.25343000  1.0 -0.1059833041
C  C22  1  0.92029000  0.75118000  0.57270000  1.0 -0.0986969071
C  C23  1  0.58696000  0.08451000  0.90603000  1.0 -0.0986969071
C  C24  1  0.25363000  0.41784000  0.23936000  1.0 -0.0986969071
C  C25  1  0.92381000  0.78350000  0.58624000  1.0 -0.0194209262
C  C26  1  0.59048000  0.11683000  0.91957000  1.0 -0.0194209262
C  C27  1  0.25714000  0.45017000  0.25291000  1.0 -0.0194209262
C  C28  1  0.91339000  0.79690000  0.57172000  1.0 0.002561249
C  C29  1  0.58006000  0.13023000  0.90505000  1.0 0.002561249
C  C30  1  0.24673000  0.46356000  0.23838000  1.0 0.002561249
C  C31  1  0.89711000  0.77631000  0.54175000  1.0 -0.0709758415
C  C32  1  0.56377000  0.10965000  0.87509000  1.0 -0.0709758415
C  C33  1  0.23044000  0.44298000  0.20842000  1.0 -0.0709758415
C  C34  1  0.89093000  0.74179000  0.52634000  1.0 -0.1209108233
C  C35  1  0.55759000  0.07513000  0.85968000  1.0 -0.1209108233
C  C36  1  0.22426000  0.40846000  0.19301000  1.0 -0.1209108233
C  C37  1  0.90346000  0.72941000  0.54260000  1.0 -0.1308876231
C  C38  1  0.57013000  0.06274000  0.87593000  1.0 -0.1308876231
C  C39  1  0.23680000  0.39607000  0.20926000  1.0 -0.1308876231
C  C40  1  0.05916000  0.75954000  0.70298000  1.0 -0.0489652295
C  C41  1  0.72583000  0.09287000  0.03631000  1.0 -0.0489652295
C  C42  1  0.39249000  0.42621000  0.36965000  1.0 -0.0489652295
C  C43  1  0.08740000  0.80382000  0.71389000  1.0 -0.0489652295
C  C44  1  0.75407000  0.13715000  0.04722000  1.0 -0.0489652295
C  C45  1  0.42074000  0.47048000  0.38055000  1.0 -0.0489652295
C  C46  1  0.11684000  0.81695000  0.71416000  1.0 -0.0593089188
C  C47  1  0.78351000  0.15028000  0.04749000  1.0 -0.0593089188
C  C48  1  0.45018000  0.48361000  0.38082000  1.0 -0.0593089188
C  C49  1  0.14038000  0.85445000  0.72472000  1.0 -0.1308876231
C  C50  1  0.80704000  0.18779000  0.05806000  1.0 -0.1308876231
C  C51  1  0.47371000  0.52112000  0.39139000  1.0 -0.1308876231
C  C52  1  0.13696000  0.88217000  0.73508000  1.0 -0.0986969071
C  C53  1  0.80362000  0.21551000  0.06842000  1.0 -0.0986969071
C  C54  1  0.47029000  0.54884000  0.40175000  1.0 -0.0986969071
C  C55  1  0.10707000  0.86797000  0.73293000  1.0 -0.1308876231
C  C56  1  0.77374000  0.20130000  0.06626000  1.0 -0.1209108233
C  C57  1  0.44041000  0.53463000  0.39959000  1.0 -0.1209108233
C  C58  1  0.08217000  0.82874000  0.72293000  1.0 -0.0709758415
C  C59  1  0.74884000  0.16207000  0.05626000  1.0 -0.0709758415
C  C60  1  0.41550000  0.49541000  0.38960000  1.0 -0.0709758415
C  C61  1  0.16422000  0.92485000  0.74637000  1.0 -0.0194209262
C  C62  1  0.83088000  0.25819000  0.07971000  1.0 -0.0194209262
C  C63  1  0.49755000  0.59152000  0.41304000  1.0 -0.0194209262
C  C64  1  0.19302000  0.94012000  0.74286000  1.0 0.002561249
C  C65  1  0.85969000  0.27345000  0.07619000  1.0 0.002561249
C  C66  1  0.52636000  0.60678000  0.40952000  1.0 0.002561249
C  C67  1  0.21684000  0.97845000  0.75327000  1.0 0.002561249
C  C68  1  0.88350000  0.31179000  0.08661000  1.0 0.002561249
C  C69  1  0.55017000  0.64512000  0.41994000  1.0 0.002561249
C  C70  1  0.21254000  0.00412000  0.76956000  1.0 -0.0194209262
C  C71  1  0.87921000  0.33745000  0.10289000  1.0 -0.0194209262
C  C72  1  0.54587000  0.67079000  0.43623000  1.0 -0.0194209262
C  C73  1  0.18420000  0.99119000  0.77574000  1.0 -0.0323120937
C  C74  1  0.85087000  0.32452000  0.10907000  1.0 -0.0323120937
C  C75  1  0.51753000  0.65786000  0.44241000  1.0 -0.0323120937
C  C76  1  0.15928000  0.95001000  0.76320000  1.0 -0.0323120937
C  C77  1  0.82594000  0.28335000  0.09654000  1.0 -0.0323120937
C  C78  1  0.49261000  0.61668000  0.42987000  1.0 -0.0323120937
C  C79  1  0.03371000  0.66407000  0.60751000  1.0 0.002561249
C  C80  1  0.70038000  0.99740000  0.94084000  1.0 0.002561249
C  C81  1  0.36705000  0.33073000  0.27417000  1.0 0.002561249
C  C82  1  0.04975000  0.66919000  0.57926000  1.0 -0.0809881261
C  C83  1  0.71641000  0.00253000  0.91260000  1.0 -0.0809881261
C  C84  1  0.38308000  0.33586000  0.24593000  1.0 -0.0809881261
C  C85  1  0.03344000  0.65261000  0.54982000  1.0 -0.1059833041
C  C86  1  0.70010000  0.98595000  0.88316000  1.0 -0.1059833041
C  C87  1  0.36677000  0.31928000  0.21649000  1.0 -0.1059833041
C  C88  1  0.04741000  0.65602000  0.52629000  1.0 -0.1308876231
C  C89  1  0.71408000  0.98935000  0.85962000  1.0 -0.1308876231
C  C90  1  0.38074000  0.32269000  0.19296000  1.0 -0.1308876231
C  C91  1  0.07855000  0.67680000  0.52971000  1.0 -0.1506424933
C  C92  1  0.74522000  0.01013000  0.86304000  1.0 -0.1506424933
C  C93  1  0.41188000  0.34347000  0.19638000  1.0 -0.1506424933
C  C94  1  0.09423000  0.69463000  0.55959000  1.0 -0.1656358886
C  C95  1  0.76089000  0.02797000  0.89293000  1.0 -0.1656358886
C  C96  1  0.42756000  0.36130000  0.22626000  1.0 -0.1656358886
C  C97  1  0.07990000  0.69031000  0.58450000  1.0 -0.0986969071
C  C98  1  0.74657000  0.02364000  0.91783000  1.0 -0.0986969071
C  C99  1  0.41324000  0.35697000  0.25116000  1.0 -0.0986969071
C  C100  1  0.09397000  0.68093000  0.50245000  1.0 -0.0986969071
C  C101  1  0.76064000  0.01426000  0.83578000  1.0 -0.0986969071
C  C102  1  0.42730000  0.34760000  0.16912000  1.0 -0.0986969071
C  C103  1  0.08043000  0.67090000  0.47364000  1.0 -0.0119684148
C  C104  1  0.74709000  0.00424000  0.80698000  1.0 -0.0119684148
C  C105  1  0.41376000  0.33757000  0.14031000  1.0 -0.0119684148
C  C106  1  0.09495000  0.67501000  0.44983000  1.0 -0.0119684148
C  C107  1  0.76162000  0.00834000  0.78316000  1.0 -0.0119684148
C  C108  1  0.42828000  0.34168000  0.11650000  1.0 -0.0119684148
C  C109  1  0.12491000  0.68869000  0.45413000  1.0 -0.0119684148
C  C110  1  0.79158000  0.02202000  0.78746000  1.0 -0.0119684148
C  C111  1  0.45825000  0.35535000  0.12079000  1.0 -0.0119684148
C  C112  1  0.14032000  0.69792000  0.48247000  1.0 -0.0809881261
C  C113  1  0.80699000  0.03125000  0.81580000  1.0 -0.0809881261
C  C114  1  0.47366000  0.36458000  0.14913000  1.0 -0.0809881261
C  C115  1  0.12407000  0.69420000  0.50739000  1.0 -0.1506424933
C  C116  1  0.79074000  0.02753000  0.84072000  1.0 -0.1506424933
C  C117  1  0.45740000  0.36087000  0.17406000  1.0 -0.1506424933
C  C118  1  0.74069000  0.71923000  0.66267000  1.0 0.0109161783
C  C119  1  0.40735000  0.05257000  0.99601000  1.0 0.0109161783
C  C120  1  0.07402000  0.38590000  0.32934000  1.0 0.0109161783
C  C121  1  0.77384000  0.74639000  0.65646000  1.0 -0.0593089188
C  C122  1  0.44051000  0.07972000  0.98979000  1.0 -0.0593089188
C  C123  1  0.10717000  0.41306000  0.32313000  1.0 -0.0593089188
C  C124  1  0.78268000  0.73437000  0.63158000  1.0 -0.0709758415
C  C125  1  0.44935000  0.06770000  0.96491000  1.0 -0.0709758415
C  C126  1  0.11602000  0.40103000  0.29824000  1.0 -0.0709758415
C  C127  1  0.81121000  0.75732000  0.62759000  1.0 -0.1209108233
C  C128  1  0.47788000  0.09065000  0.96092000  1.0 -0.1209108233
C  C129  1  0.14454000  0.42399000  0.29426000  1.0 -0.1209108233
C  C130  1  0.83314000  0.79425000  0.64716000  1.0 -0.1506424933
C  C131  1  0.49981000  0.12758000  0.98049000  1.0 -0.1506424933
C  C132  1  0.16648000  0.46091000  0.31382000  1.0 -0.1506424933
C  C133  1  0.82295000  0.80591000  0.67087000  1.0 -0.1308876231
C  C134  1  0.48962000  0.13924000  0.00420000  1.0 -0.1308876231
C  C135  1  0.15629000  0.47257000  0.33753000  1.0 -0.1358078219
C  C136  1  0.79347000  0.78184000  0.67603000  1.0 -0.1059833041
C  C137  1  0.46014000  0.11517000  0.00936000  1.0 -0.1059833041
C  C138  1  0.12680000  0.44851000  0.34270000  1.0 -0.1059833041
C  C139  1  0.86536000  0.82013000  0.64165000  1.0 -0.0986969071
C  C140  1  0.53203000  0.15346000  0.97498000  1.0 -0.0986969071
C  C141  1  0.19869000  0.48680000  0.30832000  1.0 -0.0986969071
C  C142  1  0.87436000  0.81285000  0.61559000  1.0 -0.0194209262
C  C143  1  0.54103000  0.14618000  0.94892000  1.0 -0.0194209262
C  C144  1  0.20770000  0.47951000  0.28225000  1.0 -0.0194209262
C  C145  1  0.90339000  0.83668000  0.61150000  1.0 0.002561249
C  C146  1  0.57006000  0.17001000  0.94483000  1.0 0.002561249
C  C147  1  0.23673000  0.50334000  0.27816000  1.0 0.002561249
C  C148  1  0.92593000  0.86977000  0.63521000  1.0 -0.0709758415
C  C149  1  0.59260000  0.20310000  0.96854000  1.0 -0.0709758415
C  C150  1  0.25927000  0.53643000  0.30187000  1.0 -0.0709758415
C  C151  1  0.91937000  0.87881000  0.66336000  1.0 -0.1209108233
C  C152  1  0.58604000  0.21214000  0.99669000  1.0 -0.1209108233
C  C153  1  0.25271000  0.54547000  0.33002000  1.0 -0.1209108233
C  C154  1  0.88774000  0.85301000  0.66620000  1.0 -0.1308876231
C  C155  1  0.55441000  0.18634000  0.99953000  1.0 -0.1308876231
C  C156  1  0.22108000  0.51967000  0.33286000  1.0 -0.1308876231
C  C157  1  0.64521000  0.64921000  0.59265000  1.0 -0.0489652295
C  C158  1  0.31188000  0.98254000  0.92598000  1.0 -0.0489652295
C  C159  1  0.97855000  0.31587000  0.25931000  1.0 -0.0489652295
C  C160  1  0.63922000  0.64942000  0.55949000  1.0 -0.0489652295
C  C161  1  0.30588000  0.98276000  0.89283000  1.0 -0.0489652295
C  C162  1  0.97255000  0.31609000  0.22616000  1.0 -0.0489652295
C  C163  1  0.61835000  0.65344000  0.55065000  1.0 -0.0593089188
C  C164  1  0.28502000  0.98677000  0.88398000  1.0 -0.0593089188
C  C165  1  0.95168000  0.32011000  0.21732000  1.0 -0.0593089188
C  C166  1  0.61278000  0.65185000  0.52212000  1.0 -0.1308876231
C  C167  1  0.27944000  0.98519000  0.85546000  1.0 -0.1308876231
C  C168  1  0.94611000  0.31852000  0.18879000  1.0 -0.1308876231
C  C169  1  0.62777000  0.64728000  0.50019000  1.0 -0.0986969071
C  C170  1  0.29444000  0.98061000  0.83352000  1.0 -0.0986969071
C  C171  1  0.96110000  0.31395000  0.16686000  1.0 -0.0986969071
C  C172  1  0.64962000  0.64542000  0.51038000  1.0 -0.1209108233
C  C173  1  0.31629000  0.97875000  0.84371000  1.0 -0.1308876231
C  C174  1  0.98295000  0.31209000  0.17705000  1.0 -0.1209108233
C  C175  1  0.65504000  0.64567000  0.53986000  1.0 -0.0709758415
C  C176  1  0.32170000  0.97901000  0.87320000  1.0 -0.0709758415
C  C177  1  0.98837000  0.31234000  0.20653000  1.0 -0.0709758415
C  C178  1  0.62144000  0.64645000  0.46797000  1.0 -0.0194209262
C  C179  1  0.28810000  0.97979000  0.80131000  1.0 -0.0194209262
C  C180  1  0.95477000  0.31312000  0.13464000  1.0 -0.0194209262
C  C181  1  0.60515000  0.65623000  0.45897000  1.0 0.002561249
C  C182  1  0.27182000  0.98956000  0.79230000  1.0 0.002561249
C  C183  1  0.93848000  0.32290000  0.12564000  1.0 0.002561249
C  C184  1  0.59995000  0.65512000  0.42994000  1.0 0.002561249
C  C185  1  0.26662000  0.98845000  0.76327000  1.0 0.002561249
C  C186  1  0.93328000  0.32179000  0.09661000  1.0 0.002561249
C  C187  1  0.61050000  0.64196000  0.40740000  1.0 -0.0194209262
C  C188  1  0.27717000  0.97529000  0.74073000  1.0 -0.0194209262
C  C189  1  0.94383000  0.30863000  0.07407000  1.0 -0.0194209262
C  C190  1  0.62610000  0.62941000  0.41396000  1.0 -0.0323120937
C  C191  1  0.29277000  0.96274000  0.74729000  1.0 -0.0323120937
C  C192  1  0.95943000  0.29608000  0.08063000  1.0 -0.0323120937
C  C193  1  0.63193000  0.63240000  0.44559000  1.0 -0.0323120937
C  C194  1  0.29860000  0.96573000  0.77892000  1.0 -0.0323120937
C  C195  1  0.96526000  0.29907000  0.11226000  1.0 -0.0323120937
C  C196  1  0.67066000  0.74468000  0.68812000  1.0 0.002561249
C  C197  1  0.33733000  0.07801000  0.02145000  1.0 0.002561249
C  C198  1  0.00399000  0.41135000  0.35479000  1.0 0.002561249
C  C199  1  0.67687000  0.78405000  0.69412000  1.0 -0.0809881261
C  C200  1  0.34354000  0.11738000  0.02745000  1.0 -0.0809881261
C  C201  1  0.01021000  0.45071000  0.36078000  1.0 -0.0809881261
C  C202  1  0.70176000  0.81777000  0.71498000  1.0 -0.1059833041
C  C203  1  0.36842000  0.15111000  0.04832000  1.0 -0.1059833041
C  C204  1  0.03509000  0.48444000  0.38165000  1.0 -0.1059833041
C  C205  1  0.70574000  0.85029000  0.72056000  1.0 -0.1308876231
C  C206  1  0.37241000  0.18362000  0.05389000  1.0 -0.1308876231
C  C207  1  0.03908000  0.51695000  0.38722000  1.0 -0.1308876231
C  C208  1  0.68618000  0.85265000  0.70556000  1.0 -0.1506424933
C  C209  1  0.35284000  0.18599000  0.03890000  1.0 -0.1506424933
C  C210  1  0.01951000  0.51932000  0.37223000  1.0 -0.1506424933
C  C211  1  0.66247000  0.81875000  0.68371000  1.0 -0.1656358886
C  C212  1  0.32913000  0.15209000  0.01705000  1.0 -0.1656358886
C  C213  1  0.99580000  0.48542000  0.35038000  1.0 -0.1656358886
C  C214  1  0.65730000  0.78411000  0.67830000  1.0 -0.0986969071
C  C215  1  0.32397000  0.11744000  0.01163000  1.0 -0.0986969071
C  C216  1  0.99064000  0.45077000  0.34496000  1.0 -0.0986969071
C  C217  1  0.69168000  0.89038000  0.71190000  1.0 -0.0986969071
C  C218  1  0.35835000  0.22371000  0.04523000  1.0 -0.0986969071
C  C219  1  0.02502000  0.55704000  0.37856000  1.0 -0.0986969071
C  C220  1  0.71775000  0.92544000  0.72818000  1.0 -0.0119684148
C  C221  1  0.38441000  0.25878000  0.06152000  1.0 -0.0119684148
C  C222  1  0.05108000  0.59211000  0.39485000  1.0 -0.0119684148
C  C223  1  0.72184000  0.95856000  0.73338000  1.0 -0.0119684148
C  C224  1  0.38850000  0.29190000  0.06672000  1.0 -0.0119684148
C  C225  1  0.05517000  0.62523000  0.40005000  1.0 -0.0119684148
C  C226  1  0.69813000  0.95739000  0.72283000  1.0 -0.0119684148
C  C227  1  0.36479000  0.29073000  0.05617000  1.0 -0.0119684148
C  C228  1  0.03146000  0.62406000  0.38950000  1.0 -0.0119684148
C  C229  1  0.66998000  0.92268000  0.70723000  1.0 -0.0809881261
C  C230  1  0.33664000  0.25602000  0.04057000  1.0 -0.0809881261
C  C231  1  0.00331000  0.58935000  0.37390000  1.0 -0.0809881261
C  C232  1  0.66714000  0.88821000  0.70140000  1.0 -0.1506424933
C  C233  1  0.33380000  0.22155000  0.03474000  1.0 -0.1506424933
C  C234  1  0.00047000  0.55488000  0.36807000  1.0 -0.1506424933
C  C235  1  0.75931000  0.92199000  0.47855000  1.0 0.002561249
C  C236  1  0.42598000  0.25532000  0.81188000  1.0 0.002561249
C  C237  1  0.09265000  0.58865000  0.14521000  1.0 0.002561249
C  C238  1  0.72616000  0.88262000  0.47255000  1.0 -0.0809881261
C  C239  1  0.39283000  0.21595000  0.80588000  1.0 -0.0809881261
C  C240  1  0.05949000  0.54929000  0.13922000  1.0 -0.0809881261
C  C241  1  0.71732000  0.84889000  0.45168000  1.0 -0.1059833041
C  C242  1  0.38398000  0.18223000  0.78502000  1.0 -0.1059833041
C  C243  1  0.05065000  0.51556000  0.11835000  1.0 -0.1059833041
C  C244  1  0.68879000  0.81638000  0.44611000  1.0 -0.1308876231
C  C245  1  0.35546000  0.14971000  0.77944000  1.0 -0.1308876231
C  C246  1  0.02212000  0.48305000  0.11278000  1.0 -0.1308876231
C  C247  1  0.66686000  0.81401000  0.46110000  1.0 -0.1506424933
C  C248  1  0.33352000  0.14735000  0.79444000  1.0 -0.1506424933
C  C249  1  0.00019000  0.48068000  0.12777000  1.0 -0.1506424933
C  C250  1  0.67705000  0.84791000  0.48295000  1.0 -0.1656358886
C  C251  1  0.34371000  0.18125000  0.81629000  1.0 -0.1656358886
C  C252  1  0.01038000  0.51458000  0.14962000  1.0 -0.1656358886
C  C253  1  0.70653000  0.88256000  0.48837000  1.0 -0.0986969071
C  C254  1  0.37320000  0.21589000  0.82170000  1.0 -0.0986969071
C  C255  1  0.03986000  0.54923000  0.15504000  1.0 -0.0986969071
C  C256  1  0.63464000  0.77629000  0.45477000  1.0 -0.0986969071
C  C257  1  0.30131000  0.10962000  0.78810000  1.0 -0.0986969071
C  C258  1  0.96797000  0.44296000  0.12144000  1.0 -0.0986969071
C  C259  1  0.62564000  0.74122000  0.43848000  1.0 -0.0119684148
C  C260  1  0.29230000  0.07456000  0.77182000  1.0 -0.0119684148
C  C261  1  0.95897000  0.40789000  0.10515000  1.0 -0.0119684148
C  C262  1  0.59661000  0.70810000  0.43328000  1.0 -0.0119684148
C  C263  1  0.26327000  0.04144000  0.76662000  1.0 -0.0119684148
C  C264  1  0.92994000  0.37477000  0.09995000  1.0 -0.0119684148
C  C265  1  0.57407000  0.70927000  0.44383000  1.0 -0.0119684148
C  C266  1  0.24073000  0.04261000  0.77717000  1.0 -0.0119684148
C  C267  1  0.90740000  0.37594000  0.11050000  1.0 -0.0119684148
C  C268  1  0.58063000  0.74398000  0.45943000  1.0 -0.0809881261
C  C269  1  0.24729000  0.07732000  0.79277000  1.0 -0.0809881261
C  C270  1  0.91396000  0.41065000  0.12610000  1.0 -0.0809881261
C  C271  1  0.61226000  0.77845000  0.46526000  1.0 -0.1506424933
C  C272  1  0.27892000  0.11179000  0.79860000  1.0 -0.1506424933
C  C273  1  0.94559000  0.44512000  0.13193000  1.0 -0.1506424933
C  C274  1  0.85479000  0.94743000  0.50399000  1.0 0.0173599273
C  C275  1  0.52145000  0.28077000  0.83733000  1.0 0.0109161783
C  C276  1  0.18812000  0.61410000  0.17066000  1.0 0.0109161783
C  C277  1  0.86078000  0.92028000  0.51021000  1.0 -0.0593089188
C  C278  1  0.52745000  0.25361000  0.84354000  1.0 -0.0593089188
C  C279  1  0.19412000  0.58694000  0.17687000  1.0 -0.0593089188
C  C280  1  0.88165000  0.93230000  0.53509000  1.0 -0.0709758415
C  C281  1  0.54832000  0.26563000  0.86842000  1.0 -0.0709758415
C  C282  1  0.21498000  0.59897000  0.20176000  1.0 -0.0709758415
C  C283  1  0.88722000  0.90935000  0.53908000  1.0 -0.1209108233
C  C284  1  0.55389000  0.24268000  0.87241000  1.0 -0.1209108233
C  C285  1  0.22056000  0.57601000  0.20574000  1.0 -0.1209108233
C  C286  1  0.87223000  0.87242000  0.51951000  1.0 -0.1506424933
C  C287  1  0.53890000  0.20575000  0.85284000  1.0 -0.1506424933
C  C288  1  0.20556000  0.53909000  0.18618000  1.0 -0.1506424933
C  C289  1  0.85038000  0.86076000  0.49580000  1.0 -0.1358078219
C  C290  1  0.51705000  0.19409000  0.82913000  1.0 -0.1308876231
C  C291  1  0.18371000  0.52743000  0.16247000  1.0 -0.1308876231
C  C292  1  0.84496000  0.88483000  0.49064000  1.0 -0.1059833041
C  C293  1  0.51163000  0.21816000  0.82397000  1.0 -0.1059833041
C  C294  1  0.17830000  0.55149000  0.15730000  1.0 -0.1059833041
C  C295  1  0.87856000  0.84654000  0.52502000  1.0 -0.0986969071
C  C296  1  0.54523000  0.17987000  0.85835000  1.0 -0.0986969071
C  C297  1  0.21190000  0.51320000  0.19168000  1.0 -0.0986969071
C  C298  1  0.89485000  0.85382000  0.55108000  1.0 -0.0194209262
C  C299  1  0.56152000  0.18715000  0.88441000  1.0 -0.0194209262
C  C300  1  0.22818000  0.52049000  0.21775000  1.0 -0.0194209262
C  C301  1  0.90005000  0.82999000  0.55517000  1.0 0.002561249
C  C302  1  0.56672000  0.16332000  0.88850000  1.0 0.002561249
C  C303  1  0.23338000  0.49666000  0.22184000  1.0 0.002561249
C  C304  1  0.88950000  0.79690000  0.53146000  1.0 -0.0709758415
C  C305  1  0.55617000  0.13023000  0.86479000  1.0 -0.0709758415
C  C306  1  0.22283000  0.46357000  0.19813000  1.0 -0.0709758415
C  C307  1  0.87390000  0.78786000  0.50331000  1.0 -0.1209108233
C  C308  1  0.54057000  0.12119000  0.83664000  1.0 -0.1209108233
C  C309  1  0.20723000  0.45453000  0.16998000  1.0 -0.1209108233
C  C310  1  0.86807000  0.81366000  0.50047000  1.0 -0.1308876231
C  C311  1  0.53474000  0.14699000  0.83380000  1.0 -0.1308876231
C  C312  1  0.20140000  0.48033000  0.16714000  1.0 -0.1308876231
C  C313  1  0.82934000  0.01746000  0.57402000  1.0 -0.0489652295
C  C314  1  0.49601000  0.35079000  0.90735000  1.0 -0.0489652295
C  C315  1  0.16267000  0.68413000  0.24069000  1.0 -0.0489652295
C  C316  1  0.82313000  0.01724000  0.60717000  1.0 -0.0489652295
C  C317  1  0.48979000  0.35058000  0.94051000  1.0 -0.0489652295
C  C318  1  0.15646000  0.68391000  0.27384000  1.0 -0.0489652295
C  C319  1  0.79824000  0.01323000  0.61602000  1.0 -0.0593089188
C  C320  1  0.46491000  0.34656000  0.94935000  1.0 -0.0593089188
C  C321  1  0.13158000  0.67989000  0.28268000  1.0 -0.0593089188
C  C322  1  0.79426000  0.01481000  0.64454000  1.0 -0.1308876231
C  C323  1  0.46092000  0.34815000  0.97788000  1.0 -0.1308876231
C  C324  1  0.12759000  0.68148000  0.31121000  1.0 -0.1308876231
C  C325  1  0.81382000  0.01939000  0.66648000  1.0 -0.0986969071
C  C326  1  0.48049000  0.35272000  0.99981000  1.0 -0.0986969071
C  C327  1  0.14716000  0.68605000  0.33314000  1.0 -0.0986969071
C  C328  1  0.83753000  0.02125000  0.65629000  1.0 -0.1209108233
C  C329  1  0.50420000  0.35458000  0.98962000  1.0 -0.1209108233
C  C330  1  0.17087000  0.68791000  0.32295000  1.0 -0.1308876231
C  C331  1  0.84270000  0.02099000  0.62680000  1.0 -0.0709758415
C  C332  1  0.50936000  0.35433000  0.96014000  1.0 -0.0709758415
C  C333  1  0.17603000  0.68766000  0.29347000  1.0 -0.0709758415
C  C334  1  0.80832000  0.02021000  0.69869000  1.0 -0.0194209262
C  C335  1  0.47498000  0.35355000  0.03203000  1.0 -0.0194209262
C  C336  1  0.14165000  0.68688000  0.36536000  1.0 -0.0194209262
C  C337  1  0.78225000  0.01044000  0.70770000  1.0 0.002561249
C  C338  1  0.44892000  0.34377000  0.04103000  1.0 0.002561249
C  C339  1  0.11559000  0.67710000  0.37436000  1.0 0.002561249
C  C340  1  0.77816000  0.01155000  0.73673000  1.0 0.002561249
C  C341  1  0.44483000  0.34488000  0.07006000  1.0 0.002561249
C  C342  1  0.11150000  0.67821000  0.40339000  1.0 0.002561249
C  C343  1  0.80187000  0.02471000  0.75927000  1.0 -0.0194209262
C  C344  1  0.46854000  0.35804000  0.09260000  1.0 -0.0194209262
C  C345  1  0.13521000  0.69137000  0.42593000  1.0 -0.0194209262
C  C346  1  0.83002000  0.03726000  0.75271000  1.0 -0.0323120937
C  C347  1  0.49669000  0.37059000  0.08604000  1.0 -0.0323120937
C  C348  1  0.16336000  0.70392000  0.41937000  1.0 -0.0323120937
C  C349  1  0.83286000  0.03427000  0.72108000  1.0 -0.0323120937
C  C350  1  0.49953000  0.36760000  0.05441000  1.0 -0.0323120937
C  C351  1  0.16620000  0.70093000  0.38774000  1.0 -0.0323120937
C  C352  1  0.20298000  0.00260000  0.55916000  1.0 0.002561249
C  C353  1  0.86965000  0.33593000  0.89249000  1.0 0.002561249
C  C354  1  0.53631000  0.66927000  0.22583000  1.0 0.002561249
C  C355  1  0.21389000  0.99747000  0.58740000  1.0 -0.0809881261
C  C356  1  0.88055000  0.33081000  0.92074000  1.0 -0.0809881261
C  C357  1  0.54722000  0.66414000  0.25407000  1.0 -0.0809881261
C  C358  1  0.21416000  0.01405000  0.61684000  1.0 -0.1059833041
C  C359  1  0.88082000  0.34739000  0.95018000  1.0 -0.1059833041
C  C360  1  0.54749000  0.68072000  0.28351000  1.0 -0.1059833041
C  C361  1  0.22472000  0.01065000  0.64038000  1.0 -0.1308876231
C  C362  1  0.89139000  0.34398000  0.97371000  1.0 -0.1308876231
C  C363  1  0.55806000  0.67731000  0.30704000  1.0 -0.1308876231
C  C364  1  0.23508000  0.98987000  0.63696000  1.0 -0.1506424933
C  C365  1  0.90175000  0.32320000  0.97029000  1.0 -0.1506424933
C  C366  1  0.56842000  0.65653000  0.30362000  1.0 -0.1506424933
C  C367  1  0.23293000  0.97203000  0.60707000  1.0 -0.1656358886
C  C368  1  0.89959000  0.30537000  0.94041000  1.0 -0.1656358886
C  C369  1  0.56626000  0.63870000  0.27374000  1.0 -0.1656358886
C  C370  1  0.22293000  0.97636000  0.58217000  1.0 -0.0986969071
C  C371  1  0.88960000  0.30969000  0.91550000  1.0 -0.0986969071
C  C372  1  0.55626000  0.64303000  0.24884000  1.0 -0.0986969071
C  C373  1  0.24637000  0.98574000  0.66422000  1.0 -0.0986969071
C  C374  1  0.91304000  0.31907000  0.99755000  1.0 -0.0986969071
C  C375  1  0.57971000  0.65240000  0.33088000  1.0 -0.0986969071
C  C376  1  0.24286000  0.99576000  0.69302000  1.0 -0.0119684148
C  C377  1  0.90952000  0.32910000  0.02636000  1.0 -0.0119684148
C  C378  1  0.57619000  0.66243000  0.35969000  1.0 -0.0119684148
C  C379  1  0.25327000  0.99166000  0.71684000  1.0 -0.0119684148
C  C380  1  0.91994000  0.32499000  0.05017000  1.0 -0.0119684148
C  C381  1  0.58661000  0.65832000  0.38350000  1.0 -0.0119684148
C  C382  1  0.26956000  0.97798000  0.71254000  1.0 -0.0119684148
C  C383  1  0.93623000  0.31131000  0.04587000  1.0 -0.0119684148
C  C384  1  0.60289000  0.64465000  0.37921000  1.0 -0.0119684148
C  C385  1  0.27574000  0.96875000  0.68420000  1.0 -0.0809881261
C  C386  1  0.94241000  0.30208000  0.01753000  1.0 -0.0809881261
C  C387  1  0.60907000  0.63542000  0.35087000  1.0 -0.0809881261
C  C388  1  0.26320000  0.97247000  0.65928000  1.0 -0.1506424933
C  C389  1  0.92987000  0.30580000  0.99261000  1.0 -0.1506424933
C  C390  1  0.59654000  0.63913000  0.32594000  1.0 -0.1506424933
C  C391  1  0.10751000  0.97715000  0.53371000  1.0 0.0109161783
C  C392  1  0.77417000  0.31049000  0.86705000  1.0 0.0109161783
C  C393  1  0.44084000  0.64382000  0.20038000  1.0 0.0109161783
C  C394  1  0.07926000  0.95982000  0.54975000  1.0 -0.0593089188
C  C395  1  0.74593000  0.29315000  0.88308000  1.0 -0.0593089188
C  C396  1  0.41260000  0.62648000  0.21641000  1.0 -0.0593089188
C  C397  1  0.04982000  0.93065000  0.53344000  1.0 -0.0709758415
C  C398  1  0.71649000  0.26398000  0.86677000  1.0 -0.0709758415
C  C399  1  0.38316000  0.59731000  0.20010000  1.0 -0.0709758415
C  C400  1  0.02629000  0.91768000  0.54741000  1.0 -0.1209108233
C  C401  1  0.69296000  0.25101000  0.88074000  1.0 -0.1209108233
C  C402  1  0.35962000  0.58435000  0.21408000  1.0 -0.1209108233
C  C403  1  0.02971000  0.93146000  0.57855000  1.0 -0.1506424933
C  C404  1  0.69638000  0.26479000  0.91188000  1.0 -0.1506424933
C  C405  1  0.36304000  0.59813000  0.24522000  1.0 -0.1506424933
C  C406  1  0.05959000  0.95919000  0.59423000  1.0 -0.1308876231
C  C407  1  0.72626000  0.29252000  0.92756000  1.0 -0.1308876231
C  C408  1  0.39293000  0.62585000  0.26089000  1.0 -0.1358078219
C  C409  1  0.08450000  0.97409000  0.57990000  1.0 -0.1059833041
C  C410  1  0.75116000  0.30743000  0.91324000  1.0 -0.1059833041
C  C411  1  0.41783000  0.64076000  0.24657000  1.0 -0.1059833041
C  C412  1  0.00245000  0.91549000  0.59397000  1.0 -0.0986969071
C  C413  1  0.66912000  0.24882000  0.92730000  1.0 -0.0986969071
C  C414  1  0.33578000  0.58216000  0.26064000  1.0 -0.0986969071
C  C415  1  0.97364000  0.88317000  0.58043000  1.0 -0.0194209262
C  C416  1  0.64031000  0.21650000  0.91376000  1.0 -0.0194209262
C  C417  1  0.30698000  0.54983000  0.24709000  1.0 -0.0194209262
C  C418  1  0.94983000  0.86977000  0.59495000  1.0 0.002561249
C  C419  1  0.61650000  0.20310000  0.92828000  1.0 0.002561249
C  C420  1  0.28316000  0.53644000  0.26162000  1.0 0.002561249
C  C421  1  0.95413000  0.89035000  0.62491000  1.0 -0.0709758415
C  C422  1  0.62079000  0.22369000  0.95825000  1.0 -0.0709758415
C  C423  1  0.28746000  0.55702000  0.29158000  1.0 -0.0709758415
C  C424  1  0.98247000  0.92487000  0.64032000  1.0 -0.1209108233
C  C425  1  0.64913000  0.25821000  0.97366000  1.0 -0.1209108233
C  C426  1  0.31580000  0.59154000  0.30699000  1.0 -0.1209108233
C  C427  1  0.00739000  0.93726000  0.62407000  1.0 -0.1308876231
C  C428  1  0.67406000  0.27059000  0.95740000  1.0 -0.1308876231
C  C429  1  0.34072000  0.60393000  0.29074000  1.0 -0.1308876231
C  C430  1  0.13295000  0.90713000  0.46369000  1.0 -0.0489652295
C  C431  1  0.79962000  0.24046000  0.79702000  1.0 -0.0489652295
C  C432  1  0.46629000  0.57379000  0.13035000  1.0 -0.0489652295
C  C433  1  0.11692000  0.86285000  0.45278000  1.0 -0.0489652295
C  C434  1  0.78359000  0.19618000  0.78611000  1.0 -0.0489652295
C  C435  1  0.45025000  0.52952000  0.11945000  1.0 -0.0489652295
C  C436  1  0.13323000  0.84972000  0.45251000  1.0 -0.0593089188
C  C437  1  0.79990000  0.18305000  0.78584000  1.0 -0.0593089188
C  C438  1  0.46656000  0.51639000  0.11918000  1.0 -0.0593089188
C  C439  1  0.11926000  0.81221000  0.44194000  1.0 -0.1308876231
C  C440  1  0.78592000  0.14555000  0.77528000  1.0 -0.1308876231
C  C441  1  0.45259000  0.47888000  0.10861000  1.0 -0.1308876231
C  C442  1  0.08812000  0.78449000  0.43158000  1.0 -0.0986969071
C  C443  1  0.75478000  0.11783000  0.76492000  1.0 -0.0986969071
C  C444  1  0.42145000  0.45116000  0.09825000  1.0 -0.0986969071
C  C445  1  0.07244000  0.79870000  0.43374000  1.0 -0.1308876231
C  C446  1  0.73911000  0.13203000  0.76707000  1.0 -0.1209108233
C  C447  1  0.40577000  0.46537000  0.10041000  1.0 -0.1209108233
C  C448  1  0.08676000  0.83793000  0.44374000  1.0 -0.0709758415
C  C449  1  0.75343000  0.17126000  0.77707000  1.0 -0.0709758415
C  C450  1  0.42010000  0.50459000  0.11040000  1.0 -0.0709758415
C  C451  1  0.07270000  0.74181000  0.42029000  1.0 -0.0194209262
C  C452  1  0.73936000  0.07515000  0.75363000  1.0 -0.0194209262
C  C453  1  0.40603000  0.40848000  0.08696000  1.0 -0.0194209262
C  C454  1  0.08624000  0.72655000  0.42381000  1.0 0.002561249
C  C455  1  0.75291000  0.05988000  0.75714000  1.0 0.002561249
C  C456  1  0.41957000  0.39322000  0.09048000  1.0 0.002561249
C  C457  1  0.07172000  0.68821000  0.41339000  1.0 0.002561249
C  C458  1  0.73838000  0.02155000  0.74673000  1.0 0.002561249
C  C459  1  0.40505000  0.35488000  0.08006000  1.0 0.002561249
C  C460  1  0.04175000  0.66255000  0.39711000  1.0 -0.0194209262
C  C461  1  0.70842000  0.99588000  0.73044000  1.0 -0.0194209262
C  C462  1  0.37509000  0.32921000  0.06377000  1.0 -0.0194209262
C  C463  1  0.02634000  0.67548000  0.39093000  1.0 -0.0323120937
C  C464  1  0.69301000  0.00881000  0.72426000  1.0 -0.0323120937
C  C465  1  0.35968000  0.34214000  0.05759000  1.0 -0.0323120937
C  C466  1  0.04260000  0.71665000  0.40346000  1.0 -0.0323120937
C  C467  1  0.70926000  0.04999000  0.73680000  1.0 -0.0323120937
C  C468  1  0.37593000  0.38332000  0.07013000  1.0 -0.0323120937
C  C469  1  0.03631000  0.31049000  0.36705000  1.0 0.0109161783
C  C470  1  0.70298000  0.64382000  0.70038000  1.0 0.0109161783
C  C471  1  0.36965000  0.97715000  0.03371000  1.0 0.0173599273
C  C472  1  0.04722000  0.29315000  0.38308000  1.0 -0.0593089188
C  C473  1  0.71389000  0.62648000  0.71641000  1.0 -0.0593089188
C  C474  1  0.38055000  0.95982000  0.04975000  1.0 -0.0593089188
C  C475  1  0.04749000  0.26398000  0.36677000  1.0 -0.0709758415
C  C476  1  0.71416000  0.59731000  0.70010000  1.0 -0.0709758415
C  C477  1  0.38082000  0.93065000  0.03344000  1.0 -0.0709758415
C  C478  1  0.05806000  0.25101000  0.38074000  1.0 -0.1209108233
C  C479  1  0.72472000  0.58435000  0.71408000  1.0 -0.1209108233
C  C480  1  0.39139000  0.91768000  0.04741000  1.0 -0.1209108233
C  C481  1  0.06842000  0.26479000  0.41188000  1.0 -0.1506424933
C  C482  1  0.73508000  0.59813000  0.74522000  1.0 -0.1506424933
C  C483  1  0.40175000  0.93146000  0.07855000  1.0 -0.1506424933
C  C484  1  0.06626000  0.29252000  0.42756000  1.0 -0.1358078219
C  C485  1  0.73293000  0.62585000  0.76089000  1.0 -0.1308876231
C  C486  1  0.39959000  0.95919000  0.09423000  1.0 -0.1308876231
C  C487  1  0.05626000  0.30743000  0.41324000  1.0 -0.1059833041
C  C488  1  0.72293000  0.64076000  0.74657000  1.0 -0.1059833041
C  C489  1  0.38960000  0.97409000  0.07990000  1.0 -0.1059833041
C  C490  1  0.07971000  0.24882000  0.42730000  1.0 -0.0986969071
C  C491  1  0.74637000  0.58216000  0.76064000  1.0 -0.0986969071
C  C492  1  0.41304000  0.91549000  0.09397000  1.0 -0.0986969071
C  C493  1  0.07619000  0.21650000  0.41376000  1.0 -0.0194209262
C  C494  1  0.74286000  0.54983000  0.74709000  1.0 -0.0194209262
C  C495  1  0.40952000  0.88317000  0.08043000  1.0 -0.0194209262
C  C496  1  0.08661000  0.20310000  0.42828000  1.0 0.002561249
C  C497  1  0.75327000  0.53644000  0.76162000  1.0 0.002561249
C  C498  1  0.41994000  0.86977000  0.09495000  1.0 0.002561249
C  C499  1  0.10289000  0.22369000  0.45825000  1.0 -0.0709758415
C  C500  1  0.76956000  0.55702000  0.79158000  1.0 -0.0709758415
C  C501  1  0.43623000  0.89035000  0.12491000  1.0 -0.0709758415
C  C502  1  0.10907000  0.25821000  0.47366000  1.0 -0.1209108233
C  C503  1  0.77574000  0.59154000  0.80699000  1.0 -0.1209108233
C  C504  1  0.44241000  0.92487000  0.14032000  1.0 -0.1209108233
C  C505  1  0.09654000  0.27059000  0.45740000  1.0 -0.1308876231
C  C506  1  0.76320000  0.60393000  0.79074000  1.0 -0.1308876231
C  C507  1  0.42987000  0.93726000  0.12407000  1.0 -0.1308876231
C  C508  1  0.94084000  0.24046000  0.29702000  1.0 -0.0489652295
C  C509  1  0.60751000  0.57379000  0.63035000  1.0 -0.0489652295
C  C510  1  0.27417000  0.90713000  0.96369000  1.0 -0.0489652295
C  C511  1  0.91260000  0.19618000  0.28611000  1.0 -0.0489652295
C  C512  1  0.57926000  0.52952000  0.61945000  1.0 -0.0489652295
C  C513  1  0.24593000  0.86285000  0.95278000  1.0 -0.0489652295
C  C514  1  0.88316000  0.18305000  0.28584000  1.0 -0.0593089188
C  C515  1  0.54982000  0.51639000  0.61918000  1.0 -0.0593089188
C  C516  1  0.21649000  0.84972000  0.95251000  1.0 -0.0593089188
C  C517  1  0.85962000  0.14555000  0.27528000  1.0 -0.1308876231
C  C518  1  0.52629000  0.47888000  0.60861000  1.0 -0.1308876231
C  C519  1  0.19296000  0.81221000  0.94194000  1.0 -0.1308876231
C  C520  1  0.86304000  0.11783000  0.26492000  1.0 -0.0986969071
C  C521  1  0.52971000  0.45116000  0.59825000  1.0 -0.0986969071
C  C522  1  0.19638000  0.78449000  0.93158000  1.0 -0.0986969071
C  C523  1  0.89293000  0.13203000  0.26707000  1.0 -0.1209108233
C  C524  1  0.55959000  0.46537000  0.60041000  1.0 -0.1209108233
C  C525  1  0.22626000  0.79870000  0.93374000  1.0 -0.1308876231
C  C526  1  0.91783000  0.17126000  0.27707000  1.0 -0.0709758415
C  C527  1  0.58450000  0.50459000  0.61040000  1.0 -0.0709758415
C  C528  1  0.25116000  0.83793000  0.94374000  1.0 -0.0709758415
C  C529  1  0.83578000  0.07515000  0.25363000  1.0 -0.0194209262
C  C530  1  0.50245000  0.40848000  0.58696000  1.0 -0.0194209262
C  C531  1  0.16912000  0.74181000  0.92029000  1.0 -0.0194209262
C  C532  1  0.80698000  0.05988000  0.25714000  1.0 0.002561249
C  C533  1  0.47364000  0.39322000  0.59048000  1.0 0.002561249
C  C534  1  0.14031000  0.72655000  0.92381000  1.0 0.002561249
C  C535  1  0.78316000  0.02155000  0.24673000  1.0 0.002561249
C  C536  1  0.44983000  0.35488000  0.58006000  1.0 0.002561249
C  C537  1  0.11650000  0.68821000  0.91339000  1.0 0.002561249
C  C538  1  0.78746000  0.99588000  0.23044000  1.0 -0.0194209262
C  C539  1  0.45413000  0.32921000  0.56377000  1.0 -0.0194209262
C  C540  1  0.12079000  0.66255000  0.89711000  1.0 -0.0194209262
C  C541  1  0.81580000  0.00881000  0.22426000  1.0 -0.0323120937
C  C542  1  0.48247000  0.34214000  0.55759000  1.0 -0.0323120937
C  C543  1  0.14913000  0.67548000  0.89093000  1.0 -0.0323120937
C  C544  1  0.84072000  0.04999000  0.23680000  1.0 -0.0323120937
C  C545  1  0.50739000  0.38332000  0.57013000  1.0 -0.0323120937
C  C546  1  0.17406000  0.71665000  0.90346000  1.0 -0.0323120937
C  C547  1  0.96629000  0.33593000  0.39249000  1.0 0.002561249
C  C548  1  0.63295000  0.66927000  0.72583000  1.0 0.002561249
C  C549  1  0.29962000  0.00260000  0.05916000  1.0 0.002561249
C  C550  1  0.95025000  0.33081000  0.42074000  1.0 -0.0809881261
C  C551  1  0.61692000  0.66414000  0.75407000  1.0 -0.0809881261
C  C552  1  0.28359000  0.99747000  0.08740000  1.0 -0.0809881261
C  C553  1  0.96656000  0.34739000  0.45018000  1.0 -0.1059833041
C  C554  1  0.63323000  0.68072000  0.78351000  1.0 -0.1059833041
C  C555  1  0.29990000  0.01405000  0.11684000  1.0 -0.1059833041
C  C556  1  0.95259000  0.34398000  0.47371000  1.0 -0.1308876231
C  C557  1  0.61926000  0.67731000  0.80704000  1.0 -0.1308876231
C  C558  1  0.28592000  0.01065000  0.14038000  1.0 -0.1308876231
C  C559  1  0.92145000  0.32320000  0.47029000  1.0 -0.1506424933
C  C560  1  0.58812000  0.65653000  0.80362000  1.0 -0.1506424933
C  C561  1  0.25478000  0.98987000  0.13696000  1.0 -0.1506424933
C  C562  1  0.90577000  0.30537000  0.44041000  1.0 -0.1656358886
C  C563  1  0.57244000  0.63870000  0.77374000  1.0 -0.1656358886
C  C564  1  0.23911000  0.97203000  0.10707000  1.0 -0.1656358886
C  C565  1  0.92010000  0.30969000  0.41550000  1.0 -0.0986969071
C  C566  1  0.58676000  0.64303000  0.74884000  1.0 -0.0986969071
C  C567  1  0.25343000  0.97636000  0.08217000  1.0 -0.0986969071
C  C568  1  0.90603000  0.31907000  0.49755000  1.0 -0.0986969071
C  C569  1  0.57270000  0.65240000  0.83088000  1.0 -0.0986969071
C  C570  1  0.23936000  0.98574000  0.16422000  1.0 -0.0986969071
C  C571  1  0.91957000  0.32910000  0.52636000  1.0 -0.0119684148
C  C572  1  0.58624000  0.66243000  0.85969000  1.0 -0.0119684148
C  C573  1  0.25291000  0.99576000  0.19302000  1.0 -0.0194209262
C  C574  1  0.90505000  0.32499000  0.55017000  1.0 -0.0119684148
C  C575  1  0.57172000  0.65832000  0.88350000  1.0 -0.0119684148
C  C576  1  0.23838000  0.99166000  0.21684000  1.0 -0.0119684148
C  C577  1  0.87509000  0.31131000  0.54587000  1.0 -0.0119684148
C  C578  1  0.54175000  0.64465000  0.87921000  1.0 -0.0119684148
C  C579  1  0.20842000  0.97798000  0.21254000  1.0 -0.0119684148
C  C580  1  0.85968000  0.30208000  0.51753000  1.0 -0.0809881261
C  C581  1  0.52634000  0.63542000  0.85087000  1.0 -0.0809881261
C  C582  1  0.19301000  0.96875000  0.18420000  1.0 -0.0809881261
C  C583  1  0.87593000  0.30580000  0.49261000  1.0 -0.1506424933
C  C584  1  0.54260000  0.63913000  0.82594000  1.0 -0.1506424933
C  C585  1  0.20926000  0.97247000  0.15928000  1.0 -0.1506424933
C  C586  1  0.25931000  0.28077000  0.33733000  1.0 0.0109161783
C  C587  1  0.92598000  0.61410000  0.67066000  1.0 0.0173599273
C  C588  1  0.59265000  0.94743000  0.00399000  1.0 0.0173599273
C  C589  1  0.22616000  0.25361000  0.34354000  1.0 -0.0593089188
C  C590  1  0.89283000  0.58694000  0.67687000  1.0 -0.0593089188
C  C591  1  0.55949000  0.92028000  0.01021000  1.0 -0.0593089188
C  C592  1  0.21732000  0.26563000  0.36842000  1.0 -0.0709758415
C  C593  1  0.88398000  0.59897000  0.70176000  1.0 -0.0709758415
C  C594  1  0.55065000  0.93230000  0.03509000  1.0 -0.0709758415
C  C595  1  0.18879000  0.24268000  0.37241000  1.0 -0.1209108233
C  C596  1  0.85546000  0.57601000  0.70574000  1.0 -0.1209108233
C  C597  1  0.52212000  0.90935000  0.03908000  1.0 -0.1209108233
C  C598  1  0.16686000  0.20575000  0.35284000  1.0 -0.1506424933
C  C599  1  0.83352000  0.53909000  0.68618000  1.0 -0.1506424933
C  C600  1  0.50019000  0.87242000  0.01951000  1.0 -0.1506424933
C  C601  1  0.17705000  0.19409000  0.32913000  1.0 -0.1308876231
C  C602  1  0.84371000  0.52743000  0.66247000  1.0 -0.1358078219
C  C603  1  0.51038000  0.86076000  0.99580000  1.0 -0.1358078219
C  C604  1  0.20653000  0.21816000  0.32397000  1.0 -0.1059833041
C  C605  1  0.87320000  0.55149000  0.65730000  1.0 -0.1059833041
C  C606  1  0.53986000  0.88483000  0.99064000  1.0 -0.1059833041
C  C607  1  0.13464000  0.17987000  0.35835000  1.0 -0.0986969071
C  C608  1  0.80131000  0.51320000  0.69168000  1.0 -0.0986969071
C  C609  1  0.46797000  0.84654000  0.02502000  1.0 -0.0986969071
C  C610  1  0.12564000  0.18715000  0.38441000  1.0 -0.0194209262
C  C611  1  0.79230000  0.52049000  0.71775000  1.0 -0.0194209262
C  C612  1  0.45897000  0.85382000  0.05108000  1.0 -0.0194209262
C  C613  1  0.09661000  0.16332000  0.38850000  1.0 0.002561249
C  C614  1  0.76327000  0.49666000  0.72184000  1.0 0.002561249
C  C615  1  0.42994000  0.82999000  0.05517000  1.0 0.002561249
C  C616  1  0.07407000  0.13023000  0.36479000  1.0 -0.0709758415
C  C617  1  0.74073000  0.46357000  0.69813000  1.0 -0.0709758415
C  C618  1  0.40740000  0.79690000  0.03146000  1.0 -0.0709758415
C  C619  1  0.08063000  0.12119000  0.33664000  1.0 -0.1209108233
C  C620  1  0.74729000  0.45453000  0.66998000  1.0 -0.1209108233
C  C621  1  0.41396000  0.78786000  0.00331000  1.0 -0.1209108233
C  C622  1  0.11226000  0.14699000  0.33380000  1.0 -0.1308876231
C  C623  1  0.77892000  0.48033000  0.66714000  1.0 -0.1308876231
C  C624  1  0.44559000  0.81366000  0.00047000  1.0 -0.1308876231
C  C625  1  0.35479000  0.35079000  0.40735000  1.0 -0.0489652295
C  C626  1  0.02145000  0.68413000  0.74069000  1.0 -0.0489652295
C  C627  1  0.68812000  0.01746000  0.07402000  1.0 -0.0489652295
C  C628  1  0.36078000  0.35058000  0.44051000  1.0 -0.0489652295
C  C629  1  0.02745000  0.68391000  0.77384000  1.0 -0.0489652295
C  C630  1  0.69412000  0.01724000  0.10717000  1.0 -0.0489652295
C  C631  1  0.38165000  0.34656000  0.44935000  1.0 -0.0593089188
C  C632  1  0.04832000  0.67989000  0.78268000  1.0 -0.0593089188
C  C633  1  0.71498000  0.01323000  0.11602000  1.0 -0.0593089188
C  C634  1  0.38722000  0.34815000  0.47788000  1.0 -0.1308876231
C  C635  1  0.05389000  0.68148000  0.81121000  1.0 -0.1308876231
C  C636  1  0.72056000  0.01481000  0.14454000  1.0 -0.1308876231
C  C637  1  0.37223000  0.35272000  0.49981000  1.0 -0.0986969071
C  C638  1  0.03890000  0.68605000  0.83314000  1.0 -0.0986969071
C  C639  1  0.70556000  0.01939000  0.16648000  1.0 -0.0986969071
C  C640  1  0.35038000  0.35458000  0.48962000  1.0 -0.1209108233
C  C641  1  0.01705000  0.68791000  0.82295000  1.0 -0.1209108233
C  C642  1  0.68371000  0.02125000  0.15629000  1.0 -0.1209108233
C  C643  1  0.34496000  0.35433000  0.46014000  1.0 -0.0709758415
C  C644  1  0.01163000  0.68766000  0.79347000  1.0 -0.0709758415
C  C645  1  0.67830000  0.02099000  0.12680000  1.0 -0.0709758415
C  C646  1  0.37856000  0.35355000  0.53203000  1.0 -0.0194209262
C  C647  1  0.04523000  0.68688000  0.86536000  1.0 -0.0194209262
C  C648  1  0.71190000  0.02021000  0.19869000  1.0 -0.0194209262
C  C649  1  0.39485000  0.34377000  0.54103000  1.0 0.002561249
C  C650  1  0.06152000  0.67710000  0.87436000  1.0 0.002561249
C  C651  1  0.72818000  0.01044000  0.20770000  1.0 0.002561249
C  C652  1  0.40005000  0.34488000  0.57006000  1.0 0.002561249
C  C653  1  0.06672000  0.67821000  0.90339000  1.0 0.002561249
C  C654  1  0.73338000  0.01155000  0.23673000  1.0 0.002561249
C  C655  1  0.38950000  0.35804000  0.59260000  1.0 -0.0194209262
C  C656  1  0.05617000  0.69137000  0.92593000  1.0 -0.0194209262
C  C657  1  0.72283000  0.02471000  0.25927000  1.0 -0.0194209262
C  C658  1  0.37390000  0.37059000  0.58604000  1.0 -0.0323120937
C  C659  1  0.04057000  0.70392000  0.91937000  1.0 -0.0323120937
C  C660  1  0.70723000  0.03726000  0.25271000  1.0 -0.0323120937
C  C661  1  0.36807000  0.36760000  0.55441000  1.0 -0.0323120937
C  C662  1  0.03474000  0.70093000  0.88774000  1.0 -0.0323120937
C  C663  1  0.70140000  0.03427000  0.22108000  1.0 -0.0323120937
C  C664  1  0.32934000  0.25532000  0.31188000  1.0 0.002561249
C  C665  1  0.99601000  0.58865000  0.64521000  1.0 0.002561249
C  C666  1  0.66267000  0.92199000  0.97855000  1.0 0.002561249
C  C667  1  0.32313000  0.21595000  0.30588000  1.0 -0.0809881261
C  C668  1  0.98979000  0.54929000  0.63922000  1.0 -0.0809881261
C  C669  1  0.65646000  0.88262000  0.97255000  1.0 -0.0809881261
C  C670  1  0.29824000  0.18223000  0.28502000  1.0 -0.1059833041
C  C671  1  0.96491000  0.51556000  0.61835000  1.0 -0.1059833041
C  C672  1  0.63158000  0.84889000  0.95168000  1.0 -0.1059833041
C  C673  1  0.29426000  0.14971000  0.27944000  1.0 -0.1308876231
C  C674  1  0.96092000  0.48305000  0.61278000  1.0 -0.1308876231
C  C675  1  0.62759000  0.81638000  0.94611000  1.0 -0.1308876231
C  C676  1  0.31382000  0.14735000  0.29444000  1.0 -0.1506424933
C  C677  1  0.98049000  0.48068000  0.62777000  1.0 -0.1506424933
C  C678  1  0.64716000  0.81401000  0.96110000  1.0 -0.1506424933
C  C679  1  0.33753000  0.18125000  0.31629000  1.0 -0.1656358886
C  C680  1  0.00420000  0.51458000  0.64962000  1.0 -0.1656358886
C  C681  1  0.67087000  0.84791000  0.98295000  1.0 -0.1656358886
C  C682  1  0.34270000  0.21589000  0.32170000  1.0 -0.0986969071
C  C683  1  0.00936000  0.54923000  0.65504000  1.0 -0.0986969071
C  C684  1  0.67603000  0.88256000  0.98837000  1.0 -0.0986969071
C  C685  1  0.30832000  0.10962000  0.28810000  1.0 -0.0986969071
C  C686  1  0.97498000  0.44296000  0.62144000  1.0 -0.0986969071
C  C687  1  0.64165000  0.77629000  0.95477000  1.0 -0.0986969071
C  C688  1  0.28225000  0.07456000  0.27182000  1.0 -0.0119684148
C  C689  1  0.94892000  0.40789000  0.60515000  1.0 -0.0119684148
C  C690  1  0.61559000  0.74122000  0.93848000  1.0 -0.0119684148
C  C691  1  0.27816000  0.04144000  0.26662000  1.0 -0.0119684148
C  C692  1  0.94483000  0.37477000  0.59995000  1.0 -0.0119684148
C  C693  1  0.61150000  0.70810000  0.93328000  1.0 -0.0119684148
C  C694  1  0.30187000  0.04261000  0.27717000  1.0 -0.0119684148
C  C695  1  0.96854000  0.37594000  0.61050000  1.0 -0.0119684148
C  C696  1  0.63521000  0.70927000  0.94383000  1.0 -0.0119684148
C  C697  1  0.33002000  0.07732000  0.29277000  1.0 -0.0809881261
C  C698  1  0.99669000  0.41065000  0.62610000  1.0 -0.0809881261
C  C699  1  0.66336000  0.74398000  0.95943000  1.0 -0.0809881261
C  C700  1  0.33286000  0.11179000  0.29860000  1.0 -0.1506424933
C  C701  1  0.99953000  0.44512000  0.63193000  1.0 -0.1506424933
C  C702  1  0.66620000  0.77845000  0.96526000  1.0 -0.1506424933
C  C703  1  0.24069000  0.07801000  0.52145000  1.0 0.002561249
C  C704  1  0.90735000  0.41135000  0.85479000  1.0 0.002561249
C  C705  1  0.57402000  0.74468000  0.18812000  1.0 0.002561249
C  C706  1  0.27384000  0.11738000  0.52745000  1.0 -0.0809881261
C  C707  1  0.94051000  0.45071000  0.86078000  1.0 -0.0809881261
C  C708  1  0.60717000  0.78405000  0.19412000  1.0 -0.0809881261
C  C709  1  0.28268000  0.15111000  0.54832000  1.0 -0.1059833041
C  C710  1  0.94935000  0.48444000  0.88165000  1.0 -0.1059833041
C  C711  1  0.61602000  0.81777000  0.21498000  1.0 -0.1059833041
C  C712  1  0.31121000  0.18362000  0.55389000  1.0 -0.1308876231
C  C713  1  0.97788000  0.51695000  0.88722000  1.0 -0.1308876231
C  C714  1  0.64454000  0.85029000  0.22056000  1.0 -0.1308876231
C  C715  1  0.33314000  0.18599000  0.53890000  1.0 -0.1506424933
C  C716  1  0.99981000  0.51932000  0.87223000  1.0 -0.1506424933
C  C717  1  0.66648000  0.85265000  0.20556000  1.0 -0.1506424933
C  C718  1  0.32295000  0.15209000  0.51705000  1.0 -0.1656358886
C  C719  1  0.98962000  0.48542000  0.85038000  1.0 -0.1656358886
C  C720  1  0.65629000  0.81875000  0.18371000  1.0 -0.1656358886
C  C721  1  0.29347000  0.11744000  0.51163000  1.0 -0.0986969071
C  C722  1  0.96014000  0.45077000  0.84496000  1.0 -0.0986969071
C  C723  1  0.62680000  0.78411000  0.17830000  1.0 -0.0986969071
C  C724  1  0.36536000  0.22371000  0.54523000  1.0 -0.0986969071
C  C725  1  0.03203000  0.55704000  0.87856000  1.0 -0.0986969071
C  C726  1  0.69869000  0.89038000  0.21190000  1.0 -0.0986969071
C  C727  1  0.37436000  0.25878000  0.56152000  1.0 -0.0119684148
C  C728  1  0.04103000  0.59211000  0.89485000  1.0 -0.0119684148
C  C729  1  0.70770000  0.92544000  0.22818000  1.0 -0.0119684148
C  C730  1  0.40339000  0.29190000  0.56672000  1.0 -0.0119684148
C  C731  1  0.07006000  0.62523000  0.90005000  1.0 -0.0119684148
C  C732  1  0.73673000  0.95856000  0.23338000  1.0 -0.0119684148
C  C733  1  0.42593000  0.29073000  0.55617000  1.0 -0.0119684148
C  C734  1  0.09260000  0.62406000  0.88950000  1.0 -0.0119684148
C  C735  1  0.75927000  0.95739000  0.22283000  1.0 -0.0119684148
C  C736  1  0.41937000  0.25602000  0.54057000  1.0 -0.0809881261
C  C737  1  0.08604000  0.58935000  0.87390000  1.0 -0.0809881261
C  C738  1  0.75271000  0.92268000  0.20723000  1.0 -0.0809881261
C  C739  1  0.38774000  0.22155000  0.53474000  1.0 -0.1506424933
C  C740  1  0.05441000  0.55488000  0.86807000  1.0 -0.1506424933
C  C741  1  0.72108000  0.88821000  0.20140000  1.0 -0.1506424933
C  C742  1  0.14521000  0.05257000  0.49601000  1.0 0.0109161783
C  C743  1  0.81188000  0.38590000  0.82934000  1.0 0.0109161783
C  C744  1  0.47855000  0.71923000  0.16267000  1.0 0.0173599273
C  C745  1  0.13922000  0.07972000  0.48979000  1.0 -0.0593089188
C  C746  1  0.80588000  0.41306000  0.82313000  1.0 -0.0593089188
C  C747  1  0.47255000  0.74639000  0.15646000  1.0 -0.0593089188
C  C748  1  0.11835000  0.06770000  0.46491000  1.0 -0.0709758415
C  C749  1  0.78502000  0.40103000  0.79824000  1.0 -0.0709758415
C  C750  1  0.45168000  0.73437000  0.13158000  1.0 -0.0709758415
C  C751  1  0.11278000  0.09065000  0.46092000  1.0 -0.1209108233
C  C752  1  0.77944000  0.42399000  0.79426000  1.0 -0.1209108233
C  C753  1  0.44611000  0.75732000  0.12759000  1.0 -0.1209108233
C  C754  1  0.12777000  0.12758000  0.48049000  1.0 -0.1506424933
C  C755  1  0.79444000  0.46091000  0.81382000  1.0 -0.1506424933
C  C756  1  0.46110000  0.79425000  0.14716000  1.0 -0.1506424933
C  C757  1  0.14962000  0.13924000  0.50420000  1.0 -0.1308876231
C  C758  1  0.81629000  0.47257000  0.83753000  1.0 -0.1308876231
C  C759  1  0.48295000  0.80591000  0.17087000  1.0 -0.1358078219
C  C760  1  0.15504000  0.11517000  0.50936000  1.0 -0.1059833041
C  C761  1  0.82170000  0.44851000  0.84270000  1.0 -0.1059833041
C  C762  1  0.48837000  0.78184000  0.17603000  1.0 -0.1059833041
C  C763  1  0.12144000  0.15346000  0.47498000  1.0 -0.0986969071
C  C764  1  0.78810000  0.48680000  0.80832000  1.0 -0.0986969071
C  C765  1  0.45477000  0.82013000  0.14165000  1.0 -0.0986969071
C  C766  1  0.10515000  0.14618000  0.44892000  1.0 -0.0194209262
C  C767  1  0.77182000  0.47951000  0.78225000  1.0 -0.0194209262
C  C768  1  0.43848000  0.81285000  0.11559000  1.0 -0.0194209262
C  C769  1  0.09995000  0.17001000  0.44483000  1.0 0.002561249
C  C770  1  0.76662000  0.50334000  0.77816000  1.0 0.002561249
C  C771  1  0.43328000  0.83668000  0.11150000  1.0 0.002561249
C  C772  1  0.11050000  0.20310000  0.46854000  1.0 -0.0709758415
C  C773  1  0.77717000  0.53643000  0.80187000  1.0 -0.0709758415
C  C774  1  0.44383000  0.86977000  0.13521000  1.0 -0.0709758415
C  C775  1  0.12610000  0.21214000  0.49669000  1.0 -0.1209108233
C  C776  1  0.79277000  0.54547000  0.83002000  1.0 -0.1209108233
C  C777  1  0.45943000  0.87881000  0.16336000  1.0 -0.1209108233
C  C778  1  0.13193000  0.18634000  0.49953000  1.0 -0.1308876231
C  C779  1  0.79860000  0.51967000  0.83286000  1.0 -0.1308876231
C  C780  1  0.46526000  0.85301000  0.16620000  1.0 -0.1308876231
C  C781  1  0.17066000  0.98254000  0.42598000  1.0 -0.0489652295
C  C782  1  0.83733000  0.31587000  0.75931000  1.0 -0.0489652295
C  C783  1  0.50399000  0.64921000  0.09265000  1.0 -0.0489652295
C  C784  1  0.17687000  0.98276000  0.39283000  1.0 -0.0489652295
C  C785  1  0.84354000  0.31609000  0.72616000  1.0 -0.0489652295
C  C786  1  0.51021000  0.64942000  0.05949000  1.0 -0.0489652295
C  C787  1  0.20176000  0.98677000  0.38398000  1.0 -0.0593089188
C  C788  1  0.86842000  0.32011000  0.71732000  1.0 -0.0593089188
C  C789  1  0.53509000  0.65344000  0.05065000  1.0 -0.0593089188
C  C790  1  0.20574000  0.98519000  0.35546000  1.0 -0.1308876231
C  C791  1  0.87241000  0.31852000  0.68879000  1.0 -0.1308876231
C  C792  1  0.53908000  0.65185000  0.02212000  1.0 -0.1308876231
C  C793  1  0.18618000  0.98061000  0.33352000  1.0 -0.0986969071
C  C794  1  0.85284000  0.31395000  0.66686000  1.0 -0.0986969071
C  C795  1  0.51951000  0.64728000  0.00019000  1.0 -0.0986969071
C  C796  1  0.16247000  0.97875000  0.34371000  1.0 -0.1308876231
C  C797  1  0.82913000  0.31209000  0.67705000  1.0 -0.1209108233
C  C798  1  0.49580000  0.64542000  0.01038000  1.0 -0.1209108233
C  C799  1  0.15730000  0.97901000  0.37320000  1.0 -0.0709758415
C  C800  1  0.82397000  0.31234000  0.70653000  1.0 -0.0709758415
C  C801  1  0.49064000  0.64567000  0.03986000  1.0 -0.0709758415
C  C802  1  0.19168000  0.97979000  0.30131000  1.0 -0.0194209262
C  C803  1  0.85835000  0.31312000  0.63464000  1.0 -0.0194209262
C  C804  1  0.52502000  0.64645000  0.96797000  1.0 -0.0194209262
C  C805  1  0.21775000  0.98956000  0.29230000  1.0 0.002561249
C  C806  1  0.88441000  0.32290000  0.62564000  1.0 0.002561249
C  C807  1  0.55108000  0.65623000  0.95897000  1.0 0.002561249
C  C808  1  0.22184000  0.98845000  0.26327000  1.0 0.002561249
C  C809  1  0.88850000  0.32179000  0.59661000  1.0 0.002561249
C  C810  1  0.55517000  0.65512000  0.92994000  1.0 0.002561249
C  C811  1  0.19813000  0.97529000  0.24073000  1.0 -0.0194209262
C  C812  1  0.86479000  0.30863000  0.57407000  1.0 -0.0194209262
C  C813  1  0.53146000  0.64196000  0.90740000  1.0 -0.0194209262
C  C814  1  0.16998000  0.96274000  0.24729000  1.0 -0.0323120937
C  C815  1  0.83664000  0.29608000  0.58063000  1.0 -0.0323120937
C  C816  1  0.50331000  0.62941000  0.91396000  1.0 -0.0323120937
C  C817  1  0.16714000  0.96573000  0.27892000  1.0 -0.0323120937
C  C818  1  0.83380000  0.29907000  0.61226000  1.0 -0.0323120937
C  C819  1  0.50047000  0.63240000  0.94559000  1.0 -0.0323120937
C  C820  1  0.79702000  0.99740000  0.44084000  1.0 0.002561249
C  C821  1  0.46369000  0.33073000  0.77417000  1.0 0.002561249
C  C822  1  0.13035000  0.66407000  0.10751000  1.0 0.002561249
C  C823  1  0.78611000  0.00253000  0.41260000  1.0 -0.0809881261
C  C824  1  0.45278000  0.33586000  0.74593000  1.0 -0.0809881261
C  C825  1  0.11945000  0.66919000  0.07926000  1.0 -0.0809881261
C  C826  1  0.78584000  0.98595000  0.38316000  1.0 -0.1059833041
C  C827  1  0.45251000  0.31928000  0.71649000  1.0 -0.1059833041
C  C828  1  0.11918000  0.65261000  0.04982000  1.0 -0.1059833041
C  C829  1  0.77528000  0.98935000  0.35962000  1.0 -0.1308876231
C  C830  1  0.44194000  0.32269000  0.69296000  1.0 -0.1308876231
C  C831  1  0.10861000  0.65602000  0.02629000  1.0 -0.1308876231
C  C832  1  0.76492000  0.01013000  0.36304000  1.0 -0.1506424933
C  C833  1  0.43158000  0.34347000  0.69638000  1.0 -0.1506424933
C  C834  1  0.09825000  0.67680000  0.02971000  1.0 -0.1506424933
C  C835  1  0.76707000  0.02797000  0.39293000  1.0 -0.1656358886
C  C836  1  0.43374000  0.36130000  0.72626000  1.0 -0.1656358886
C  C837  1  0.10041000  0.69463000  0.05959000  1.0 -0.1656358886
C  C838  1  0.77707000  0.02364000  0.41783000  1.0 -0.0986969071
C  C839  1  0.44374000  0.35697000  0.75116000  1.0 -0.0986969071
C  C840  1  0.11040000  0.69031000  0.08450000  1.0 -0.0986969071
C  C841  1  0.75363000  0.01426000  0.33578000  1.0 -0.0986969071
C  C842  1  0.42029000  0.34760000  0.66912000  1.0 -0.0986969071
C  C843  1  0.08696000  0.68093000  0.00245000  1.0 -0.0986969071
C  C844  1  0.75714000  0.00424000  0.30698000  1.0 -0.0119684148
C  C845  1  0.42381000  0.33757000  0.64031000  1.0 -0.0119684148
C  C846  1  0.09048000  0.67090000  0.97364000  1.0 -0.0119684148
C  C847  1  0.74673000  0.00834000  0.28316000  1.0 -0.0119684148
C  C848  1  0.41339000  0.34168000  0.61650000  1.0 -0.0119684148
C  C849  1  0.08006000  0.67501000  0.94983000  1.0 -0.0119684148
C  C850  1  0.73044000  0.02202000  0.28746000  1.0 -0.0119684148
C  C851  1  0.39711000  0.35535000  0.62079000  1.0 -0.0119684148
C  C852  1  0.06377000  0.68869000  0.95413000  1.0 -0.0119684148
C  C853  1  0.72426000  0.03125000  0.31580000  1.0 -0.0809881261
C  C854  1  0.39093000  0.36458000  0.64913000  1.0 -0.0809881261
C  C855  1  0.05759000  0.69792000  0.98247000  1.0 -0.0809881261
C  C856  1  0.73680000  0.02753000  0.34072000  1.0 -0.1506424933
C  C857  1  0.40346000  0.36087000  0.67406000  1.0 -0.1506424933
C  C858  1  0.07013000  0.69420000  0.00739000  1.0 -0.1506424933
C  C859  1  0.89249000  0.02285000  0.46629000  1.0 0.0109161783
C  C860  1  0.55916000  0.35618000  0.79962000  1.0 0.0109161783
C  C861  1  0.22583000  0.68951000  0.13295000  1.0 0.0109161783
C  C862  1  0.92074000  0.04018000  0.45025000  1.0 -0.0593089188
C  C863  1  0.58740000  0.37352000  0.78359000  1.0 -0.0593089188
C  C864  1  0.25407000  0.70685000  0.11692000  1.0 -0.0593089188
C  C865  1  0.95018000  0.06935000  0.46656000  1.0 -0.0709758415
C  C866  1  0.61684000  0.40269000  0.79990000  1.0 -0.0709758415
C  C867  1  0.28351000  0.73602000  0.13323000  1.0 -0.0709758415
C  C868  1  0.97371000  0.08232000  0.45259000  1.0 -0.1209108233
C  C869  1  0.64038000  0.41565000  0.78592000  1.0 -0.1209108233
C  C870  1  0.30704000  0.74899000  0.11926000  1.0 -0.1209108233
C  C871  1  0.97029000  0.06854000  0.42145000  1.0 -0.1506424933
C  C872  1  0.63696000  0.40187000  0.75478000  1.0 -0.1506424933
C  C873  1  0.30362000  0.73521000  0.08812000  1.0 -0.1506424933
C  C874  1  0.94041000  0.04081000  0.40577000  1.0 -0.1308876231
C  C875  1  0.60707000  0.37415000  0.73911000  1.0 -0.1308876231
C  C876  1  0.27374000  0.70748000  0.07244000  1.0 -0.1358078219
C  C877  1  0.91550000  0.02591000  0.42010000  1.0 -0.1059833041
C  C878  1  0.58217000  0.35924000  0.75343000  1.0 -0.1059833041
C  C879  1  0.24884000  0.69257000  0.08676000  1.0 -0.1059833041
C  C880  1  0.99755000  0.08451000  0.40603000  1.0 -0.0986969071
C  C881  1  0.66422000  0.41784000  0.73936000  1.0 -0.0986969071
C  C882  1  0.33088000  0.75118000  0.07270000  1.0 -0.0986969071
C  C883  1  0.02636000  0.11683000  0.41957000  1.0 -0.0194209262
C  C884  1  0.69302000  0.45017000  0.75291000  1.0 -0.0194209262
C  C885  1  0.35969000  0.78350000  0.08624000  1.0 -0.0194209262
C  C886  1  0.05017000  0.13023000  0.40505000  1.0 0.002561249
C  C887  1  0.71684000  0.46356000  0.73838000  1.0 0.002561249
C  C888  1  0.38350000  0.79690000  0.07172000  1.0 0.002561249
C  C889  1  0.04587000  0.10965000  0.37509000  1.0 -0.0709758415
C  C890  1  0.71254000  0.44298000  0.70842000  1.0 -0.0709758415
C  C891  1  0.37921000  0.77631000  0.04175000  1.0 -0.0709758415
C  C892  1  0.01753000  0.07513000  0.35968000  1.0 -0.1209108233
C  C893  1  0.68420000  0.40846000  0.69301000  1.0 -0.1209108233
C  C894  1  0.35087000  0.74179000  0.02634000  1.0 -0.1209108233
C  C895  1  0.99261000  0.06274000  0.37593000  1.0 -0.1308876231
C  C896  1  0.65928000  0.39607000  0.70926000  1.0 -0.1308876231
C  C897  1  0.32594000  0.72941000  0.04260000  1.0 -0.1308876231
C  C898  1  0.86705000  0.09287000  0.53631000  1.0 -0.0489652295
C  C899  1  0.53371000  0.42621000  0.86965000  1.0 -0.0489652295
C  C900  1  0.20038000  0.75954000  0.20298000  1.0 -0.0489652295
C  C901  1  0.88308000  0.13715000  0.54722000  1.0 -0.0489652295
C  C902  1  0.54975000  0.47048000  0.88055000  1.0 -0.0489652295
C  C903  1  0.21641000  0.80382000  0.21389000  1.0 -0.0489652295
C  C904  1  0.86677000  0.15028000  0.54749000  1.0 -0.0593089188
C  C905  1  0.53344000  0.48361000  0.88082000  1.0 -0.0593089188
C  C906  1  0.20010000  0.81695000  0.21416000  1.0 -0.0593089188
C  C907  1  0.88074000  0.18779000  0.55806000  1.0 -0.1308876231
C  C908  1  0.54741000  0.52112000  0.89139000  1.0 -0.1308876231
C  C909  1  0.21408000  0.85445000  0.22472000  1.0 -0.1308876231
C  C910  1  0.91188000  0.21551000  0.56842000  1.0 -0.0986969071
C  C911  1  0.57855000  0.54884000  0.90175000  1.0 -0.0986969071
C  C912  1  0.24522000  0.88217000  0.23508000  1.0 -0.0986969071
C  C913  1  0.92756000  0.20130000  0.56626000  1.0 -0.1209108233
C  C914  1  0.59423000  0.53463000  0.89959000  1.0 -0.1209108233
C  C915  1  0.26089000  0.86797000  0.23293000  1.0 -0.1308876231
C  C916  1  0.91324000  0.16207000  0.55626000  1.0 -0.0709758415
C  C917  1  0.57990000  0.49541000  0.88960000  1.0 -0.0709758415
C  C918  1  0.24657000  0.82874000  0.22293000  1.0 -0.0709758415
C  C919  1  0.92730000  0.25819000  0.57971000  1.0 -0.0194209262
C  C920  1  0.59397000  0.59152000  0.91304000  1.0 -0.0194209262
C  C921  1  0.26064000  0.92485000  0.24637000  1.0 -0.0194209262
C  C922  1  0.91376000  0.27345000  0.57619000  1.0 0.002561249
C  C923  1  0.58043000  0.60678000  0.90952000  1.0 0.002561249
C  C924  1  0.24709000  0.94012000  0.24286000  1.0 0.002561249
C  C925  1  0.92828000  0.31179000  0.58661000  1.0 0.002561249
C  C926  1  0.59495000  0.64512000  0.91994000  1.0 0.002561249
C  C927  1  0.26162000  0.97845000  0.25327000  1.0 0.002561249
C  C928  1  0.95825000  0.33745000  0.60289000  1.0 -0.0194209262
C  C929  1  0.62491000  0.67079000  0.93623000  1.0 -0.0194209262
C  C930  1  0.29158000  0.00412000  0.26956000  1.0 -0.0194209262
C  C931  1  0.97366000  0.32452000  0.60907000  1.0 -0.0323120937
C  C932  1  0.64032000  0.65786000  0.94241000  1.0 -0.0323120937
C  C933  1  0.30699000  0.99119000  0.27574000  1.0 -0.0323120937
C  C934  1  0.95740000  0.28335000  0.59654000  1.0 -0.0323120937
C  C935  1  0.62407000  0.61668000  0.92987000  1.0 -0.0323120937
C  C936  1  0.29074000  0.95001000  0.26320000  1.0 -0.0323120937
C  C937  1  0.91667000  0.83333000  0.58333000  1.0 0.0173599273
C  C938  1  0.58333000  0.16667000  0.91667000  1.0 0.0173599273
C  C939  1  0.25000000  0.50000000  0.25000000  1.0 0.0173599273
C  C940  1  0.58333000  0.66666667  0.41667000  1.0 0.0173599273
C  C941  1  0.25000000  0.00000000  0.75000000  1.0 0.0173599273
C  C942  1  0.91667000  0.33333333  0.08333000  1.0 0.0173599273
C  C943  1  0.08333000  0.66666667  0.41667000  1.0 0.0173599273
C  C944  1  0.75000000  0.00000000  0.75000000  1.0 0.0173599273
C  C945  1  0.41667000  0.33333333  0.08333000  1.0 0.0173599273
C  C946  1  0.08333000  0.16667000  0.41667000  1.0 0.0173599273
C  C947  1  0.75000000  0.50000000  0.75000000  1.0 0.0173599273
C  C948  1  0.41667000  0.83333000  0.08333000  1.0 0.0173599273
C  C949  1  0.75000000  0.00000000  0.25000000  1.0 0.0173599273
C  C950  1  0.41667000  0.33333333  0.58333000  1.0 0.0173599273
C  C951  1  0.08333000  0.66666667  0.91667000  1.0 0.0173599273
C  C952  1  0.25000000  0.00000000  0.25000000  1.0 0.0173599273
C  C953  1  0.91667000  0.33333333  0.58333000  1.0 0.0173599273
C  C954  1  0.58333000  0.66666667  0.91667000  1.0 0.0173599273
O  O1  1  0.97375000  0.70796000  0.66242000  1.0 0.1511203717
O  O2  1  0.64041000  0.04130000  0.99576000  1.0 0.1511203717
O  O3  1  0.30708000  0.37463000  0.32909000  1.0 0.1511203717
O  O4  1  0.96088000  0.66209000  0.61614000  1.0 0.1854420728
O  O5  1  0.62754000  0.99543000  0.94948000  1.0 0.1854420728
O  O6  1  0.29421000  0.32876000  0.28281000  1.0 0.1854420728
O  O7  1  0.06755000  0.73846000  0.69292000  1.0 0.05273596
O  O8  1  0.73422000  0.07179000  0.02625000  1.0 0.05273596
O  O9  1  0.40088000  0.40513000  0.35959000  1.0 0.05273596
O  O10  1  0.03455000  0.75174000  0.70579000  1.0 0.0634069792
O  O11  1  0.70122000  0.08507000  0.03912000  1.0 0.0709394059
O  O12  1  0.36788000  0.41841000  0.37246000  1.0 0.0709394059
O  O13  1  0.00424000  0.64466000  0.59912000  1.0 0.1511203717
O  O14  1  0.67091000  0.97799000  0.93245000  1.0 0.1511203717
O  O15  1  0.33758000  0.31132000  0.26578000  1.0 0.1511203717
O  O16  1  0.05052000  0.67807000  0.63212000  1.0 0.1583472601
O  O17  1  0.71719000  0.01140000  0.96545000  1.0 0.1583472601
O  O18  1  0.38386000  0.34473000  0.29878000  1.0 0.1583472601
O  O19  1  0.72328000  0.68609000  0.64055000  1.0 0.1511203717
O  O20  1  0.38995000  0.01942000  0.97388000  1.0 0.1511203717
O  O21  1  0.05661000  0.35276000  0.30722000  1.0 0.1583472601
O  O22  1  0.73642000  0.73251000  0.68656000  1.0 0.1854420728
O  O23  1  0.40309000  0.06584000  0.01989000  1.0 0.1854420728
O  O24  1  0.06976000  0.39917000  0.35322000  1.0 0.1843009047
O  O25  1  0.62948000  0.65559000  0.61005000  1.0 0.05273596
O  O26  1  0.29614000  0.98893000  0.94339000  1.0 0.05273596
O  O27  1  0.96281000  0.32226000  0.27672000  1.0 0.05273596
O  O28  1  0.66275000  0.64286000  0.59691000  1.0 0.0709394059
O  O29  1  0.32942000  0.97619000  0.93024000  1.0 0.0634069792
O  O30  1  0.99608000  0.30953000  0.26358000  1.0 0.0709394059
O  O31  1  0.69278000  0.74940000  0.70386000  1.0 0.1511203717
O  O32  1  0.35945000  0.08273000  0.03719000  1.0 0.1511203717
O  O33  1  0.02612000  0.41606000  0.37052000  1.0 0.1511203717
O  O34  1  0.64678000  0.71653000  0.67058000  1.0 0.1583472601
O  O35  1  0.31344000  0.04987000  0.00392000  1.0 0.1583472601
O  O36  1  0.98011000  0.38320000  0.33725000  1.0 0.1583472601
O  O37  1  0.77672000  0.91727000  0.46281000  1.0 0.1511203717
O  O38  1  0.44339000  0.25060000  0.79614000  1.0 0.1511203717
O  O39  1  0.11005000  0.58394000  0.12948000  1.0 0.1511203717
O  O40  1  0.76358000  0.95013000  0.49608000  1.0 0.1583472601
O  O41  1  0.43024000  0.28347000  0.82942000  1.0 0.1583472601
O  O42  1  0.09691000  0.61680000  0.16275000  1.0 0.1583472601
O  O43  1  0.87052000  0.98058000  0.52612000  1.0 0.1511203717
O  O44  1  0.53719000  0.31391000  0.85945000  1.0 0.1511203717
O  O45  1  0.20386000  0.64724000  0.19278000  1.0 0.1511203717
O  O46  1  0.83725000  0.93416000  0.48011000  1.0 0.1854420728
O  O47  1  0.50392000  0.26749000  0.81344000  1.0 0.1854420728
O  O48  1  0.17058000  0.60083000  0.14678000  1.0 0.1854420728
O  O49  1  0.80722000  0.01107000  0.55661000  1.0 0.05273596
O  O50  1  0.47388000  0.34441000  0.88995000  1.0 0.05273596
O  O51  1  0.14055000  0.67774000  0.22328000  1.0 0.05273596
O  O52  1  0.85322000  0.02381000  0.56976000  1.0 0.0709394059
O  O53  1  0.51989000  0.35714000  0.90309000  1.0 0.0709394059
O  O54  1  0.18656000  0.69047000  0.23642000  1.0 0.0709394059
O  O55  1  0.19292000  0.02201000  0.56755000  1.0 0.1511203717
O  O56  1  0.85959000  0.35534000  0.90088000  1.0 0.1511203717
O  O57  1  0.52625000  0.68868000  0.23422000  1.0 0.1511203717
O  O58  1  0.20579000  0.98860000  0.53455000  1.0 0.1583472601
O  O59  1  0.87246000  0.32193000  0.86788000  1.0 0.1583472601
O  O60  1  0.53912000  0.65527000  0.20122000  1.0 0.1583472601
O  O61  1  0.09912000  0.95870000  0.50424000  1.0 0.1511203717
O  O62  1  0.76578000  0.29204000  0.83758000  1.0 0.1583472601
O  O63  1  0.43245000  0.62537000  0.17091000  1.0 0.1511203717
O  O64  1  0.13212000  0.00457000  0.55052000  1.0 0.1854420728
O  O65  1  0.79878000  0.33791000  0.88386000  1.0 0.1854420728
O  O66  1  0.46545000  0.67124000  0.21719000  1.0 0.1854420728
O  O67  1  0.16242000  0.92821000  0.47375000  1.0 0.05273596
O  O68  1  0.82909000  0.26154000  0.80708000  1.0 0.05273596
O  O69  1  0.49576000  0.59487000  0.14041000  1.0 0.05273596
O  O70  1  0.11614000  0.91493000  0.46088000  1.0 0.0634069792
O  O71  1  0.78281000  0.24826000  0.79421000  1.0 0.0709394059
O  O72  1  0.44948000  0.58159000  0.12754000  1.0 0.0709394059
O  O73  1  0.02625000  0.29204000  0.33758000  1.0 0.1583472601
O  O74  1  0.69292000  0.62537000  0.67091000  1.0 0.1511203717
O  O75  1  0.35959000  0.95870000  0.00424000  1.0 0.1511203717
O  O76  1  0.03912000  0.33791000  0.38386000  1.0 0.1843009047
O  O77  1  0.70579000  0.67124000  0.71719000  1.0 0.1854420728
O  O78  1  0.37246000  0.00457000  0.05052000  1.0 0.1854420728
O  O79  1  0.93245000  0.26154000  0.30708000  1.0 0.05273596
O  O80  1  0.59912000  0.59487000  0.64041000  1.0 0.05273596
O  O81  1  0.26578000  0.92821000  0.97375000  1.0 0.05273596
O  O82  1  0.96545000  0.24826000  0.29421000  1.0 0.0709394059
O  O83  1  0.63212000  0.58159000  0.62754000  1.0 0.0709394059
O  O84  1  0.29878000  0.91493000  0.96088000  1.0 0.0634069792
O  O85  1  0.99576000  0.35534000  0.40088000  1.0 0.1511203717
O  O86  1  0.66242000  0.68868000  0.73422000  1.0 0.1511203717
O  O87  1  0.32909000  0.02201000  0.06755000  1.0 0.1511203717
O  O88  1  0.94948000  0.32193000  0.36788000  1.0 0.1583472601
O  O89  1  0.61614000  0.65527000  0.70122000  1.0 0.1583472601
O  O90  1  0.28281000  0.98860000  0.03455000  1.0 0.1583472601
O  O91  1  0.27672000  0.31391000  0.35945000  1.0 0.1511203717
O  O92  1  0.94339000  0.64724000  0.69278000  1.0 0.1583472601
O  O93  1  0.61005000  0.98058000  0.02612000  1.0 0.1511203717
O  O94  1  0.26358000  0.26749000  0.31344000  1.0 0.1854420728
O  O95  1  0.93024000  0.60083000  0.64678000  1.0 0.1854420728
O  O96  1  0.59691000  0.93416000  0.98011000  1.0 0.1854420728
O  O97  1  0.37052000  0.34441000  0.38995000  1.0 0.05273596
O  O98  1  0.03719000  0.67774000  0.72328000  1.0 0.05273596
O  O99  1  0.70386000  0.01107000  0.05661000  1.0 0.05273596
O  O100  1  0.33725000  0.35714000  0.40309000  1.0 0.0709394059
O  O101  1  0.00392000  0.69047000  0.73642000  1.0 0.0634069792
O  O102  1  0.67058000  0.02381000  0.06976000  1.0 0.0709394059
O  O103  1  0.30722000  0.25060000  0.29614000  1.0 0.1511203717
O  O104  1  0.97388000  0.58394000  0.62948000  1.0 0.1511203717
O  O105  1  0.64055000  0.91727000  0.96281000  1.0 0.1511203717
O  O106  1  0.35322000  0.28347000  0.32942000  1.0 0.1583472601
O  O107  1  0.01989000  0.61680000  0.66275000  1.0 0.1511203717
O  O108  1  0.68656000  0.95013000  0.99608000  1.0 0.1583472601
O  O109  1  0.22328000  0.08273000  0.53719000  1.0 0.1511203717
O  O110  1  0.88995000  0.41606000  0.87052000  1.0 0.1511203717
O  O111  1  0.55661000  0.74940000  0.20386000  1.0 0.1511203717
O  O112  1  0.23642000  0.04987000  0.50392000  1.0 0.1583472601
O  O113  1  0.90309000  0.38320000  0.83725000  1.0 0.1583472601
O  O114  1  0.56976000  0.71653000  0.17058000  1.0 0.1583472601
O  O115  1  0.12948000  0.01942000  0.47388000  1.0 0.1511203717
O  O116  1  0.79614000  0.35276000  0.80722000  1.0 0.1511203717
O  O117  1  0.46281000  0.68609000  0.14055000  1.0 0.1511203717
O  O118  1  0.16275000  0.06584000  0.51989000  1.0 0.1854420728
O  O119  1  0.82942000  0.39917000  0.85322000  1.0 0.1854420728
O  O120  1  0.49608000  0.73251000  0.18656000  1.0 0.1854420728
O  O121  1  0.19278000  0.98893000  0.44339000  1.0 0.05273596
O  O122  1  0.85945000  0.32226000  0.77672000  1.0 0.05273596
O  O123  1  0.52612000  0.65559000  0.11005000  1.0 0.05273596
O  O124  1  0.14678000  0.97619000  0.43024000  1.0 0.0709394059
O  O125  1  0.81344000  0.30953000  0.76358000  1.0 0.0709394059
O  O126  1  0.48011000  0.64286000  0.09691000  1.0 0.0709394059
O  O127  1  0.80708000  0.97799000  0.43245000  1.0 0.1511203717
O  O128  1  0.47375000  0.31132000  0.76578000  1.0 0.1511203717
O  O129  1  0.14041000  0.64466000  0.09912000  1.0 0.1511203717
O  O130  1  0.79421000  0.01140000  0.46545000  1.0 0.1583472601
O  O131  1  0.46088000  0.34473000  0.79878000  1.0 0.1583472601
O  O132  1  0.12754000  0.67807000  0.13212000  1.0 0.1583472601
O  O133  1  0.90088000  0.04130000  0.49576000  1.0 0.1511203717
O  O134  1  0.56755000  0.37463000  0.82909000  1.0 0.1511203717
O  O135  1  0.23422000  0.70796000  0.16242000  1.0 0.1511203717
O  O136  1  0.86788000  0.99543000  0.44948000  1.0 0.1854420728
O  O137  1  0.53455000  0.32876000  0.78281000  1.0 0.1854420728
O  O138  1  0.20122000  0.66209000  0.11614000  1.0 0.1854420728
O  O139  1  0.83758000  0.07179000  0.52625000  1.0 0.05273596
O  O140  1  0.50424000  0.40513000  0.85959000  1.0 0.05273596
O  O141  1  0.17091000  0.73846000  0.19292000  1.0 0.05273596
O  O142  1  0.88386000  0.08507000  0.53912000  1.0 0.0709394059
O  O143  1  0.55052000  0.41841000  0.87246000  1.0 0.0709394059
O  O144  1  0.21719000  0.75174000  0.20579000  1.0 0.0634069792
O  O145  1  0.31269000  0.39578000  0.39578000  1.0 -0.0809881261
O  O146  1  0.97935000  0.72912000  0.72912000  1.0 -0.0809881261
O  O147  1  0.64602000  0.06245000  0.06245000  1.0 -0.0809881261
O  O148  1  0.41643000  0.35398000  0.35398000  1.0 -0.0893596005
O  O149  1  0.08310000  0.68731000  0.68731000  1.0 -0.0893596005
O  O150  1  0.74976000  0.02065000  0.02065000  1.0 -0.0893596005
O  O151  1  0.27088000  0.25024000  0.25024000  1.0 -0.0809881261
O  O152  1  0.93755000  0.58357000  0.58357000  1.0 -0.0809881261
O  O153  1  0.60422000  0.91690000  0.91690000  1.0 -0.0809881261
O  O154  1  0.02065000  0.27088000  0.27088000  1.0 -0.0809881261
O  O155  1  0.68731000  0.60422000  0.60422000  1.0 -0.0809881261
O  O156  1  0.35398000  0.93755000  0.93755000  1.0 -0.0809881261
O  O157  1  0.91690000  0.31269000  0.31269000  1.0 -0.0893596005
O  O158  1  0.58357000  0.64602000  0.64602000  1.0 -0.0893596005
O  O159  1  0.25024000  0.97935000  0.97935000  1.0 -0.0893596005
O  O160  1  0.06245000  0.41643000  0.41643000  1.0 -0.0809881261
O  O161  1  0.72912000  0.74976000  0.74976000  1.0 -0.0809881261
O  O162  1  0.39578000  0.08310000  0.08310000  1.0 -0.0809881261
O  O163  1  0.81269000  0.91690000  0.41690000  1.0 -0.0809881261
O  O164  1  0.47935000  0.25024000  0.75024000  1.0 -0.0809881261
O  O165  1  0.14602000  0.58357000  0.08357000  1.0 -0.0809881261
O  O166  1  0.91643000  0.06245000  0.56245000  1.0 -0.0809881261
O  O167  1  0.58310000  0.39578000  0.89578000  1.0 -0.0809881261
O  O168  1  0.24976000  0.72912000  0.22912000  1.0 -0.0809881261
O  O169  1  0.77088000  0.02065000  0.52065000  1.0 -0.0893596005
O  O170  1  0.43755000  0.35398000  0.85398000  1.0 -0.0893596005
O  O171  1  0.10422000  0.68731000  0.18731000  1.0 -0.0893596005
O  O172  1  0.18731000  0.08310000  0.58310000  1.0 -0.0809881261
O  O173  1  0.85398000  0.41643000  0.91643000  1.0 -0.0809881261
O  O174  1  0.52065000  0.74976000  0.24976000  1.0 -0.0809881261
O  O175  1  0.08357000  0.93755000  0.43755000  1.0 -0.0809881261
O  O176  1  0.75024000  0.27088000  0.77088000  1.0 -0.0809881261
O  O177  1  0.41690000  0.60422000  0.10422000  1.0 -0.0809881261
O  O178  1  0.22912000  0.97935000  0.47935000  1.0 -0.0893596005
O  O179  1  0.89578000  0.31269000  0.81269000  1.0 -0.0893596005
O  O180  1  0.56245000  0.64602000  0.14602000  1.0 -0.0893596005
O  O181  1  0.33333333  0.33333333  0.33333333  1.0 0.2017171038
O  O182  1  0.00000000  0.66666667  0.66666667  1.0 0.2017171038
O  O183  1  0.66666667  0.00000000  0.00000000  1.0 0.2017171038
O  O184  1  0.00000000  0.33333333  0.33333333  1.0 0.2017171038
O  O185  1  0.66666667  0.66666667  0.66666667  1.0 0.2017171038
O  O186  1  0.33333333  0.00000000  0.00000000  1.0 0.2017171038
O  O187  1  0.83333000  0.00000000  0.50000000  1.0 0.2017171038
O  O188  1  0.50000000  0.33333333  0.83333000  1.0 0.2017171038
O  O189  1  0.16667000  0.66666667  0.16667000  1.0 0.2017171038
O  O190  1  0.16667000  0.00000000  0.50000000  1.0 0.2017171038
O  O191  1  0.83333000  0.33333333  0.83333000  1.0 0.2017171038
O  O192  1  0.50000000  0.66666667  0.16667000  1.0 0.2017171038
