# DDEC6 charges by PACMAN v1.1 (https://github.com/mtap-research/PACMAN-charge/)
data_QOTLOD02_FSR_pacman
_symmetry_space_group_name_H-M   'P 1'
_cell_length_a   14.14210000
_cell_length_b   14.14210000
_cell_length_c   17.32050000
_cell_angle_alpha   90.00000000
_cell_angle_beta   90.00000000
_cell_angle_gamma   120.00000000
_symmetry_Int_Tables_number   1
_chemical_formula_structural   Fe6H84C159O32
_chemical_formula_sum   'Fe36 H504 C954 O192'
_cell_volume   2999.98348741
_cell_formula_units_Z   6
loop_
 _symmetry_equiv_pos_site_id
 _symmetry_equiv_pos_as_xyz
  1  'x, y, z'
loop_
 _atom_site_type_symbol
 _atom_site_label
 _atom_site_symmetry_multiplicity
 _atom_site_fract_x
 _atom_site_fract_y
 _atom_site_fract_z
 _atom_site_occupancy
 _atom_site_charge
Fe  Fe1  1  0.98836000  0.29122000  0.29122000  1.0 0.1090753844
Fe  Fe2  1  0.65502000  0.62456000  0.62456000  1.0 0.1090753844
Fe  Fe3  1  0.32169000  0.95789000  0.95789000  1.0 0.1090753844
Fe  Fe4  1  0.96953000  0.34498000  0.34498000  1.0 0.1090753844
Fe  Fe5  1  0.63620000  0.67831000  0.67831000  1.0 0.1090753844
Fe  Fe6  1  0.30287000  0.01164000  0.01164000  1.0 0.1090753844
Fe  Fe7  1  0.04211000  0.36380000  0.36380000  1.0 0.1228218732
Fe  Fe8  1  0.70878000  0.69713000  0.69713000  1.0 0.1228218732
Fe  Fe9  1  0.37544000  0.03047000  0.03047000  1.0 0.1228218732
Fe  Fe10  1  0.34498000  0.37544000  0.37544000  1.0 0.1090753844
Fe  Fe11  1  0.01164000  0.70878000  0.70878000  1.0 0.1090753844
Fe  Fe12  1  0.67831000  0.04211000  0.04211000  1.0 0.1090753844
Fe  Fe13  1  0.36380000  0.32169000  0.32169000  1.0 0.1090753844
Fe  Fe14  1  0.03047000  0.65502000  0.65502000  1.0 0.1090753844
Fe  Fe15  1  0.69713000  0.98836000  0.98836000  1.0 0.1090753844
Fe  Fe16  1  0.29122000  0.30287000  0.30287000  1.0 0.1228218732
Fe  Fe17  1  0.95789000  0.63620000  0.63620000  1.0 0.1228218732
Fe  Fe18  1  0.62456000  0.96953000  0.96953000  1.0 0.1228218732
Fe  Fe19  1  0.15502000  0.03047000  0.53047000  1.0 0.1228218732
Fe  Fe20  1  0.82169000  0.36380000  0.86380000  1.0 0.1228218732
Fe  Fe21  1  0.48836000  0.69713000  0.19713000  1.0 0.1228218732
Fe  Fe22  1  0.13620000  0.95789000  0.45789000  1.0 0.1090753844
Fe  Fe23  1  0.80287000  0.29122000  0.79122000  1.0 0.1090753844
Fe  Fe24  1  0.46953000  0.62456000  0.12456000  1.0 0.1090753844
Fe  Fe25  1  0.20878000  0.01164000  0.51164000  1.0 0.1090753844
Fe  Fe26  1  0.87544000  0.34498000  0.84498000  1.0 0.1090753844
Fe  Fe27  1  0.54211000  0.67831000  0.17831000  1.0 0.1090753844
Fe  Fe28  1  0.84498000  0.96953000  0.46953000  1.0 0.1228218732
Fe  Fe29  1  0.51164000  0.30287000  0.80287000  1.0 0.1228218732
Fe  Fe30  1  0.17831000  0.63620000  0.13620000  1.0 0.1228218732
Fe  Fe31  1  0.86380000  0.04211000  0.54211000  1.0 0.1090753844
Fe  Fe32  1  0.53047000  0.37544000  0.87544000  1.0 0.1090753844
Fe  Fe33  1  0.19713000  0.70878000  0.20878000  1.0 0.1090753844
Fe  Fe34  1  0.79122000  0.98836000  0.48836000  1.0 0.1090753844
Fe  Fe35  1  0.45789000  0.32169000  0.82169000  1.0 0.1090753844
Fe  Fe36  1  0.12456000  0.65502000  0.15502000  1.0 0.1090753844
H  H1  1  0.60397000  0.66273000  0.47143000  1.0 0.0699584305
H  H2  1  0.27063000  0.99607000  0.80477000  1.0 0.0699584305
H  H3  1  0.93730000  0.32940000  0.13810000  1.0 0.0699584305
H  H4  1  0.60883000  0.64487000  0.50377000  1.0 0.0797036034
H  H5  1  0.27550000  0.97820000  0.83710000  1.0 0.0699584305
H  H6  1  0.94217000  0.31153000  0.17043000  1.0 0.0699584305
H  H7  1  0.56407000  0.70663000  0.53343000  1.0 0.0621849741
H  H8  1  0.23073000  0.03997000  0.86677000  1.0 0.0621849741
H  H9  1  0.89740000  0.37330000  0.20010000  1.0 0.0621849741
H  H10  1  0.63020000  0.64160000  0.54700000  1.0 0.0893416677
H  H11  1  0.29687000  0.97493000  0.88033000  1.0 0.0893416677
H  H12  1  0.96353000  0.30827000  0.21367000  1.0 0.0893416677
H  H13  1  0.54543000  0.71607000  0.49247000  1.0 0.0699584305
H  H14  1  0.21210000  0.04940000  0.82580000  1.0 0.0699584305
H  H15  1  0.87877000  0.38273000  0.15913000  1.0 0.0699584305
H  H16  1  0.58767000  0.70973000  0.56703000  1.0 0.0699584305
H  H17  1  0.25433000  0.04307000  0.90037000  1.0 0.0699584305
H  H18  1  0.92100000  0.37640000  0.23370000  1.0 0.0699584305
H  H19  1  0.60823000  0.70307000  0.61017000  1.0 0.1228218732
H  H20  1  0.27490000  0.03640000  0.94350000  1.0 0.1228218732
H  H21  1  0.94157000  0.36973000  0.27683000  1.0 0.1228218732
H  H22  1  0.72543000  0.92067000  0.72937000  1.0 0.0699584305
H  H23  1  0.39210000  0.25400000  0.06270000  1.0 0.0699584305
H  H24  1  0.05877000  0.58733000  0.39603000  1.0 0.0699584305
H  H25  1  0.70270000  0.86560000  0.72450000  1.0 0.0699584305
H  H26  1  0.36937000  0.19893000  0.05783000  1.0 0.0699584305
H  H27  1  0.03603000  0.53227000  0.39117000  1.0 0.0699584305
H  H28  1  0.80923000  0.94247000  0.76927000  1.0 0.0893416677
H  H29  1  0.47590000  0.27580000  0.10260000  1.0 0.0893416677
H  H30  1  0.14257000  0.60913000  0.43593000  1.0 0.0893416677
H  H31  1  0.67807000  0.79773000  0.70313000  1.0 0.1090753844
H  H32  1  0.34473000  0.13107000  0.03647000  1.0 0.1090753844
H  H33  1  0.01140000  0.46440000  0.36980000  1.0 0.1090753844
H  H34  1  0.83730000  0.01150000  0.78790000  1.0 0.0893416677
H  H35  1  0.50397000  0.34483000  0.12123000  1.0 0.0797036034
H  H36  1  0.17063000  0.67817000  0.45457000  1.0 0.0893416677
H  H37  1  0.78873000  0.88837000  0.74567000  1.0 0.0621849741
H  H38  1  0.45540000  0.22170000  0.07900000  1.0 0.0621849741
H  H39  1  0.12207000  0.55503000  0.41233000  1.0 0.0621849741
H  H40  1  0.76150000  0.81800000  0.72510000  1.0 0.1040611573
H  H41  1  0.42817000  0.15133000  0.05843000  1.0 0.1040611573
H  H42  1  0.09483000  0.48467000  0.39177000  1.0 0.1040611573
H  H43  1  0.86190000  0.79920000  0.60790000  1.0 0.0699584305
H  H44  1  0.52857000  0.13253000  0.94123000  1.0 0.0699584305
H  H45  1  0.19523000  0.46587000  0.27457000  1.0 0.0699584305
H  H46  1  0.82957000  0.77173000  0.63063000  1.0 0.0699584305
H  H47  1  0.49623000  0.10507000  0.96397000  1.0 0.0699584305
H  H48  1  0.16290000  0.43840000  0.29730000  1.0 0.0699584305
H  H49  1  0.79990000  0.69730000  0.52410000  1.0 0.0699584305
H  H50  1  0.46657000  0.03063000  0.85743000  1.0 0.0699584305
H  H51  1  0.13323000  0.36397000  0.19077000  1.0 0.0699584305
H  H52  1  0.78633000  0.74987000  0.65527000  1.0 0.129020889
H  H53  1  0.45300000  0.08320000  0.98860000  1.0 0.129020889
H  H54  1  0.11967000  0.41653000  0.32193000  1.0 0.129020889
H  H55  1  0.84087000  0.71963000  0.49603000  1.0 0.0797036034
H  H56  1  0.50753000  0.05297000  0.82937000  1.0 0.0797036034
H  H57  1  0.17420000  0.38630000  0.16270000  1.0 0.0797036034
H  H58  1  0.76630000  0.68730000  0.54460000  1.0 0.0699584305
H  H59  1  0.43297000  0.02063000  0.87793000  1.0 0.0699584305
H  H60  1  0.09963000  0.35397000  0.21127000  1.0 0.0699584305
H  H61  1  0.72317000  0.66473000  0.57183000  1.0 0.1090753844
H  H62  1  0.38983000  0.99807000  0.90517000  1.0 0.1090753844
H  H63  1  0.05650000  0.33140000  0.23850000  1.0 0.1090753844
H  H64  1  0.19023000  0.92567000  0.73437000  1.0 0.0699584305
H  H65  1  0.85690000  0.25900000  0.06770000  1.0 0.0699584305
H  H66  1  0.52357000  0.59233000  0.40103000  1.0 0.0699584305
H  H67  1  0.15190000  0.87660000  0.73550000  1.0 0.0797036034
H  H68  1  0.81857000  0.20993000  0.06883000  1.0 0.0699584305
H  H69  1  0.48523000  0.54327000  0.40217000  1.0 0.0699584305
H  H70  1  0.21807000  0.85763000  0.68443000  1.0 0.0621849741
H  H71  1  0.88473000  0.19097000  0.01777000  1.0 0.0621849741
H  H72  1  0.55140000  0.52430000  0.35110000  1.0 0.0621849741
H  H73  1  0.09953000  0.81787000  0.72327000  1.0 0.0893416677
H  H74  1  0.76620000  0.15120000  0.05660000  1.0 0.0893416677
H  H75  1  0.43287000  0.48453000  0.38993000  1.0 0.0893416677
H  H76  1  0.27030000  0.91540000  0.69180000  1.0 0.0699584305
H  H77  1  0.93697000  0.24873000  0.02513000  1.0 0.0699584305
H  H78  1  0.60363000  0.58207000  0.35847000  1.0 0.0699584305
H  H79  1  0.17413000  0.81387000  0.67117000  1.0 0.0699584305
H  H80  1  0.84080000  0.14720000  0.00450000  1.0 0.0699584305
H  H81  1  0.50747000  0.48053000  0.33783000  1.0 0.0699584305
H  H82  1  0.12037000  0.75413000  0.66123000  1.0 0.1228218732
H  H83  1  0.78703000  0.08747000  0.99457000  1.0 0.1228218732
H  H84  1  0.45370000  0.42080000  0.32790000  1.0 0.1228218732
H  H85  1  0.06877000  0.66773000  0.47643000  1.0 0.0699584305
H  H86  1  0.73543000  0.00107000  0.80977000  1.0 0.0699584305
H  H87  1  0.40210000  0.33440000  0.14310000  1.0 0.0699584305
H  H88  1  0.05803000  0.65587000  0.51477000  1.0 0.0699584305
H  H89  1  0.72470000  0.98920000  0.84810000  1.0 0.0699584305
H  H90  1  0.39137000  0.32253000  0.18143000  1.0 0.0699584305
H  H91  1  0.97290000  0.62180000  0.44860000  1.0 0.0893416677
H  H92  1  0.63957000  0.95513000  0.78193000  1.0 0.0893416677
H  H93  1  0.30623000  0.28847000  0.11527000  1.0 0.0893416677
H  H94  1  0.05167000  0.66173000  0.56713000  1.0 0.1090753844
H  H95  1  0.71833000  0.99507000  0.90047000  1.0 0.1090753844
H  H96  1  0.38500000  0.32840000  0.23380000  1.0 0.1090753844
H  H97  1  0.97843000  0.61997000  0.39637000  1.0 0.0797036034
H  H98  1  0.64510000  0.95330000  0.72970000  1.0 0.0893416677
H  H99  1  0.31177000  0.28663000  0.06303000  1.0 0.0893416677
H  H100  1  0.97307000  0.63523000  0.49253000  1.0 0.0621849741
H  H101  1  0.63973000  0.96857000  0.82587000  1.0 0.0621849741
H  H102  1  0.30640000  0.30190000  0.15920000  1.0 0.0621849741
H  H103  1  0.96710000  0.63920000  0.54630000  1.0 0.1040611573
H  H104  1  0.63377000  0.97253000  0.87963000  1.0 0.1040611573
H  H105  1  0.30043000  0.30587000  0.21297000  1.0 0.1040611573
H  H106  1  0.93230000  0.78920000  0.59790000  1.0 0.0699584305
H  H107  1  0.59897000  0.12253000  0.93123000  1.0 0.0699584305
H  H108  1  0.26563000  0.45587000  0.26457000  1.0 0.0699584305
H  H109  1  0.93117000  0.74973000  0.60863000  1.0 0.0699584305
H  H110  1  0.59783000  0.08307000  0.94197000  1.0 0.0699584305
H  H111  1  0.26450000  0.41640000  0.27530000  1.0 0.0699584305
H  H112  1  0.98223000  0.86697000  0.69377000  1.0 0.0699584305
H  H113  1  0.64890000  0.20030000  0.02710000  1.0 0.0699584305
H  H114  1  0.31557000  0.53363000  0.36043000  1.0 0.0699584305
H  H115  1  0.94340000  0.70960000  0.61500000  1.0 0.129020889
H  H116  1  0.61007000  0.04293000  0.94833000  1.0 0.129020889
H  H117  1  0.27673000  0.37627000  0.28167000  1.0 0.129020889
H  H118  1  0.97487000  0.91183000  0.68823000  1.0 0.0797036034
H  H119  1  0.64153000  0.24517000  0.02157000  1.0 0.0797036034
H  H120  1  0.30820000  0.57850000  0.35490000  1.0 0.0797036034
H  H121  1  0.99550000  0.83630000  0.69360000  1.0 0.0699584305
H  H122  1  0.66217000  0.16963000  0.02693000  1.0 0.0699584305
H  H123  1  0.32883000  0.50297000  0.36027000  1.0 0.0699584305
H  H124  1  0.00543000  0.79247000  0.69957000  1.0 0.1090753844
H  H125  1  0.67210000  0.12580000  0.03290000  1.0 0.1090753844
H  H126  1  0.33877000  0.45913000  0.36623000  1.0 0.1090753844
H  H127  1  0.97643000  0.87747000  0.56877000  1.0 0.0699584305
H  H128  1  0.64310000  0.21080000  0.90210000  1.0 0.0699584305
H  H129  1  0.30977000  0.54413000  0.23543000  1.0 0.0699584305
H  H130  1  0.01477000  0.91693000  0.55803000  1.0 0.0699584305
H  H131  1  0.68143000  0.25027000  0.89137000  1.0 0.0699584305
H  H132  1  0.34810000  0.58360000  0.22470000  1.0 0.0699584305
H  H133  1  0.94860000  0.79970000  0.47290000  1.0 0.0699584305
H  H134  1  0.61527000  0.13303000  0.80623000  1.0 0.0699584305
H  H135  1  0.28193000  0.46637000  0.13957000  1.0 0.0699584305
H  H136  1  0.06713000  0.95707000  0.55167000  1.0 0.129020889
H  H137  1  0.73380000  0.29040000  0.88500000  1.0 0.129020889
H  H138  1  0.40047000  0.62373000  0.21833000  1.0 0.129020889
H  H139  1  0.89637000  0.75483000  0.47843000  1.0 0.0797036034
H  H140  1  0.56303000  0.08817000  0.81177000  1.0 0.0797036034
H  H141  1  0.22970000  0.42150000  0.14510000  1.0 0.0797036034
H  H142  1  0.99253000  0.83037000  0.47307000  1.0 0.0699584305
H  H143  1  0.65920000  0.16370000  0.80640000  1.0 0.0699584305
H  H144  1  0.32587000  0.49703000  0.13973000  1.0 0.0699584305
H  H145  1  0.04630000  0.87420000  0.46710000  1.0 0.1090753844
H  H146  1  0.71297000  0.20753000  0.80043000  1.0 0.1090753844
H  H147  1  0.37963000  0.54087000  0.13377000  1.0 0.1090753844
H  H148  1  0.09790000  0.74100000  0.43230000  1.0 0.0699584305
H  H149  1  0.76457000  0.07433000  0.76563000  1.0 0.0699584305
H  H150  1  0.43123000  0.40767000  0.09897000  1.0 0.0699584305
H  H151  1  0.10863000  0.79007000  0.43117000  1.0 0.0797036034
H  H152  1  0.77530000  0.12340000  0.76450000  1.0 0.0797036034
H  H153  1  0.44197000  0.45673000  0.09783000  1.0 0.0797036034
H  H154  1  0.19377000  0.80903000  0.48223000  1.0 0.0621849741
H  H155  1  0.86043000  0.14237000  0.81557000  1.0 0.0621849741
H  H156  1  0.52710000  0.47570000  0.14890000  1.0 0.0621849741
H  H157  1  0.11500000  0.84880000  0.44340000  1.0 0.0893416677
H  H158  1  0.78167000  0.18213000  0.77673000  1.0 0.0893416677
H  H159  1  0.44833000  0.51547000  0.11007000  1.0 0.0893416677
H  H160  1  0.18823000  0.75127000  0.47487000  1.0 0.0699584305
H  H161  1  0.85490000  0.08460000  0.80820000  1.0 0.0699584305
H  H162  1  0.52157000  0.41793000  0.14153000  1.0 0.0699584305
H  H163  1  0.19360000  0.85280000  0.49550000  1.0 0.0699584305
H  H164  1  0.86027000  0.18613000  0.82883000  1.0 0.0699584305
H  H165  1  0.52693000  0.51947000  0.16217000  1.0 0.0699584305
H  H166  1  0.19957000  0.91253000  0.50543000  1.0 0.1228218732
H  H167  1  0.86623000  0.24587000  0.83877000  1.0 0.1228218732
H  H168  1  0.53290000  0.57920000  0.17210000  1.0 0.1228218732
H  H169  1  0.23437000  0.99893000  0.69023000  1.0 0.0699584305
H  H170  1  0.90103000  0.33227000  0.02357000  1.0 0.0699584305
H  H171  1  0.56770000  0.66560000  0.35690000  1.0 0.0699584305
H  H172  1  0.23550000  0.01080000  0.65190000  1.0 0.0699584305
H  H173  1  0.90217000  0.34413000  0.98523000  1.0 0.0699584305
H  H174  1  0.56883000  0.67747000  0.31857000  1.0 0.0699584305
H  H175  1  0.18443000  0.04487000  0.71807000  1.0 0.0893416677
H  H176  1  0.85110000  0.37820000  0.05140000  1.0 0.0893416677
H  H177  1  0.51777000  0.71153000  0.38473000  1.0 0.0893416677
H  H178  1  0.22327000  0.00493000  0.59953000  1.0 0.1090753844
H  H179  1  0.88993000  0.33827000  0.93287000  1.0 0.1090753844
H  H180  1  0.55660000  0.67160000  0.26620000  1.0 0.1090753844
H  H181  1  0.19180000  0.04670000  0.77030000  1.0 0.0893416677
H  H182  1  0.85847000  0.38003000  0.10363000  1.0 0.0797036034
H  H183  1  0.52513000  0.71337000  0.43697000  1.0 0.0893416677
H  H184  1  0.17117000  0.03143000  0.67413000  1.0 0.0621849741
H  H185  1  0.83783000  0.36477000  0.00747000  1.0 0.0621849741
H  H186  1  0.50450000  0.69810000  0.34080000  1.0 0.0621849741
H  H187  1  0.16123000  0.02747000  0.62037000  1.0 0.1040611573
H  H188  1  0.82790000  0.36080000  0.95370000  1.0 0.1040611573
H  H189  1  0.49457000  0.69413000  0.28703000  1.0 0.1040611573
H  H190  1  0.89603000  0.86747000  0.55877000  1.0 0.0699584305
H  H191  1  0.56270000  0.20080000  0.89210000  1.0 0.0699584305
H  H192  1  0.22937000  0.53413000  0.22543000  1.0 0.0699584305
H  H193  1  0.89117000  0.89493000  0.53603000  1.0 0.0699584305
H  H194  1  0.55783000  0.22827000  0.86937000  1.0 0.0699584305
H  H195  1  0.22450000  0.56160000  0.20270000  1.0 0.0699584305
H  H196  1  0.93593000  0.96937000  0.64257000  1.0 0.0699584305
H  H197  1  0.60260000  0.30270000  0.97590000  1.0 0.0699584305
H  H198  1  0.26927000  0.63603000  0.30923000  1.0 0.0699584305
H  H199  1  0.86980000  0.91680000  0.51140000  1.0 0.129020889
H  H200  1  0.53647000  0.25013000  0.84473000  1.0 0.129020889
H  H201  1  0.20313000  0.58347000  0.17807000  1.0 0.129020889
H  H202  1  0.95457000  0.94703000  0.67063000  1.0 0.0797036034
H  H203  1  0.62123000  0.28037000  0.00397000  1.0 0.0797036034
H  H204  1  0.28790000  0.61370000  0.33730000  1.0 0.0797036034
H  H205  1  0.91233000  0.97937000  0.62207000  1.0 0.0699584305
H  H206  1  0.57900000  0.31270000  0.95540000  1.0 0.0699584305
H  H207  1  0.24567000  0.64603000  0.28873000  1.0 0.0699584305
H  H208  1  0.89177000  0.00193000  0.59483000  1.0 0.1090753844
H  H209  1  0.55843000  0.33527000  0.92817000  1.0 0.1090753844
H  H210  1  0.22510000  0.66860000  0.26150000  1.0 0.1090753844
H  H211  1  0.77457000  0.00393000  0.69523000  1.0 0.0699584305
H  H212  1  0.44123000  0.33727000  0.02857000  1.0 0.0699584305
H  H213  1  0.10790000  0.67060000  0.36190000  1.0 0.0699584305
H  H214  1  0.79730000  0.02180000  0.66290000  1.0 0.0797036034
H  H215  1  0.46397000  0.35513000  0.99623000  1.0 0.0797036034
H  H216  1  0.13063000  0.68847000  0.32957000  1.0 0.0699584305
H  H217  1  0.69077000  0.96003000  0.63323000  1.0 0.0621849741
H  H218  1  0.35743000  0.29337000  0.96657000  1.0 0.0621849741
H  H219  1  0.02410000  0.62670000  0.29990000  1.0 0.0621849741
H  H220  1  0.82193000  0.02507000  0.61967000  1.0 0.0893416677
H  H221  1  0.48860000  0.35840000  0.95300000  1.0 0.0893416677
H  H222  1  0.15527000  0.69173000  0.28633000  1.0 0.0893416677
H  H223  1  0.66270000  0.95060000  0.67420000  1.0 0.0699584305
H  H224  1  0.32937000  0.28393000  0.00753000  1.0 0.0699584305
H  H225  1  0.99603000  0.61727000  0.34087000  1.0 0.0699584305
H  H226  1  0.71127000  0.95693000  0.59963000  1.0 0.0699584305
H  H227  1  0.37793000  0.29027000  0.93297000  1.0 0.0699584305
H  H228  1  0.04460000  0.62360000  0.26630000  1.0 0.0699584305
H  H229  1  0.73850000  0.96360000  0.55650000  1.0 0.1228218732
H  H230  1  0.40517000  0.29693000  0.88983000  1.0 0.1228218732
H  H231  1  0.07183000  0.63027000  0.22317000  1.0 0.1228218732
H  H232  1  0.63810000  0.74600000  0.43730000  1.0 0.0699584305
H  H233  1  0.30477000  0.07933000  0.77063000  1.0 0.0699584305
H  H234  1  0.97143000  0.41267000  0.10397000  1.0 0.0699584305
H  H235  1  0.67043000  0.80107000  0.44217000  1.0 0.0699584305
H  H236  1  0.33710000  0.13440000  0.77550000  1.0 0.0699584305
H  H237  1  0.00377000  0.46773000  0.10883000  1.0 0.0699584305
H  H238  1  0.70010000  0.72420000  0.39740000  1.0 0.0893416677
H  H239  1  0.36677000  0.05753000  0.73073000  1.0 0.0893416677
H  H240  1  0.03343000  0.39087000  0.06407000  1.0 0.0893416677
H  H241  1  0.71367000  0.86893000  0.46353000  1.0 0.1090753844
H  H242  1  0.38033000  0.20227000  0.79687000  1.0 0.1090753844
H  H243  1  0.04700000  0.53560000  0.13020000  1.0 0.1090753844
H  H244  1  0.65913000  0.65517000  0.37877000  1.0 0.0893416677
H  H245  1  0.32580000  0.98850000  0.71210000  1.0 0.0893416677
H  H246  1  0.99247000  0.32183000  0.04543000  1.0 0.0797036034
H  H247  1  0.73370000  0.77830000  0.42100000  1.0 0.0621849741
H  H248  1  0.40037000  0.11163000  0.75433000  1.0 0.0621849741
H  H249  1  0.06703000  0.44497000  0.08767000  1.0 0.0621849741
H  H250  1  0.77683000  0.84867000  0.44157000  1.0 0.1040611573
H  H251  1  0.44350000  0.18200000  0.77490000  1.0 0.1040611573
H  H252  1  0.11017000  0.51533000  0.10823000  1.0 0.1040611573
H  H253  1  0.39603000  0.33727000  0.52857000  1.0 0.0699584305
H  H254  1  0.06270000  0.67060000  0.86190000  1.0 0.0699584305
H  H255  1  0.72937000  0.00393000  0.19523000  1.0 0.0699584305
H  H256  1  0.39117000  0.35513000  0.49623000  1.0 0.0797036034
H  H257  1  0.05783000  0.68847000  0.82957000  1.0 0.0797036034
H  H258  1  0.72450000  0.02180000  0.16290000  1.0 0.0797036034
H  H259  1  0.43593000  0.29337000  0.46657000  1.0 0.0621849741
H  H260  1  0.10260000  0.62670000  0.79990000  1.0 0.0621849741
H  H261  1  0.76927000  0.96003000  0.13323000  1.0 0.0621849741
H  H262  1  0.36980000  0.35840000  0.45300000  1.0 0.0893416677
H  H263  1  0.03647000  0.69173000  0.78633000  1.0 0.0893416677
H  H264  1  0.70313000  0.02507000  0.11967000  1.0 0.0893416677
H  H265  1  0.45457000  0.28393000  0.50753000  1.0 0.0699584305
H  H266  1  0.12123000  0.61727000  0.84087000  1.0 0.0699584305
H  H267  1  0.78790000  0.95060000  0.17420000  1.0 0.0699584305
H  H268  1  0.41233000  0.29027000  0.43297000  1.0 0.0699584305
H  H269  1  0.07900000  0.62360000  0.76630000  1.0 0.0699584305
H  H270  1  0.74567000  0.95693000  0.09963000  1.0 0.0699584305
H  H271  1  0.39177000  0.29693000  0.38983000  1.0 0.1228218732
H  H272  1  0.05843000  0.63027000  0.72317000  1.0 0.1228218732
H  H273  1  0.72510000  0.96360000  0.05650000  1.0 0.1228218732
H  H274  1  0.27457000  0.07933000  0.27063000  1.0 0.0699584305
H  H275  1  0.94123000  0.41267000  0.60397000  1.0 0.0699584305
H  H276  1  0.60790000  0.74600000  0.93730000  1.0 0.0699584305
H  H277  1  0.29730000  0.13440000  0.27550000  1.0 0.0699584305
H  H278  1  0.96397000  0.46773000  0.60883000  1.0 0.0699584305
H  H279  1  0.63063000  0.80107000  0.94217000  1.0 0.0699584305
H  H280  1  0.19077000  0.05753000  0.23073000  1.0 0.0893416677
H  H281  1  0.85743000  0.39087000  0.56407000  1.0 0.0893416677
H  H282  1  0.52410000  0.72420000  0.89740000  1.0 0.0893416677
H  H283  1  0.32193000  0.20227000  0.29687000  1.0 0.1090753844
H  H284  1  0.98860000  0.53560000  0.63020000  1.0 0.1090753844
H  H285  1  0.65527000  0.86893000  0.96353000  1.0 0.1090753844
H  H286  1  0.16270000  0.98850000  0.21210000  1.0 0.0893416677
H  H287  1  0.82937000  0.32183000  0.54543000  1.0 0.0797036034
H  H288  1  0.49603000  0.65517000  0.87877000  1.0 0.0893416677
H  H289  1  0.21127000  0.11163000  0.25433000  1.0 0.0621849741
H  H290  1  0.87793000  0.44497000  0.58767000  1.0 0.0621849741
H  H291  1  0.54460000  0.77830000  0.92100000  1.0 0.0621849741
H  H292  1  0.23850000  0.18200000  0.27490000  1.0 0.1040611573
H  H293  1  0.90517000  0.51533000  0.60823000  1.0 0.1040611573
H  H294  1  0.57183000  0.84867000  0.94157000  1.0 0.1040611573
H  H295  1  0.13810000  0.20080000  0.39210000  1.0 0.0699584305
H  H296  1  0.80477000  0.53413000  0.72543000  1.0 0.0699584305
H  H297  1  0.47143000  0.86747000  0.05877000  1.0 0.0699584305
H  H298  1  0.17043000  0.22827000  0.36937000  1.0 0.0699584305
H  H299  1  0.83710000  0.56160000  0.70270000  1.0 0.0699584305
H  H300  1  0.50377000  0.89493000  0.03603000  1.0 0.0699584305
H  H301  1  0.20010000  0.30270000  0.47590000  1.0 0.0699584305
H  H302  1  0.86677000  0.63603000  0.80923000  1.0 0.0699584305
H  H303  1  0.53343000  0.96937000  0.14257000  1.0 0.0699584305
H  H304  1  0.21367000  0.25013000  0.34473000  1.0 0.129020889
H  H305  1  0.88033000  0.58347000  0.67807000  1.0 0.129020889
H  H306  1  0.54700000  0.91680000  0.01140000  1.0 0.129020889
H  H307  1  0.15913000  0.28037000  0.50397000  1.0 0.0797036034
H  H308  1  0.82580000  0.61370000  0.83730000  1.0 0.0797036034
H  H309  1  0.49247000  0.94703000  0.17063000  1.0 0.0797036034
H  H310  1  0.23370000  0.31270000  0.45540000  1.0 0.0699584305
H  H311  1  0.90037000  0.64603000  0.78873000  1.0 0.0699584305
H  H312  1  0.56703000  0.97937000  0.12207000  1.0 0.0699584305
H  H313  1  0.27683000  0.33527000  0.42817000  1.0 0.1090753844
H  H314  1  0.94350000  0.66860000  0.76150000  1.0 0.1090753844
H  H315  1  0.61017000  0.00193000  0.09483000  1.0 0.1090753844
H  H316  1  0.80977000  0.07433000  0.26563000  1.0 0.0699584305
H  H317  1  0.47643000  0.40767000  0.59897000  1.0 0.0699584305
H  H318  1  0.14310000  0.74100000  0.93230000  1.0 0.0699584305
H  H319  1  0.84810000  0.12340000  0.26450000  1.0 0.0797036034
H  H320  1  0.51477000  0.45673000  0.59783000  1.0 0.0797036034
H  H321  1  0.18143000  0.79007000  0.93117000  1.0 0.0699584305
H  H322  1  0.78193000  0.14237000  0.31557000  1.0 0.0621849741
H  H323  1  0.44860000  0.47570000  0.64890000  1.0 0.0621849741
H  H324  1  0.11527000  0.80903000  0.98223000  1.0 0.0621849741
H  H325  1  0.90047000  0.18213000  0.27673000  1.0 0.0893416677
H  H326  1  0.56713000  0.51547000  0.61007000  1.0 0.0893416677
H  H327  1  0.23380000  0.84880000  0.94340000  1.0 0.0893416677
H  H328  1  0.72970000  0.08460000  0.30820000  1.0 0.0699584305
H  H329  1  0.39637000  0.41793000  0.64153000  1.0 0.0699584305
H  H330  1  0.06303000  0.75127000  0.97487000  1.0 0.0699584305
H  H331  1  0.82587000  0.18613000  0.32883000  1.0 0.0699584305
H  H332  1  0.49253000  0.51947000  0.66217000  1.0 0.0699584305
H  H333  1  0.15920000  0.85280000  0.99550000  1.0 0.0699584305
H  H334  1  0.87963000  0.24587000  0.33877000  1.0 0.1228218732
H  H335  1  0.54630000  0.57920000  0.67210000  1.0 0.1228218732
H  H336  1  0.21297000  0.91253000  0.00543000  1.0 0.1228218732
H  H337  1  0.93123000  0.33227000  0.52357000  1.0 0.0699584305
H  H338  1  0.59790000  0.66560000  0.85690000  1.0 0.0699584305
H  H339  1  0.26457000  0.99893000  0.19023000  1.0 0.0699584305
H  H340  1  0.94197000  0.34413000  0.48523000  1.0 0.0699584305
H  H341  1  0.60863000  0.67747000  0.81857000  1.0 0.0699584305
H  H342  1  0.27530000  0.01080000  0.15190000  1.0 0.0699584305
H  H343  1  0.02710000  0.37820000  0.55140000  1.0 0.0893416677
H  H344  1  0.69377000  0.71153000  0.88473000  1.0 0.0893416677
H  H345  1  0.36043000  0.04487000  0.21807000  1.0 0.0893416677
H  H346  1  0.94833000  0.33827000  0.43287000  1.0 0.1090753844
H  H347  1  0.61500000  0.67160000  0.76620000  1.0 0.1090753844
H  H348  1  0.28167000  0.00493000  0.09953000  1.0 0.1090753844
H  H349  1  0.02157000  0.38003000  0.60363000  1.0 0.0893416677
H  H350  1  0.68823000  0.71337000  0.93697000  1.0 0.0893416677
H  H351  1  0.35490000  0.04670000  0.27030000  1.0 0.0893416677
H  H352  1  0.02693000  0.36477000  0.50747000  1.0 0.0621849741
H  H353  1  0.69360000  0.69810000  0.84080000  1.0 0.0621849741
H  H354  1  0.36027000  0.03143000  0.17413000  1.0 0.0621849741
H  H355  1  0.03290000  0.36080000  0.45370000  1.0 0.1040611573
H  H356  1  0.69957000  0.69413000  0.78703000  1.0 0.1040611573
H  H357  1  0.36623000  0.02747000  0.12037000  1.0 0.1040611573
H  H358  1  0.06770000  0.21080000  0.40210000  1.0 0.0699584305
H  H359  1  0.73437000  0.54413000  0.73543000  1.0 0.0699584305
H  H360  1  0.40103000  0.87747000  0.06877000  1.0 0.0699584305
H  H361  1  0.06883000  0.25027000  0.39137000  1.0 0.0699584305
H  H362  1  0.73550000  0.58360000  0.72470000  1.0 0.0699584305
H  H363  1  0.40217000  0.91693000  0.05803000  1.0 0.0699584305
H  H364  1  0.01777000  0.13303000  0.30623000  1.0 0.0699584305
H  H365  1  0.68443000  0.46637000  0.63957000  1.0 0.0699584305
H  H366  1  0.35110000  0.79970000  0.97290000  1.0 0.0699584305
H  H367  1  0.05660000  0.29040000  0.38500000  1.0 0.129020889
H  H368  1  0.72327000  0.62373000  0.71833000  1.0 0.129020889
H  H369  1  0.38993000  0.95707000  0.05167000  1.0 0.129020889
H  H370  1  0.02513000  0.08817000  0.31177000  1.0 0.0797036034
H  H371  1  0.69180000  0.42150000  0.64510000  1.0 0.0797036034
H  H372  1  0.35847000  0.75483000  0.97843000  1.0 0.0797036034
H  H373  1  0.00450000  0.16370000  0.30640000  1.0 0.0699584305
H  H374  1  0.67117000  0.49703000  0.63973000  1.0 0.0699584305
H  H375  1  0.33783000  0.83037000  0.97307000  1.0 0.0699584305
H  H376  1  0.99457000  0.20753000  0.30043000  1.0 0.1090753844
H  H377  1  0.66123000  0.54087000  0.63377000  1.0 0.1090753844
H  H378  1  0.32790000  0.87420000  0.96710000  1.0 0.1090753844
H  H379  1  0.02357000  0.12253000  0.43123000  1.0 0.0699584305
H  H380  1  0.69023000  0.45587000  0.76457000  1.0 0.0699584305
H  H381  1  0.35690000  0.78920000  0.09790000  1.0 0.0699584305
H  H382  1  0.98523000  0.08307000  0.44197000  1.0 0.0699584305
H  H383  1  0.65190000  0.41640000  0.77530000  1.0 0.0699584305
H  H384  1  0.31857000  0.74973000  0.10863000  1.0 0.0699584305
H  H385  1  0.05140000  0.20030000  0.52710000  1.0 0.0699584305
H  H386  1  0.71807000  0.53363000  0.86043000  1.0 0.0699584305
H  H387  1  0.38473000  0.86697000  0.19377000  1.0 0.0699584305
H  H388  1  0.93287000  0.04293000  0.44833000  1.0 0.129020889
H  H389  1  0.59953000  0.37627000  0.78167000  1.0 0.129020889
H  H390  1  0.26620000  0.70960000  0.11500000  1.0 0.129020889
H  H391  1  0.10363000  0.24517000  0.52157000  1.0 0.0797036034
H  H392  1  0.77030000  0.57850000  0.85490000  1.0 0.0797036034
H  H393  1  0.43697000  0.91183000  0.18823000  1.0 0.0797036034
H  H394  1  0.00747000  0.16963000  0.52693000  1.0 0.0699584305
H  H395  1  0.67413000  0.50297000  0.86027000  1.0 0.0699584305
H  H396  1  0.34080000  0.83630000  0.19360000  1.0 0.0699584305
H  H397  1  0.95370000  0.12580000  0.53290000  1.0 0.1090753844
H  H398  1  0.62037000  0.45913000  0.86623000  1.0 0.1090753844
H  H399  1  0.28703000  0.79247000  0.19957000  1.0 0.1090753844
H  H400  1  0.90210000  0.25900000  0.56770000  1.0 0.0699584305
H  H401  1  0.56877000  0.59233000  0.90103000  1.0 0.0699584305
H  H402  1  0.23543000  0.92567000  0.23437000  1.0 0.0699584305
H  H403  1  0.89137000  0.20993000  0.56883000  1.0 0.0699584305
H  H404  1  0.55803000  0.54327000  0.90217000  1.0 0.0699584305
H  H405  1  0.22470000  0.87660000  0.23550000  1.0 0.0797036034
H  H406  1  0.80623000  0.19097000  0.51777000  1.0 0.0621849741
H  H407  1  0.47290000  0.52430000  0.85110000  1.0 0.0621849741
H  H408  1  0.13957000  0.85763000  0.18443000  1.0 0.0621849741
H  H409  1  0.88500000  0.15120000  0.55660000  1.0 0.0893416677
H  H410  1  0.55167000  0.48453000  0.88993000  1.0 0.0893416677
H  H411  1  0.21833000  0.81787000  0.22327000  1.0 0.0893416677
H  H412  1  0.81177000  0.24873000  0.52513000  1.0 0.0699584305
H  H413  1  0.47843000  0.58207000  0.85847000  1.0 0.0699584305
H  H414  1  0.14510000  0.91540000  0.19180000  1.0 0.0699584305
H  H415  1  0.80640000  0.14720000  0.50450000  1.0 0.0699584305
H  H416  1  0.47307000  0.48053000  0.83783000  1.0 0.0699584305
H  H417  1  0.13973000  0.81387000  0.17117000  1.0 0.0699584305
H  H418  1  0.80043000  0.08747000  0.49457000  1.0 0.1228218732
H  H419  1  0.46710000  0.42080000  0.82790000  1.0 0.1228218732
H  H420  1  0.13377000  0.75413000  0.16123000  1.0 0.1228218732
H  H421  1  0.76563000  0.00107000  0.30977000  1.0 0.0699584305
H  H422  1  0.43230000  0.33440000  0.64310000  1.0 0.0699584305
H  H423  1  0.09897000  0.66773000  0.97643000  1.0 0.0699584305
H  H424  1  0.76450000  0.98920000  0.34810000  1.0 0.0699584305
H  H425  1  0.43117000  0.32253000  0.68143000  1.0 0.0699584305
H  H426  1  0.09783000  0.65587000  0.01477000  1.0 0.0699584305
H  H427  1  0.81557000  0.95513000  0.28193000  1.0 0.0893416677
H  H428  1  0.48223000  0.28847000  0.61527000  1.0 0.0893416677
H  H429  1  0.14890000  0.62180000  0.94860000  1.0 0.0893416677
H  H430  1  0.77673000  0.99507000  0.40047000  1.0 0.1090753844
H  H431  1  0.44340000  0.32840000  0.73380000  1.0 0.1090753844
H  H432  1  0.11007000  0.66173000  0.06713000  1.0 0.1090753844
H  H433  1  0.80820000  0.95330000  0.22970000  1.0 0.0797036034
H  H434  1  0.47487000  0.28663000  0.56303000  1.0 0.0893416677
H  H435  1  0.14153000  0.61997000  0.89637000  1.0 0.0893416677
H  H436  1  0.82883000  0.96857000  0.32587000  1.0 0.0621849741
H  H437  1  0.49550000  0.30190000  0.65920000  1.0 0.0621849741
H  H438  1  0.16217000  0.63523000  0.99253000  1.0 0.0621849741
H  H439  1  0.83877000  0.97253000  0.37963000  1.0 0.1040611573
H  H440  1  0.50543000  0.30587000  0.71297000  1.0 0.1040611573
H  H441  1  0.17210000  0.63920000  0.04630000  1.0 0.1040611573
H  H442  1  0.10397000  0.13253000  0.44123000  1.0 0.0699584305
H  H443  1  0.77063000  0.46587000  0.77457000  1.0 0.0699584305
H  H444  1  0.43730000  0.79920000  0.10790000  1.0 0.0699584305
H  H445  1  0.10883000  0.10507000  0.46397000  1.0 0.0699584305
H  H446  1  0.77550000  0.43840000  0.79730000  1.0 0.0699584305
H  H447  1  0.44217000  0.77173000  0.13063000  1.0 0.0699584305
H  H448  1  0.06407000  0.03063000  0.35743000  1.0 0.0699584305
H  H449  1  0.73073000  0.36397000  0.69077000  1.0 0.0699584305
H  H450  1  0.39740000  0.69730000  0.02410000  1.0 0.0699584305
H  H451  1  0.13020000  0.08320000  0.48860000  1.0 0.129020889
H  H452  1  0.79687000  0.41653000  0.82193000  1.0 0.129020889
H  H453  1  0.46353000  0.74987000  0.15527000  1.0 0.129020889
H  H454  1  0.04543000  0.05297000  0.32937000  1.0 0.0797036034
H  H455  1  0.71210000  0.38630000  0.66270000  1.0 0.0797036034
H  H456  1  0.37877000  0.71963000  0.99603000  1.0 0.0797036034
H  H457  1  0.08767000  0.02063000  0.37793000  1.0 0.0699584305
H  H458  1  0.75433000  0.35397000  0.71127000  1.0 0.0699584305
H  H459  1  0.42100000  0.68730000  0.04460000  1.0 0.0699584305
H  H460  1  0.10823000  0.99807000  0.40517000  1.0 0.1090753844
H  H461  1  0.77490000  0.33140000  0.73850000  1.0 0.1090753844
H  H462  1  0.44157000  0.66473000  0.07183000  1.0 0.1090753844
H  H463  1  0.22543000  0.99607000  0.30477000  1.0 0.0699584305
H  H464  1  0.89210000  0.32940000  0.63810000  1.0 0.0699584305
H  H465  1  0.55877000  0.66273000  0.97143000  1.0 0.0699584305
H  H466  1  0.20270000  0.97820000  0.33710000  1.0 0.0699584305
H  H467  1  0.86937000  0.31153000  0.67043000  1.0 0.0699584305
H  H468  1  0.53603000  0.64487000  0.00377000  1.0 0.0797036034
H  H469  1  0.30923000  0.03997000  0.36677000  1.0 0.0621849741
H  H470  1  0.97590000  0.37330000  0.70010000  1.0 0.0621849741
H  H471  1  0.64257000  0.70663000  0.03343000  1.0 0.0621849741
H  H472  1  0.17807000  0.97493000  0.38033000  1.0 0.0893416677
H  H473  1  0.84473000  0.30827000  0.71367000  1.0 0.0893416677
H  H474  1  0.51140000  0.64160000  0.04700000  1.0 0.0893416677
H  H475  1  0.33730000  0.04940000  0.32580000  1.0 0.0699584305
H  H476  1  0.00397000  0.38273000  0.65913000  1.0 0.0699584305
H  H477  1  0.67063000  0.71607000  0.99247000  1.0 0.0699584305
H  H478  1  0.28873000  0.04307000  0.40037000  1.0 0.0699584305
H  H479  1  0.95540000  0.37640000  0.73370000  1.0 0.0699584305
H  H480  1  0.62207000  0.70973000  0.06703000  1.0 0.0699584305
H  H481  1  0.26150000  0.03640000  0.44350000  1.0 0.1228218732
H  H482  1  0.92817000  0.36973000  0.77683000  1.0 0.1228218732
H  H483  1  0.59483000  0.70307000  0.11017000  1.0 0.1228218732
H  H484  1  0.36190000  0.25400000  0.56270000  1.0 0.0699584305
H  H485  1  0.02857000  0.58733000  0.89603000  1.0 0.0699584305
H  H486  1  0.69523000  0.92067000  0.22937000  1.0 0.0699584305
H  H487  1  0.32957000  0.19893000  0.55783000  1.0 0.0699584305
H  H488  1  0.99623000  0.53227000  0.89117000  1.0 0.0699584305
H  H489  1  0.66290000  0.86560000  0.22450000  1.0 0.0699584305
H  H490  1  0.29990000  0.27580000  0.60260000  1.0 0.0893416677
H  H491  1  0.96657000  0.60913000  0.93593000  1.0 0.0893416677
H  H492  1  0.63323000  0.94247000  0.26927000  1.0 0.0893416677
H  H493  1  0.28633000  0.13107000  0.53647000  1.0 0.1090753844
H  H494  1  0.95300000  0.46440000  0.86980000  1.0 0.1090753844
H  H495  1  0.61967000  0.79773000  0.20313000  1.0 0.1090753844
H  H496  1  0.34087000  0.34483000  0.62123000  1.0 0.0893416677
H  H497  1  0.00753000  0.67817000  0.95457000  1.0 0.0893416677
H  H498  1  0.67420000  0.01150000  0.28790000  1.0 0.0797036034
H  H499  1  0.26630000  0.22170000  0.57900000  1.0 0.0621849741
H  H500  1  0.93297000  0.55503000  0.91233000  1.0 0.0621849741
H  H501  1  0.59963000  0.88837000  0.24567000  1.0 0.0621849741
H  H502  1  0.22317000  0.15133000  0.55843000  1.0 0.1040611573
H  H503  1  0.88983000  0.48467000  0.89177000  1.0 0.1040611573
H  H504  1  0.55650000  0.81800000  0.22510000  1.0 0.1040611573
C  C1  1  0.59750000  0.67850000  0.53200000  1.0 -0.1402045911
C  C2  1  0.26417000  0.01183000  0.86533000  1.0 -0.1402045911
C  C3  1  0.93083000  0.34517000  0.19867000  1.0 -0.1402045911
C  C4  1  0.61740000  0.66840000  0.58320000  1.0 -0.0591042614
C  C5  1  0.28407000  0.00173000  0.91653000  1.0 -0.0591042614
C  C6  1  0.95073000  0.33507000  0.24987000  1.0 -0.0503065531
C  C7  1  0.56373000  0.69175000  0.45727000  1.0 -0.0099780654
C  C8  1  0.23039000  0.02509000  0.79061000  1.0 -0.0099780654
C  C9  1  0.89706000  0.35842000  0.12394000  1.0 -0.0099780654
C  C10  1  0.58054000  0.67748000  0.45066000  1.0 -0.0099780654
C  C11  1  0.24721000  0.01081000  0.78399000  1.0 -0.0099780654
C  C12  1  0.91387000  0.34415000  0.11733000  1.0 -0.0099780654
C  C13  1  0.58647000  0.68573000  0.50663000  1.0 -0.1000153185
C  C14  1  0.25313000  0.01907000  0.83997000  1.0 -0.1000153185
C  C15  1  0.91980000  0.35240000  0.17330000  1.0 -0.1000153185
C  C16  1  0.59217000  0.67365000  0.47553000  1.0 -0.0099780654
C  C17  1  0.25884000  0.00698000  0.80886000  1.0 -0.0099780654
C  C18  1  0.92551000  0.34031000  0.14219000  1.0 -0.0099780654
C  C19  1  0.60840000  0.65780000  0.52560000  1.0 -0.1402045911
C  C20  1  0.27507000  0.99113000  0.85893000  1.0 -0.1402045911
C  C21  1  0.94173000  0.32447000  0.19227000  1.0 -0.1402045911
C  C22  1  0.56873000  0.69997000  0.51277000  1.0 -0.1511640858
C  C23  1  0.23540000  0.03330000  0.84610000  1.0 -0.1570908766
C  C24  1  0.90207000  0.36663000  0.17943000  1.0 -0.1511640858
C  C25  1  0.61997000  0.65453000  0.55183000  1.0 -0.0912571106
C  C26  1  0.28663000  0.98787000  0.88517000  1.0 -0.0912571106
C  C27  1  0.95330000  0.32120000  0.21850000  1.0 -0.0912571106
C  C28  1  0.55703000  0.70487000  0.48847000  1.0 -0.1000153185
C  C29  1  0.22370000  0.03820000  0.82180000  1.0 -0.1000153185
C  C30  1  0.89037000  0.37153000  0.15513000  1.0 -0.1000153185
C  C31  1  0.62840000  0.66010000  0.60960000  1.0 0.020761226
C  C32  1  0.29507000  0.99343000  0.94293000  1.0 0.020761226
C  C33  1  0.96173000  0.32677000  0.27627000  1.0 0.020761226
C  C34  1  0.59603000  0.69477000  0.56197000  1.0 -0.1570908766
C  C35  1  0.26270000  0.02810000  0.89530000  1.0 -0.1570908766
C  C36  1  0.92937000  0.36143000  0.22863000  1.0 -0.1570908766
C  C37  1  0.60793000  0.68947000  0.58827000  1.0 -0.1000153185
C  C38  1  0.27460000  0.02280000  0.92160000  1.0 -0.1000153185
C  C39  1  0.94127000  0.35613000  0.25493000  1.0 -0.1000153185
C  C40  1  0.74767000  0.88233000  0.73583000  1.0 -0.0912571106
C  C41  1  0.41433000  0.21567000  0.06917000  1.0 -0.0912571106
C  C42  1  0.08100000  0.54900000  0.40250000  1.0 -0.0912571106
C  C43  1  0.71767000  0.80113000  0.71593000  1.0 -0.0503065531
C  C44  1  0.38433000  0.13447000  0.04927000  1.0 -0.0503065531
C  C45  1  0.05100000  0.46780000  0.38260000  1.0 -0.0503065531
C  C46  1  0.79469000  0.00409000  0.76961000  1.0 -0.0184974533
C  C47  1  0.46136000  0.33742000  0.10294000  1.0 -0.0184974533
C  C48  1  0.12803000  0.67075000  0.43627000  1.0 -0.0184974533
C  C49  1  0.76361000  0.97961000  0.75279000  1.0 0.0020346547
C  C50  1  0.43027000  0.31295000  0.08613000  1.0 0.0020346547
C  C51  1  0.09694000  0.64628000  0.41946000  1.0 0.0020346547
C  C52  1  0.76593000  0.92597000  0.74687000  1.0 -0.0285564681
C  C53  1  0.43260000  0.25930000  0.08020000  1.0 -0.0285564681
C  C54  1  0.09927000  0.59263000  0.41353000  1.0 -0.0285564681
C  C55  1  0.74814000  0.93928000  0.74116000  1.0 0.020761226
C  C56  1  0.41481000  0.27261000  0.07449000  1.0 0.0144092541
C  C57  1  0.08147000  0.60595000  0.40783000  1.0 0.0144092541
C  C58  1  0.71607000  0.85713000  0.72493000  1.0 -0.1206271962
C  C59  1  0.38273000  0.19047000  0.05827000  1.0 -0.1206271962
C  C60  1  0.04940000  0.52380000  0.39160000  1.0 -0.1206271962
C  C61  1  0.79790000  0.95180000  0.76460000  1.0 -0.0713749157
C  C62  1  0.46457000  0.28513000  0.09793000  1.0 -0.0713749157
C  C63  1  0.13123000  0.61847000  0.43127000  1.0 -0.0713749157
C  C64  1  0.70123000  0.81607000  0.71337000  1.0 -0.0503065531
C  C65  1  0.36790000  0.14940000  0.04670000  1.0 -0.0503065531
C  C66  1  0.03457000  0.48273000  0.38003000  1.0 -0.0503065531
C  C67  1  0.81450000  0.99270000  0.77630000  1.0 -0.0503065531
C  C68  1  0.48117000  0.32603000  0.10963000  1.0 -0.0591042614
C  C69  1  0.14783000  0.65937000  0.44297000  1.0 -0.0591042614
C  C70  1  0.69837000  0.75543000  0.70493000  1.0 -0.0184974533
C  C71  1  0.36503000  0.08877000  0.03827000  1.0 -0.0184974533
C  C72  1  0.03170000  0.42210000  0.37160000  1.0 -0.0184974533
C  C73  1  0.76540000  0.87010000  0.73730000  1.0 -0.1206271962
C  C74  1  0.43207000  0.20343000  0.07063000  1.0 -0.1206271962
C  C75  1  0.09873000  0.53677000  0.40397000  1.0 -0.1206271962
C  C76  1  0.74820000  0.82660000  0.72540000  1.0 -0.0713749157
C  C77  1  0.41487000  0.15993000  0.05873000  1.0 -0.0713749157
C  C78  1  0.08153000  0.49327000  0.39207000  1.0 -0.0713749157
C  C79  1  0.80133000  0.73217000  0.58567000  1.0 -0.1402045911
C  C80  1  0.46800000  0.06550000  0.91900000  1.0 -0.1402045911
C  C81  1  0.13467000  0.39883000  0.25233000  1.0 -0.1402045911
C  C82  1  0.75013000  0.70087000  0.61567000  1.0 -0.0503065531
C  C83  1  0.41680000  0.03420000  0.94900000  1.0 -0.0503065531
C  C84  1  0.08347000  0.36753000  0.28233000  1.0 -0.0503065531
C  C85  1  0.87606000  0.77312000  0.53864000  1.0 -0.0591042614
C  C86  1  0.54273000  0.10645000  0.87197000  1.0 -0.0591042614
C  C87  1  0.20939000  0.43979000  0.20531000  1.0 -0.0591042614
C  C88  1  0.88267000  0.79655000  0.56973000  1.0 0.0020346547
C  C89  1  0.54934000  0.12988000  0.90306000  1.0 0.0020346547
C  C90  1  0.21601000  0.46321000  0.23639000  1.0 0.0020346547
C  C91  1  0.82670000  0.74650000  0.56740000  1.0 -0.1000153185
C  C92  1  0.49337000  0.07983000  0.90073000  1.0 -0.1000153185
C  C93  1  0.16003000  0.41317000  0.23407000  1.0 -0.1000153185
C  C94  1  0.85781000  0.78331000  0.58519000  1.0 -0.0285564681
C  C95  1  0.52447000  0.11665000  0.91853000  1.0 -0.0285564681
C  C96  1  0.19114000  0.44998000  0.25186000  1.0 -0.0285564681
C  C97  1  0.80773000  0.74947000  0.61727000  1.0 -0.1206271962
C  C98  1  0.47440000  0.08280000  0.95060000  1.0 -0.1206271962
C  C99  1  0.14107000  0.41613000  0.28393000  1.0 -0.1206271962
C  C100  1  0.82057000  0.72263000  0.53543000  1.0 -0.1511640858
C  C101  1  0.48723000  0.05597000  0.86877000  1.0 -0.1511640858
C  C102  1  0.15390000  0.38930000  0.20210000  1.0 -0.1511640858
C  C103  1  0.78150000  0.73480000  0.63210000  1.0 -0.0912571106
C  C104  1  0.44817000  0.06813000  0.96543000  1.0 -0.0912571106
C  C105  1  0.11483000  0.40147000  0.29877000  1.0 -0.0912571106
C  C106  1  0.84487000  0.73523000  0.51883000  1.0 -0.1402045911
C  C107  1  0.51153000  0.06857000  0.85217000  1.0 -0.1402045911
C  C108  1  0.17820000  0.40190000  0.18550000  1.0 -0.1402045911
C  C109  1  0.72373000  0.68547000  0.63497000  1.0 0.0368111459
C  C110  1  0.39040000  0.01880000  0.96830000  1.0 0.0323840369
C  C111  1  0.05707000  0.35213000  0.30163000  1.0 0.0368111459
C  C112  1  0.77137000  0.70073000  0.56793000  1.0 -0.1402045911
C  C113  1  0.43803000  0.03407000  0.90127000  1.0 -0.1402045911
C  C114  1  0.10470000  0.36740000  0.23460000  1.0 -0.1402045911
C  C115  1  0.74507000  0.68633000  0.58513000  1.0 -0.0912571106
C  C116  1  0.41173000  0.01967000  0.91847000  1.0 -0.0912571106
C  C117  1  0.07840000  0.35300000  0.25180000  1.0 -0.0912571106
C  C118  1  0.16683000  0.85017000  0.70367000  1.0 -0.1402045911
C  C119  1  0.83350000  0.18350000  0.03700000  1.0 -0.1402045911
C  C120  1  0.50017000  0.51683000  0.37033000  1.0 -0.1402045911
C  C121  1  0.10607000  0.77853000  0.69333000  1.0 -0.0591042614
C  C122  1  0.77273000  0.11187000  0.02667000  1.0 -0.0591042614
C  C123  1  0.43940000  0.44520000  0.36000000  1.0 -0.0591042614
C  C124  1  0.25926000  0.95422000  0.71974000  1.0 -0.0099780654
C  C125  1  0.92593000  0.28755000  0.05307000  1.0 -0.0099780654
C  C126  1  0.59259000  0.62089000  0.38641000  1.0 -0.0099780654
C  C127  1  0.23734000  0.95828000  0.73146000  1.0 -0.0099780654
C  C128  1  0.90401000  0.29161000  0.06479000  1.0 -0.0099780654
C  C129  1  0.57067000  0.62495000  0.39813000  1.0 -0.0099780654
C  C130  1  0.19960000  0.88640000  0.70730000  1.0 -0.1000153185
C  C131  1  0.86627000  0.21973000  0.04063000  1.0 -0.1000153185
C  C132  1  0.53293000  0.55307000  0.37397000  1.0 -0.1000153185
C  C133  1  0.20657000  0.92385000  0.72573000  1.0 -0.0099780654
C  C134  1  0.87324000  0.25718000  0.05906000  1.0 -0.0099780654
C  C135  1  0.53991000  0.59051000  0.39239000  1.0 -0.0099780654
C  C136  1  0.14640000  0.85180000  0.71960000  1.0 -0.1402045911
C  C137  1  0.81307000  0.18513000  0.05293000  1.0 -0.1402045911
C  C138  1  0.47973000  0.51847000  0.38627000  1.0 -0.1402045911
C  C139  1  0.22273000  0.88297000  0.69577000  1.0 -0.1570908766
C  C140  1  0.88940000  0.21630000  0.02910000  1.0 -0.1511640858
C  C141  1  0.55607000  0.54963000  0.36243000  1.0 -0.1511640858
C  C142  1  0.11517000  0.81573000  0.71303000  1.0 -0.0912571106
C  C143  1  0.78183000  0.14907000  0.04637000  1.0 -0.0912571106
C  C144  1  0.44850000  0.48240000  0.37970000  1.0 -0.0912571106
C  C145  1  0.25390000  0.91700000  0.70060000  1.0 -0.1000153185
C  C146  1  0.92057000  0.25033000  0.03393000  1.0 -0.1000153185
C  C147  1  0.58723000  0.58367000  0.36727000  1.0 -0.1000153185
C  C148  1  0.07193000  0.74057000  0.69007000  1.0 0.020761226
C  C149  1  0.73860000  0.07390000  0.02340000  1.0 0.020761226
C  C150  1  0.40527000  0.40723000  0.35673000  1.0 0.020761226
C  C151  1  0.15917000  0.81563000  0.68283000  1.0 -0.1570908766
C  C152  1  0.82583000  0.14897000  0.01617000  1.0 -0.1570908766
C  C153  1  0.49250000  0.48230000  0.34950000  1.0 -0.1570908766
C  C154  1  0.12620000  0.77880000  0.67760000  1.0 -0.1000153185
C  C155  1  0.79287000  0.11213000  0.01093000  1.0 -0.1000153185
C  C156  1  0.45953000  0.44547000  0.34427000  1.0 -0.1000153185
C  C157  1  0.01667000  0.64633000  0.49983000  1.0 -0.1000153185
C  C158  1  0.68333000  0.97967000  0.83317000  1.0 -0.0912571106
C  C159  1  0.35000000  0.31300000  0.16650000  1.0 -0.0912571106
C  C160  1  0.00580000  0.64580000  0.56060000  1.0 -0.0503065531
C  C161  1  0.67247000  0.97913000  0.89393000  1.0 -0.0503065531
C  C162  1  0.33913000  0.31247000  0.22727000  1.0 -0.0503065531
C  C163  1  0.02829000  0.64189000  0.40741000  1.0 -0.0184974533
C  C164  1  0.69496000  0.97522000  0.74074000  1.0 -0.0184974533
C  C165  1  0.36163000  0.30855000  0.07407000  1.0 -0.0184974533
C  C166  1  0.05427000  0.65615000  0.42933000  1.0 0.0020346547
C  C167  1  0.72094000  0.98948000  0.76266000  1.0 0.0020346547
C  C168  1  0.38761000  0.32281000  0.09599000  1.0 0.0020346547
C  C169  1  0.02013000  0.64617000  0.46707000  1.0 -0.0285564681
C  C170  1  0.68680000  0.97950000  0.80040000  1.0 -0.0285564681
C  C171  1  0.35347000  0.31283000  0.13373000  1.0 -0.0285564681
C  C172  1  0.05061000  0.65821000  0.46009000  1.0 0.0144092541
C  C173  1  0.71727000  0.99155000  0.79343000  1.0 0.0144092541
C  C174  1  0.38394000  0.32488000  0.12676000  1.0 0.0144092541
C  C175  1  0.03873000  0.65247000  0.52027000  1.0 -0.1206271962
C  C176  1  0.70540000  0.98580000  0.85360000  1.0 -0.1206271962
C  C177  1  0.37207000  0.31913000  0.18693000  1.0 -0.1206271962
C  C178  1  0.99357000  0.63113000  0.44393000  1.0 -0.0713749157
C  C179  1  0.66023000  0.96447000  0.77727000  1.0 -0.0713749157
C  C180  1  0.32690000  0.29780000  0.11060000  1.0 -0.0713749157
C  C181  1  0.03390000  0.65420000  0.55150000  1.0 -0.0503065531
C  C182  1  0.70057000  0.98753000  0.88483000  1.0 -0.0503065531
C  C183  1  0.36723000  0.32087000  0.21817000  1.0 -0.0503065531
C  C184  1  0.99643000  0.62917000  0.41277000  1.0 -0.0503065531
C  C185  1  0.66310000  0.96250000  0.74610000  1.0 -0.0503065531
C  C186  1  0.32977000  0.29583000  0.07943000  1.0 -0.0591042614
C  C187  1  0.00197000  0.64523000  0.59473000  1.0 -0.0184974533
C  C188  1  0.66863000  0.97857000  0.92807000  1.0 -0.0184974533
C  C189  1  0.33530000  0.31190000  0.26140000  1.0 -0.0184974533
C  C190  1  0.98980000  0.64030000  0.50750000  1.0 -0.1206271962
C  C191  1  0.65647000  0.97363000  0.84083000  1.0 -0.1206271962
C  C192  1  0.32313000  0.30697000  0.17417000  1.0 -0.1206271962
C  C193  1  0.98593000  0.64167000  0.54047000  1.0 -0.0713749157
C  C194  1  0.65260000  0.97500000  0.87380000  1.0 -0.0713749157
C  C195  1  0.31927000  0.30833000  0.20713000  1.0 -0.0713749157
C  C196  1  0.96300000  0.79650000  0.65000000  1.0 -0.1402045911
C  C197  1  0.62967000  0.12983000  0.98333000  1.0 -0.1402045911
C  C198  1  0.29633000  0.46317000  0.31667000  1.0 -0.1402045911
C  C199  1  0.97333000  0.74607000  0.66087000  1.0 -0.0503065531
C  C200  1  0.64000000  0.07940000  0.99420000  1.0 -0.0503065531
C  C201  1  0.30667000  0.41273000  0.32753000  1.0 -0.0503065531
C  C202  1  0.94693000  0.87285000  0.63837000  1.0 -0.0591042614
C  C203  1  0.61359000  0.20619000  0.97171000  1.0 -0.0591042614
C  C204  1  0.28026000  0.53952000  0.30504000  1.0 -0.0591042614
C  C205  1  0.93521000  0.83921000  0.61239000  1.0 0.0020346547
C  C206  1  0.60187000  0.17255000  0.94573000  1.0 0.0020346547
C  C207  1  0.26854000  0.50588000  0.27906000  1.0 0.0020346547
C  C208  1  0.95937000  0.82563000  0.64653000  1.0 -0.1000153185
C  C209  1  0.62603000  0.15897000  0.97987000  1.0 -0.1000153185
C  C210  1  0.29270000  0.49230000  0.31320000  1.0 -0.1000153185
C  C211  1  0.94094000  0.81418000  0.61606000  1.0 -0.0285564681
C  C212  1  0.60761000  0.14751000  0.94939000  1.0 -0.0285564681
C  C213  1  0.27427000  0.48085000  0.28273000  1.0 -0.0285564681
C  C214  1  0.94707000  0.76013000  0.62793000  1.0 -0.1206271962
C  C215  1  0.61373000  0.09347000  0.96127000  1.0 -0.1206271962
C  C216  1  0.28040000  0.42680000  0.29460000  1.0 -0.1206271962
C  C217  1  0.97090000  0.86030000  0.67310000  1.0 -0.1511640858
C  C218  1  0.63757000  0.19363000  0.00643000  1.0 -0.1511640858
C  C219  1  0.30423000  0.52697000  0.33977000  1.0 -0.1511640858
C  C220  1  0.95363000  0.73547000  0.63277000  1.0 -0.0912571106
C  C221  1  0.62030000  0.06880000  0.96610000  1.0 -0.0912571106
C  C222  1  0.28697000  0.40213000  0.29943000  1.0 -0.0912571106
C  C223  1  0.96607000  0.88663000  0.67023000  1.0 -0.1402045911
C  C224  1  0.63273000  0.21997000  0.00357000  1.0 -0.1402045911
C  C225  1  0.29940000  0.55330000  0.33690000  1.0 -0.1402045911
C  C226  1  0.97660000  0.71520000  0.66470000  1.0 0.0368111459
C  C227  1  0.64327000  0.04853000  0.99803000  1.0 0.0323840369
C  C228  1  0.30993000  0.38187000  0.33137000  1.0 0.0368111459
C  C229  1  0.98383000  0.80967000  0.67687000  1.0 -0.1402045911
C  C230  1  0.65050000  0.14300000  0.01020000  1.0 -0.1402045911
C  C231  1  0.31717000  0.47633000  0.34353000  1.0 -0.1402045911
C  C232  1  0.98907000  0.78193000  0.68073000  1.0 -0.0912571106
C  C233  1  0.65573000  0.11527000  0.01407000  1.0 -0.0912571106
C  C234  1  0.32240000  0.44860000  0.34740000  1.0 -0.0912571106
C  C235  1  0.99983000  0.87017000  0.51667000  1.0 -0.1402045911
C  C236  1  0.66650000  0.20350000  0.85000000  1.0 -0.1402045911
C  C237  1  0.33317000  0.53683000  0.18333000  1.0 -0.1402045911
C  C238  1  0.06060000  0.92060000  0.50580000  1.0 -0.0503065531
C  C239  1  0.72727000  0.25393000  0.83913000  1.0 -0.0503065531
C  C240  1  0.39393000  0.58727000  0.17247000  1.0 -0.0503065531
C  C241  1  0.90741000  0.79381000  0.52829000  1.0 -0.0591042614
C  C242  1  0.57407000  0.12715000  0.86163000  1.0 -0.0591042614
C  C243  1  0.24074000  0.46048000  0.19496000  1.0 -0.0591042614
C  C244  1  0.92933000  0.82745000  0.55427000  1.0 0.0020346547
C  C245  1  0.59599000  0.16079000  0.88761000  1.0 0.0020346547
C  C246  1  0.26266000  0.49412000  0.22094000  1.0 0.0020346547
C  C247  1  0.96707000  0.84103000  0.52013000  1.0 -0.1000153185
C  C248  1  0.63373000  0.17437000  0.85347000  1.0 -0.1000153185
C  C249  1  0.30040000  0.50770000  0.18680000  1.0 -0.1000153185
C  C250  1  0.96009000  0.85249000  0.55061000  1.0 -0.0285564681
C  C251  1  0.62676000  0.18582000  0.88394000  1.0 -0.0285564681
C  C252  1  0.29343000  0.51915000  0.21727000  1.0 -0.0285564681
C  C253  1  0.02027000  0.90653000  0.53873000  1.0 -0.1206271962
C  C254  1  0.68693000  0.23987000  0.87207000  1.0 -0.1206271962
C  C255  1  0.35360000  0.57320000  0.20540000  1.0 -0.1206271962
C  C256  1  0.94393000  0.80637000  0.49357000  1.0 -0.1511640858
C  C257  1  0.61060000  0.13970000  0.82690000  1.0 -0.1511640858
C  C258  1  0.27727000  0.47303000  0.16023000  1.0 -0.1511640858
C  C259  1  0.05150000  0.93120000  0.53390000  1.0 -0.0912571106
C  C260  1  0.71817000  0.26453000  0.86723000  1.0 -0.0912571106
C  C261  1  0.38483000  0.59787000  0.20057000  1.0 -0.0912571106
C  C262  1  0.91277000  0.78003000  0.49643000  1.0 -0.1402045911
C  C263  1  0.57943000  0.11337000  0.82977000  1.0 -0.1402045911
C  C264  1  0.24610000  0.44670000  0.16310000  1.0 -0.1402045911
C  C265  1  0.09473000  0.95147000  0.50197000  1.0 0.0368111459
C  C266  1  0.76140000  0.28480000  0.83530000  1.0 0.0368111459
C  C267  1  0.42807000  0.61813000  0.16863000  1.0 0.0368111459
C  C268  1  0.00750000  0.85700000  0.48980000  1.0 -0.1402045911
C  C269  1  0.67417000  0.19033000  0.82313000  1.0 -0.1402045911
C  C270  1  0.34083000  0.52367000  0.15647000  1.0 -0.1402045911
C  C271  1  0.04047000  0.88473000  0.48593000  1.0 -0.0912571106
C  C272  1  0.70713000  0.21807000  0.81927000  1.0 -0.0912571106
C  C273  1  0.37380000  0.55140000  0.15260000  1.0 -0.0912571106
C  C274  1  0.15000000  0.81650000  0.46300000  1.0 -0.1402045911
C  C275  1  0.81667000  0.14983000  0.79633000  1.0 -0.1402045911
C  C276  1  0.48333000  0.48317000  0.12967000  1.0 -0.1402045911
C  C277  1  0.16087000  0.88813000  0.47333000  1.0 -0.0591042614
C  C278  1  0.82753000  0.22147000  0.80667000  1.0 -0.0503065531
C  C279  1  0.49420000  0.55480000  0.14000000  1.0 -0.0591042614
C  C280  1  0.13837000  0.71245000  0.44693000  1.0 -0.0099780654
C  C281  1  0.80504000  0.04578000  0.78026000  1.0 -0.0099780654
C  C282  1  0.47171000  0.37911000  0.11359000  1.0 -0.0099780654
C  C283  1  0.11239000  0.70839000  0.43521000  1.0 -0.0099780654
C  C284  1  0.77906000  0.04172000  0.76854000  1.0 -0.0099780654
C  C285  1  0.44573000  0.37505000  0.10187000  1.0 -0.0099780654
C  C286  1  0.14653000  0.78027000  0.45937000  1.0 -0.1000153185
C  C287  1  0.81320000  0.11360000  0.79270000  1.0 -0.1000153185
C  C288  1  0.47987000  0.44693000  0.12603000  1.0 -0.1000153185
C  C289  1  0.11606000  0.74282000  0.44094000  1.0 -0.0099780654
C  C290  1  0.78273000  0.07615000  0.77427000  1.0 -0.0099780654
C  C291  1  0.44939000  0.40949000  0.10761000  1.0 -0.0099780654
C  C292  1  0.12793000  0.81487000  0.44707000  1.0 -0.1402045911
C  C293  1  0.79460000  0.14820000  0.78040000  1.0 -0.1402045911
C  C294  1  0.46127000  0.48153000  0.11373000  1.0 -0.1402045911
C  C295  1  0.17310000  0.78370000  0.47090000  1.0 -0.1570908766
C  C296  1  0.83977000  0.11703000  0.80423000  1.0 -0.1570908766
C  C297  1  0.50643000  0.45037000  0.13757000  1.0 -0.1570908766
C  C298  1  0.13277000  0.85093000  0.45363000  1.0 -0.0912571106
C  C299  1  0.79943000  0.18427000  0.78697000  1.0 -0.0912571106
C  C300  1  0.46610000  0.51760000  0.12030000  1.0 -0.0912571106
C  C301  1  0.17023000  0.74967000  0.46607000  1.0 -0.1000153185
C  C302  1  0.83690000  0.08300000  0.79940000  1.0 -0.1000153185
C  C303  1  0.50357000  0.41633000  0.13273000  1.0 -0.1000153185
C  C304  1  0.16470000  0.92610000  0.47660000  1.0 0.020761226
C  C305  1  0.83137000  0.25943000  0.80993000  1.0 0.020761226
C  C306  1  0.49803000  0.59277000  0.14327000  1.0 0.020761226
C  C307  1  0.17687000  0.85103000  0.48383000  1.0 -0.1570908766
C  C308  1  0.84353000  0.18437000  0.81717000  1.0 -0.1570908766
C  C309  1  0.51020000  0.51770000  0.15050000  1.0 -0.1570908766
C  C310  1  0.18073000  0.88787000  0.48907000  1.0 -0.1000153185
C  C311  1  0.84740000  0.22120000  0.82240000  1.0 -0.1000153185
C  C312  1  0.51407000  0.55453000  0.15573000  1.0 -0.1000153185
C  C313  1  0.20367000  0.02033000  0.66683000  1.0 -0.1000153185
C  C314  1  0.87033000  0.35367000  0.00017000  1.0 -0.0912571106
C  C315  1  0.53700000  0.68700000  0.33350000  1.0 -0.0912571106
C  C316  1  0.19333000  0.02087000  0.60607000  1.0 -0.0503065531
C  C317  1  0.86000000  0.35420000  0.93940000  1.0 -0.0503065531
C  C318  1  0.52667000  0.68753000  0.27273000  1.0 -0.0503065531
C  C319  1  0.21974000  0.02478000  0.75926000  1.0 -0.0184974533
C  C320  1  0.88641000  0.35811000  0.09259000  1.0 -0.0184974533
C  C321  1  0.55307000  0.69145000  0.42593000  1.0 -0.0184974533
C  C322  1  0.23146000  0.01052000  0.73734000  1.0 0.0020346547
C  C323  1  0.89813000  0.34385000  0.07067000  1.0 0.0020346547
C  C324  1  0.56479000  0.67719000  0.40401000  1.0 0.0020346547
C  C325  1  0.20730000  0.02050000  0.69960000  1.0 -0.0285564681
C  C326  1  0.87397000  0.35383000  0.03293000  1.0 -0.0285564681
C  C327  1  0.54063000  0.68717000  0.36627000  1.0 -0.0285564681
C  C328  1  0.22573000  0.00845000  0.70657000  1.0 0.020761226
C  C329  1  0.89239000  0.34179000  0.03991000  1.0 0.0144092541
C  C330  1  0.55906000  0.67512000  0.37324000  1.0 0.0144092541
C  C331  1  0.21960000  0.01420000  0.64640000  1.0 -0.1206271962
C  C332  1  0.88627000  0.34753000  0.97973000  1.0 -0.1206271962
C  C333  1  0.55293000  0.68087000  0.31307000  1.0 -0.1206271962
C  C334  1  0.19577000  0.03553000  0.72273000  1.0 -0.0713749157
C  C335  1  0.86243000  0.36887000  0.05607000  1.0 -0.0713749157
C  C336  1  0.52910000  0.70220000  0.38940000  1.0 -0.0713749157
C  C337  1  0.21303000  0.01247000  0.61517000  1.0 -0.0503065531
C  C338  1  0.87970000  0.34580000  0.94850000  1.0 -0.0503065531
C  C339  1  0.54637000  0.67913000  0.28183000  1.0 -0.0503065531
C  C340  1  0.20060000  0.03750000  0.75390000  1.0 -0.0591042614
C  C341  1  0.86727000  0.37083000  0.08723000  1.0 -0.0503065531
C  C342  1  0.53393000  0.70417000  0.42057000  1.0 -0.0591042614
C  C343  1  0.19007000  0.02143000  0.57193000  1.0 -0.0184974533
C  C344  1  0.85673000  0.35477000  0.90527000  1.0 -0.0184974533
C  C345  1  0.52340000  0.68810000  0.23860000  1.0 -0.0184974533
C  C346  1  0.18283000  0.02637000  0.65917000  1.0 -0.1206271962
C  C347  1  0.84950000  0.35970000  0.99250000  1.0 -0.1206271962
C  C348  1  0.51617000  0.69303000  0.32583000  1.0 -0.1206271962
C  C349  1  0.17760000  0.02500000  0.62620000  1.0 -0.0713749157
C  C350  1  0.84427000  0.35833000  0.95953000  1.0 -0.0713749157
C  C351  1  0.51093000  0.69167000  0.29287000  1.0 -0.0713749157
C  C352  1  0.90250000  0.93450000  0.58100000  1.0 -0.1402045911
C  C353  1  0.56917000  0.26783000  0.91433000  1.0 -0.1402045911
C  C354  1  0.23583000  0.60117000  0.24767000  1.0 -0.1402045911
C  C355  1  0.88260000  0.96580000  0.55100000  1.0 -0.0503065531
C  C356  1  0.54927000  0.29913000  0.88433000  1.0 -0.0503065531
C  C357  1  0.21593000  0.63247000  0.21767000  1.0 -0.0503065531
C  C358  1  0.93627000  0.89355000  0.62803000  1.0 -0.0591042614
C  C359  1  0.60294000  0.22688000  0.96136000  1.0 -0.0591042614
C  C360  1  0.26961000  0.56021000  0.29469000  1.0 -0.0591042614
C  C361  1  0.91946000  0.87012000  0.59694000  1.0 0.0020346547
C  C362  1  0.58613000  0.20345000  0.93027000  1.0 0.0020346547
C  C363  1  0.25279000  0.53679000  0.26361000  1.0 0.0020346547
C  C364  1  0.91353000  0.92017000  0.59927000  1.0 -0.1000153185
C  C365  1  0.58020000  0.25350000  0.93260000  1.0 -0.1000153185
C  C366  1  0.24687000  0.58683000  0.26593000  1.0 -0.1000153185
C  C367  1  0.90783000  0.88335000  0.58147000  1.0 -0.0285564681
C  C368  1  0.57449000  0.21669000  0.91481000  1.0 -0.0285564681
C  C369  1  0.24116000  0.55002000  0.24814000  1.0 -0.0285564681
C  C370  1  0.89160000  0.91720000  0.54940000  1.0 -0.1206271962
C  C371  1  0.55827000  0.25053000  0.88273000  1.0 -0.1206271962
C  C372  1  0.22493000  0.58387000  0.21607000  1.0 -0.1206271962
C  C373  1  0.93127000  0.94403000  0.63123000  1.0 -0.1511640858
C  C374  1  0.59793000  0.27737000  0.96457000  1.0 -0.1511640858
C  C375  1  0.26460000  0.61070000  0.29790000  1.0 -0.1511640858
C  C376  1  0.88003000  0.93187000  0.53457000  1.0 -0.0912571106
C  C377  1  0.54670000  0.26520000  0.86790000  1.0 -0.0912571106
C  C378  1  0.21337000  0.59853000  0.20123000  1.0 -0.0912571106
C  C379  1  0.94297000  0.93143000  0.64783000  1.0 -0.1402045911
C  C380  1  0.60963000  0.26477000  0.98117000  1.0 -0.1402045911
C  C381  1  0.27630000  0.59810000  0.31450000  1.0 -0.1402045911
C  C382  1  0.87160000  0.98120000  0.53170000  1.0 0.0368111459
C  C383  1  0.53827000  0.31453000  0.86503000  1.0 0.0368111459
C  C384  1  0.20493000  0.64787000  0.19837000  1.0 0.0368111459
C  C385  1  0.90397000  0.96593000  0.59873000  1.0 -0.1402045911
C  C386  1  0.57063000  0.29927000  0.93207000  1.0 -0.1402045911
C  C387  1  0.23730000  0.63260000  0.26540000  1.0 -0.1402045911
C  C388  1  0.89207000  0.98033000  0.58153000  1.0 -0.0912571106
C  C389  1  0.55873000  0.31367000  0.91487000  1.0 -0.0912571106
C  C390  1  0.22540000  0.64700000  0.24820000  1.0 -0.0912571106
C  C391  1  0.75233000  0.98817000  0.63467000  1.0 -0.1402045911
C  C392  1  0.41900000  0.32150000  0.96800000  1.0 -0.1402045911
C  C393  1  0.08567000  0.65483000  0.30133000  1.0 -0.1402045911
C  C394  1  0.78233000  0.99827000  0.58347000  1.0 -0.0591042614
C  C395  1  0.44900000  0.33160000  0.91680000  1.0 -0.0591042614
C  C396  1  0.11567000  0.66493000  0.25013000  1.0 -0.0591042614
C  C397  1  0.70531000  0.97491000  0.70939000  1.0 -0.0099780654
C  C398  1  0.37197000  0.30825000  0.04273000  1.0 -0.0099780654
C  C399  1  0.03864000  0.64158000  0.37606000  1.0 -0.0099780654
C  C400  1  0.73639000  0.98919000  0.71601000  1.0 -0.0099780654
C  C401  1  0.40306000  0.32252000  0.04934000  1.0 -0.0099780654
C  C402  1  0.06973000  0.65585000  0.38267000  1.0 -0.0099780654
C  C403  1  0.73407000  0.98093000  0.66003000  1.0 -0.1000153185
C  C404  1  0.40073000  0.31427000  0.99337000  1.0 -0.1000153185
C  C405  1  0.06740000  0.64760000  0.32670000  1.0 -0.1000153185
C  C406  1  0.75186000  0.99302000  0.69114000  1.0 -0.0099780654
C  C407  1  0.41853000  0.32635000  0.02447000  1.0 -0.0099780654
C  C408  1  0.08519000  0.65969000  0.35781000  1.0 -0.0099780654
C  C409  1  0.78393000  0.00887000  0.64107000  1.0 -0.1402045911
C  C410  1  0.45060000  0.34220000  0.97440000  1.0 -0.1402045911
C  C411  1  0.11727000  0.67553000  0.30773000  1.0 -0.1402045911
C  C412  1  0.70210000  0.96670000  0.65390000  1.0 -0.1511640858
C  C413  1  0.36877000  0.30003000  0.98723000  1.0 -0.1570908766
C  C414  1  0.03543000  0.63337000  0.32057000  1.0 -0.1570908766
C  C415  1  0.79877000  0.01213000  0.61483000  1.0 -0.0912571106
C  C416  1  0.46543000  0.34547000  0.94817000  1.0 -0.0912571106
C  C417  1  0.13210000  0.67880000  0.28150000  1.0 -0.0912571106
C  C418  1  0.68550000  0.96180000  0.67820000  1.0 -0.1000153185
C  C419  1  0.35217000  0.29513000  0.01153000  1.0 -0.1000153185
C  C420  1  0.01883000  0.62847000  0.34487000  1.0 -0.1000153185
C  C421  1  0.80163000  0.00657000  0.55707000  1.0 0.020761226
C  C422  1  0.46830000  0.33990000  0.89040000  1.0 0.020761226
C  C423  1  0.13497000  0.67323000  0.22373000  1.0 0.020761226
C  C424  1  0.73460000  0.97190000  0.60470000  1.0 -0.1570908766
C  C425  1  0.40127000  0.30523000  0.93803000  1.0 -0.1570908766
C  C426  1  0.06793000  0.63857000  0.27137000  1.0 -0.1570908766
C  C427  1  0.75180000  0.97720000  0.57840000  1.0 -0.1000153185
C  C428  1  0.41847000  0.31053000  0.91173000  1.0 -0.1000153185
C  C429  1  0.08513000  0.64387000  0.24507000  1.0 -0.1000153185
C  C430  1  0.69867000  0.78433000  0.43083000  1.0 -0.0912571106
C  C431  1  0.36533000  0.11767000  0.76417000  1.0 -0.0912571106
C  C432  1  0.03200000  0.45100000  0.09750000  1.0 -0.0912571106
C  C433  1  0.74987000  0.86553000  0.45073000  1.0 -0.0503065531
C  C434  1  0.41653000  0.19887000  0.78407000  1.0 -0.0503065531
C  C435  1  0.08320000  0.53220000  0.11740000  1.0 -0.0503065531
C  C436  1  0.62394000  0.66258000  0.39706000  1.0 -0.0184974533
C  C437  1  0.29061000  0.99591000  0.73039000  1.0 -0.0184974533
C  C438  1  0.95727000  0.32925000  0.06373000  1.0 -0.0184974533
C  C439  1  0.61733000  0.68705000  0.41387000  1.0 0.0020346547
C  C440  1  0.28399000  0.02039000  0.74721000  1.0 0.0020346547
C  C441  1  0.95066000  0.35372000  0.08054000  1.0 0.0020346547
C  C442  1  0.67330000  0.74070000  0.41980000  1.0 -0.0285564681
C  C443  1  0.33997000  0.07403000  0.75313000  1.0 -0.0285564681
C  C444  1  0.00663000  0.40737000  0.08647000  1.0 -0.0285564681
C  C445  1  0.64219000  0.72739000  0.42551000  1.0 0.020761226
C  C446  1  0.30886000  0.06072000  0.75884000  1.0 0.0144092541
C  C447  1  0.97553000  0.39405000  0.09217000  1.0 0.020761226
C  C448  1  0.69227000  0.80953000  0.44173000  1.0 -0.1206271962
C  C449  1  0.35893000  0.14287000  0.77507000  1.0 -0.1206271962
C  C450  1  0.02560000  0.47620000  0.10840000  1.0 -0.1206271962
C  C451  1  0.67943000  0.71487000  0.40207000  1.0 -0.0713749157
C  C452  1  0.34610000  0.04820000  0.73540000  1.0 -0.0713749157
C  C453  1  0.01277000  0.38153000  0.06873000  1.0 -0.0713749157
C  C454  1  0.71850000  0.85060000  0.45330000  1.0 -0.0503065531
C  C455  1  0.38517000  0.18393000  0.78663000  1.0 -0.0503065531
C  C456  1  0.05183000  0.51727000  0.11997000  1.0 -0.0503065531
C  C457  1  0.65513000  0.67397000  0.39037000  1.0 -0.0591042614
C  C458  1  0.32180000  0.00730000  0.72370000  1.0 -0.0591042614
C  C459  1  0.98847000  0.34063000  0.05703000  1.0 -0.0503065531
C  C460  1  0.77627000  0.91123000  0.46173000  1.0 -0.0184974533
C  C461  1  0.44293000  0.24457000  0.79507000  1.0 -0.0184974533
C  C462  1  0.10960000  0.57790000  0.12840000  1.0 -0.0184974533
C  C463  1  0.72863000  0.79657000  0.42937000  1.0 -0.1206271962
C  C464  1  0.39530000  0.12990000  0.76270000  1.0 -0.1206271962
C  C465  1  0.06197000  0.46323000  0.09603000  1.0 -0.1206271962
C  C466  1  0.75493000  0.84007000  0.44127000  1.0 -0.0713749157
C  C467  1  0.42160000  0.17340000  0.77460000  1.0 -0.0713749157
C  C468  1  0.08827000  0.50673000  0.10793000  1.0 -0.0713749157
C  C469  1  0.40250000  0.32150000  0.46800000  1.0 -0.1402045911
C  C470  1  0.06917000  0.65483000  0.80133000  1.0 -0.1402045911
C  C471  1  0.73583000  0.98817000  0.13467000  1.0 -0.1402045911
C  C472  1  0.38260000  0.33160000  0.41680000  1.0 -0.0503065531
C  C473  1  0.04927000  0.66493000  0.75013000  1.0 -0.0591042614
C  C474  1  0.71593000  0.99827000  0.08347000  1.0 -0.0591042614
C  C475  1  0.43627000  0.30825000  0.54273000  1.0 -0.0099780654
C  C476  1  0.10294000  0.64158000  0.87606000  1.0 -0.0099780654
C  C477  1  0.76961000  0.97491000  0.20939000  1.0 -0.0099780654
C  C478  1  0.41946000  0.32252000  0.54934000  1.0 -0.0099780654
C  C479  1  0.08613000  0.65585000  0.88267000  1.0 -0.0099780654
C  C480  1  0.75279000  0.98919000  0.21601000  1.0 -0.0099780654
C  C481  1  0.41353000  0.31427000  0.49337000  1.0 -0.1000153185
C  C482  1  0.08020000  0.64760000  0.82670000  1.0 -0.1000153185
C  C483  1  0.74687000  0.98093000  0.16003000  1.0 -0.1000153185
C  C484  1  0.40783000  0.32635000  0.52447000  1.0 -0.0099780654
C  C485  1  0.07449000  0.65969000  0.85781000  1.0 -0.0099780654
C  C486  1  0.74116000  0.99302000  0.19114000  1.0 -0.0099780654
C  C487  1  0.39160000  0.34220000  0.47440000  1.0 -0.1402045911
C  C488  1  0.05827000  0.67553000  0.80773000  1.0 -0.1402045911
C  C489  1  0.72493000  0.00887000  0.14107000  1.0 -0.1402045911
C  C490  1  0.43127000  0.30003000  0.48723000  1.0 -0.1570908766
C  C491  1  0.09793000  0.63337000  0.82057000  1.0 -0.1570908766
C  C492  1  0.76460000  0.96670000  0.15390000  1.0 -0.1511640858
C  C493  1  0.38003000  0.34547000  0.44817000  1.0 -0.0912571106
C  C494  1  0.04670000  0.67880000  0.78150000  1.0 -0.0912571106
C  C495  1  0.71337000  0.01213000  0.11483000  1.0 -0.0912571106
C  C496  1  0.44297000  0.29513000  0.51153000  1.0 -0.1000153185
C  C497  1  0.10963000  0.62847000  0.84487000  1.0 -0.1000153185
C  C498  1  0.77630000  0.96180000  0.17820000  1.0 -0.1000153185
C  C499  1  0.37160000  0.33990000  0.39040000  1.0 0.020761226
C  C500  1  0.03827000  0.67323000  0.72373000  1.0 0.020761226
C  C501  1  0.70493000  0.00657000  0.05707000  1.0 0.020761226
C  C502  1  0.40397000  0.30523000  0.43803000  1.0 -0.1570908766
C  C503  1  0.07063000  0.63857000  0.77137000  1.0 -0.1570908766
C  C504  1  0.73730000  0.97190000  0.10470000  1.0 -0.1570908766
C  C505  1  0.39207000  0.31053000  0.41173000  1.0 -0.1000153185
C  C506  1  0.05873000  0.64387000  0.74507000  1.0 -0.1000153185
C  C507  1  0.72540000  0.97720000  0.07840000  1.0 -0.1000153185
C  C508  1  0.25233000  0.11767000  0.26417000  1.0 -0.0912571106
C  C509  1  0.91900000  0.45100000  0.59750000  1.0 -0.0912571106
C  C510  1  0.58567000  0.78433000  0.93083000  1.0 -0.0912571106
C  C511  1  0.28233000  0.19887000  0.28407000  1.0 -0.0503065531
C  C512  1  0.94900000  0.53220000  0.61740000  1.0 -0.0503065531
C  C513  1  0.61567000  0.86553000  0.95073000  1.0 -0.0503065531
C  C514  1  0.20531000  0.99591000  0.23039000  1.0 -0.0184974533
C  C515  1  0.87197000  0.32925000  0.56373000  1.0 -0.0184974533
C  C516  1  0.53864000  0.66258000  0.89706000  1.0 -0.0184974533
C  C517  1  0.23639000  0.02039000  0.24721000  1.0 0.0020346547
C  C518  1  0.90306000  0.35372000  0.58054000  1.0 0.0020346547
C  C519  1  0.56973000  0.68705000  0.91387000  1.0 0.0020346547
C  C520  1  0.23407000  0.07403000  0.25313000  1.0 -0.0285564681
C  C521  1  0.90073000  0.40737000  0.58647000  1.0 -0.0285564681
C  C522  1  0.56740000  0.74070000  0.91980000  1.0 -0.0285564681
C  C523  1  0.25186000  0.06072000  0.25884000  1.0 0.0144092541
C  C524  1  0.91853000  0.39405000  0.59217000  1.0 0.020761226
C  C525  1  0.58519000  0.72739000  0.92551000  1.0 0.020761226
C  C526  1  0.28393000  0.14287000  0.27507000  1.0 -0.1206271962
C  C527  1  0.95060000  0.47620000  0.60840000  1.0 -0.1206271962
C  C528  1  0.61727000  0.80953000  0.94173000  1.0 -0.1206271962
C  C529  1  0.20210000  0.04820000  0.23540000  1.0 -0.0713749157
C  C530  1  0.86877000  0.38153000  0.56873000  1.0 -0.0713749157
C  C531  1  0.53543000  0.71487000  0.90207000  1.0 -0.0713749157
C  C532  1  0.29877000  0.18393000  0.28663000  1.0 -0.0503065531
C  C533  1  0.96543000  0.51727000  0.61997000  1.0 -0.0503065531
C  C534  1  0.63210000  0.85060000  0.95330000  1.0 -0.0503065531
C  C535  1  0.18550000  0.00730000  0.22370000  1.0 -0.0591042614
C  C536  1  0.85217000  0.34063000  0.55703000  1.0 -0.0503065531
C  C537  1  0.51883000  0.67397000  0.89037000  1.0 -0.0591042614
C  C538  1  0.30163000  0.24457000  0.29507000  1.0 -0.0184974533
C  C539  1  0.96830000  0.57790000  0.62840000  1.0 -0.0184974533
C  C540  1  0.63497000  0.91123000  0.96173000  1.0 -0.0184974533
C  C541  1  0.23460000  0.12990000  0.26270000  1.0 -0.1206271962
C  C542  1  0.90127000  0.46323000  0.59603000  1.0 -0.1206271962
C  C543  1  0.56793000  0.79657000  0.92937000  1.0 -0.1206271962
C  C544  1  0.25180000  0.17340000  0.27460000  1.0 -0.0713749157
C  C545  1  0.91847000  0.50673000  0.60793000  1.0 -0.0713749157
C  C546  1  0.58513000  0.84007000  0.94127000  1.0 -0.0713749157
C  C547  1  0.19867000  0.26783000  0.41433000  1.0 -0.1402045911
C  C548  1  0.86533000  0.60117000  0.74767000  1.0 -0.1402045911
C  C549  1  0.53200000  0.93450000  0.08100000  1.0 -0.1402045911
C  C550  1  0.24987000  0.29913000  0.38433000  1.0 -0.0503065531
C  C551  1  0.91653000  0.63247000  0.71767000  1.0 -0.0503065531
C  C552  1  0.58320000  0.96580000  0.05100000  1.0 -0.0503065531
C  C553  1  0.12394000  0.22688000  0.46136000  1.0 -0.0591042614
C  C554  1  0.79061000  0.56021000  0.79469000  1.0 -0.0591042614
C  C555  1  0.45727000  0.89355000  0.12803000  1.0 -0.0591042614
C  C556  1  0.11733000  0.20345000  0.43027000  1.0 0.0020346547
C  C557  1  0.78399000  0.53679000  0.76361000  1.0 0.0020346547
C  C558  1  0.45066000  0.87012000  0.09694000  1.0 0.0020346547
C  C559  1  0.17330000  0.25350000  0.43260000  1.0 -0.1000153185
C  C560  1  0.83997000  0.58683000  0.76593000  1.0 -0.1000153185
C  C561  1  0.50663000  0.92017000  0.09927000  1.0 -0.1000153185
C  C562  1  0.14219000  0.21669000  0.41481000  1.0 -0.0285564681
C  C563  1  0.80886000  0.55002000  0.74814000  1.0 -0.0285564681
C  C564  1  0.47553000  0.88335000  0.08147000  1.0 -0.0285564681
C  C565  1  0.19227000  0.25053000  0.38273000  1.0 -0.1206271962
C  C566  1  0.85893000  0.58387000  0.71607000  1.0 -0.1206271962
C  C567  1  0.52560000  0.91720000  0.04940000  1.0 -0.1206271962
C  C568  1  0.17943000  0.27737000  0.46457000  1.0 -0.1511640858
C  C569  1  0.84610000  0.61070000  0.79790000  1.0 -0.1511640858
C  C570  1  0.51277000  0.94403000  0.13123000  1.0 -0.1511640858
C  C571  1  0.21850000  0.26520000  0.36790000  1.0 -0.0912571106
C  C572  1  0.88517000  0.59853000  0.70123000  1.0 -0.0912571106
C  C573  1  0.55183000  0.93187000  0.03457000  1.0 -0.0912571106
C  C574  1  0.15513000  0.26477000  0.48117000  1.0 -0.1402045911
C  C575  1  0.82180000  0.59810000  0.81450000  1.0 -0.1402045911
C  C576  1  0.48847000  0.93143000  0.14783000  1.0 -0.1402045911
C  C577  1  0.27627000  0.31453000  0.36503000  1.0 0.0368111459
C  C578  1  0.94293000  0.64787000  0.69837000  1.0 0.0368111459
C  C579  1  0.60960000  0.98120000  0.03170000  1.0 0.0368111459
C  C580  1  0.22863000  0.29927000  0.43207000  1.0 -0.1402045911
C  C581  1  0.89530000  0.63260000  0.76540000  1.0 -0.1402045911
C  C582  1  0.56197000  0.96593000  0.09873000  1.0 -0.1402045911
C  C583  1  0.25493000  0.31367000  0.41487000  1.0 -0.0912571106
C  C584  1  0.92160000  0.64700000  0.74820000  1.0 -0.0912571106
C  C585  1  0.58827000  0.98033000  0.08153000  1.0 -0.0912571106
C  C586  1  0.83317000  0.14983000  0.29633000  1.0 -0.1402045911
C  C587  1  0.49983000  0.48317000  0.62967000  1.0 -0.1402045911
C  C588  1  0.16650000  0.81650000  0.96300000  1.0 -0.1402045911
C  C589  1  0.89393000  0.22147000  0.30667000  1.0 -0.0503065531
C  C590  1  0.56060000  0.55480000  0.64000000  1.0 -0.0591042614
C  C591  1  0.22727000  0.88813000  0.97333000  1.0 -0.0503065531
C  C592  1  0.74074000  0.04578000  0.28026000  1.0 -0.0099780654
C  C593  1  0.40741000  0.37911000  0.61359000  1.0 -0.0099780654
C  C594  1  0.07407000  0.71245000  0.94693000  1.0 -0.0099780654
C  C595  1  0.76266000  0.04172000  0.26854000  1.0 -0.0099780654
C  C596  1  0.42933000  0.37505000  0.60187000  1.0 -0.0099780654
C  C597  1  0.09599000  0.70839000  0.93521000  1.0 -0.0099780654
C  C598  1  0.80040000  0.11360000  0.29270000  1.0 -0.1000153185
C  C599  1  0.46707000  0.44693000  0.62603000  1.0 -0.1000153185
C  C600  1  0.13373000  0.78027000  0.95937000  1.0 -0.1000153185
C  C601  1  0.79343000  0.07615000  0.27427000  1.0 -0.0099780654
C  C602  1  0.46009000  0.40949000  0.60761000  1.0 -0.0099780654
C  C603  1  0.12676000  0.74282000  0.94094000  1.0 -0.0099780654
C  C604  1  0.85360000  0.14820000  0.28040000  1.0 -0.1402045911
C  C605  1  0.52027000  0.48153000  0.61373000  1.0 -0.1402045911
C  C606  1  0.18693000  0.81487000  0.94707000  1.0 -0.1402045911
C  C607  1  0.77727000  0.11703000  0.30423000  1.0 -0.1570908766
C  C608  1  0.44393000  0.45037000  0.63757000  1.0 -0.1570908766
C  C609  1  0.11060000  0.78370000  0.97090000  1.0 -0.1570908766
C  C610  1  0.88483000  0.18427000  0.28697000  1.0 -0.0912571106
C  C611  1  0.55150000  0.51760000  0.62030000  1.0 -0.0912571106
C  C612  1  0.21817000  0.85093000  0.95363000  1.0 -0.0912571106
C  C613  1  0.74610000  0.08300000  0.29940000  1.0 -0.1000153185
C  C614  1  0.41277000  0.41633000  0.63273000  1.0 -0.1000153185
C  C615  1  0.07943000  0.74967000  0.96607000  1.0 -0.1000153185
C  C616  1  0.92807000  0.25943000  0.30993000  1.0 0.020761226
C  C617  1  0.59473000  0.59277000  0.64327000  1.0 0.020761226
C  C618  1  0.26140000  0.92610000  0.97660000  1.0 0.020761226
C  C619  1  0.84083000  0.18437000  0.31717000  1.0 -0.1570908766
C  C620  1  0.50750000  0.51770000  0.65050000  1.0 -0.1570908766
C  C621  1  0.17417000  0.85103000  0.98383000  1.0 -0.1570908766
C  C622  1  0.87380000  0.22120000  0.32240000  1.0 -0.1000153185
C  C623  1  0.54047000  0.55453000  0.65573000  1.0 -0.1000153185
C  C624  1  0.20713000  0.88787000  0.98907000  1.0 -0.1000153185
C  C625  1  0.98333000  0.35367000  0.50017000  1.0 -0.0912571106
C  C626  1  0.65000000  0.68700000  0.83350000  1.0 -0.0912571106
C  C627  1  0.31667000  0.02033000  0.16683000  1.0 -0.0912571106
C  C628  1  0.99420000  0.35420000  0.43940000  1.0 -0.0503065531
C  C629  1  0.66087000  0.68753000  0.77273000  1.0 -0.0503065531
C  C630  1  0.32753000  0.02087000  0.10607000  1.0 -0.0503065531
C  C631  1  0.97171000  0.35811000  0.59259000  1.0 -0.0184974533
C  C632  1  0.63837000  0.69145000  0.92593000  1.0 -0.0184974533
C  C633  1  0.30504000  0.02478000  0.25926000  1.0 -0.0184974533
C  C634  1  0.94573000  0.34385000  0.57067000  1.0 0.0020346547
C  C635  1  0.61239000  0.67719000  0.90401000  1.0 0.0020346547
C  C636  1  0.27906000  0.01052000  0.23734000  1.0 0.0020346547
C  C637  1  0.97987000  0.35383000  0.53293000  1.0 -0.0285564681
C  C638  1  0.64653000  0.68717000  0.86627000  1.0 -0.0285564681
C  C639  1  0.31320000  0.02050000  0.19960000  1.0 -0.0285564681
C  C640  1  0.94939000  0.34179000  0.53991000  1.0 0.020761226
C  C641  1  0.61606000  0.67512000  0.87324000  1.0 0.0144092541
C  C642  1  0.28273000  0.00845000  0.20657000  1.0 0.0144092541
C  C643  1  0.96127000  0.34753000  0.47973000  1.0 -0.1206271962
C  C644  1  0.62793000  0.68087000  0.81307000  1.0 -0.1206271962
C  C645  1  0.29460000  0.01420000  0.14640000  1.0 -0.1206271962
C  C646  1  0.00643000  0.36887000  0.55607000  1.0 -0.0713749157
C  C647  1  0.67310000  0.70220000  0.88940000  1.0 -0.0713749157
C  C648  1  0.33977000  0.03553000  0.22273000  1.0 -0.0713749157
C  C649  1  0.96610000  0.34580000  0.44850000  1.0 -0.0503065531
C  C650  1  0.63277000  0.67913000  0.78183000  1.0 -0.0503065531
C  C651  1  0.29943000  0.01247000  0.11517000  1.0 -0.0503065531
C  C652  1  0.00357000  0.37083000  0.58723000  1.0 -0.0591042614
C  C653  1  0.67023000  0.70417000  0.92057000  1.0 -0.0591042614
C  C654  1  0.33690000  0.03750000  0.25390000  1.0 -0.0591042614
C  C655  1  0.99803000  0.35477000  0.40527000  1.0 -0.0184974533
C  C656  1  0.66470000  0.68810000  0.73860000  1.0 -0.0184974533
C  C657  1  0.33137000  0.02143000  0.07193000  1.0 -0.0184974533
C  C658  1  0.01020000  0.35970000  0.49250000  1.0 -0.1206271962
C  C659  1  0.67687000  0.69303000  0.82583000  1.0 -0.1206271962
C  C660  1  0.34353000  0.02637000  0.15917000  1.0 -0.1206271962
C  C661  1  0.01407000  0.35833000  0.45953000  1.0 -0.0713749157
C  C662  1  0.68073000  0.69167000  0.79287000  1.0 -0.0713749157
C  C663  1  0.34740000  0.02500000  0.12620000  1.0 -0.0713749157
C  C664  1  0.03700000  0.20350000  0.35000000  1.0 -0.1402045911
C  C665  1  0.70367000  0.53683000  0.68333000  1.0 -0.1402045911
C  C666  1  0.37033000  0.87017000  0.01667000  1.0 -0.1402045911
C  C667  1  0.02667000  0.25393000  0.33913000  1.0 -0.0503065531
C  C668  1  0.69333000  0.58727000  0.67247000  1.0 -0.0503065531
C  C669  1  0.36000000  0.92060000  0.00580000  1.0 -0.0503065531
C  C670  1  0.05307000  0.12715000  0.36163000  1.0 -0.0591042614
C  C671  1  0.71974000  0.46048000  0.69496000  1.0 -0.0591042614
C  C672  1  0.38641000  0.79381000  0.02829000  1.0 -0.0591042614
C  C673  1  0.06479000  0.16079000  0.38761000  1.0 0.0020346547
C  C674  1  0.73146000  0.49412000  0.72094000  1.0 0.0020346547
C  C675  1  0.39813000  0.82745000  0.05427000  1.0 0.0020346547
C  C676  1  0.04063000  0.17437000  0.35347000  1.0 -0.1000153185
C  C677  1  0.70730000  0.50770000  0.68680000  1.0 -0.1000153185
C  C678  1  0.37397000  0.84103000  0.02013000  1.0 -0.1000153185
C  C679  1  0.05906000  0.18582000  0.38394000  1.0 -0.0285564681
C  C680  1  0.72573000  0.51915000  0.71727000  1.0 -0.0285564681
C  C681  1  0.39239000  0.85249000  0.05061000  1.0 -0.0285564681
C  C682  1  0.05293000  0.23987000  0.37207000  1.0 -0.1206271962
C  C683  1  0.71960000  0.57320000  0.70540000  1.0 -0.1206271962
C  C684  1  0.38627000  0.90653000  0.03873000  1.0 -0.1206271962
C  C685  1  0.02910000  0.13970000  0.32690000  1.0 -0.1511640858
C  C686  1  0.69577000  0.47303000  0.66023000  1.0 -0.1511640858
C  C687  1  0.36243000  0.80637000  0.99357000  1.0 -0.1511640858
C  C688  1  0.04637000  0.26453000  0.36723000  1.0 -0.0912571106
C  C689  1  0.71303000  0.59787000  0.70057000  1.0 -0.0912571106
C  C690  1  0.37970000  0.93120000  0.03390000  1.0 -0.0912571106
C  C691  1  0.03393000  0.11337000  0.32977000  1.0 -0.1402045911
C  C692  1  0.70060000  0.44670000  0.66310000  1.0 -0.1402045911
C  C693  1  0.36727000  0.78003000  0.99643000  1.0 -0.1402045911
C  C694  1  0.02340000  0.28480000  0.33530000  1.0 0.0368111459
C  C695  1  0.69007000  0.61813000  0.66863000  1.0 0.0368111459
C  C696  1  0.35673000  0.95147000  0.00197000  1.0 0.0368111459
C  C697  1  0.01617000  0.19033000  0.32313000  1.0 -0.1402045911
C  C698  1  0.68283000  0.52367000  0.65647000  1.0 -0.1402045911
C  C699  1  0.34950000  0.85700000  0.98980000  1.0 -0.1402045911
C  C700  1  0.01093000  0.21807000  0.31927000  1.0 -0.0912571106
C  C701  1  0.67760000  0.55140000  0.65260000  1.0 -0.0912571106
C  C702  1  0.34427000  0.88473000  0.98593000  1.0 -0.0912571106
C  C703  1  0.00017000  0.12983000  0.48333000  1.0 -0.1402045911
C  C704  1  0.66683000  0.46317000  0.81667000  1.0 -0.1402045911
C  C705  1  0.33350000  0.79650000  0.15000000  1.0 -0.1402045911
C  C706  1  0.93940000  0.07940000  0.49420000  1.0 -0.0503065531
C  C707  1  0.60607000  0.41273000  0.82753000  1.0 -0.0503065531
C  C708  1  0.27273000  0.74607000  0.16087000  1.0 -0.0503065531
C  C709  1  0.09259000  0.20619000  0.47171000  1.0 -0.0591042614
C  C710  1  0.75926000  0.53952000  0.80504000  1.0 -0.0591042614
C  C711  1  0.42593000  0.87285000  0.13837000  1.0 -0.0591042614
C  C712  1  0.07067000  0.17255000  0.44573000  1.0 0.0020346547
C  C713  1  0.73734000  0.50588000  0.77906000  1.0 0.0020346547
C  C714  1  0.40401000  0.83921000  0.11239000  1.0 0.0020346547
C  C715  1  0.03293000  0.15897000  0.47987000  1.0 -0.1000153185
C  C716  1  0.69960000  0.49230000  0.81320000  1.0 -0.1000153185
C  C717  1  0.36627000  0.82563000  0.14653000  1.0 -0.1000153185
C  C718  1  0.03991000  0.14751000  0.44939000  1.0 -0.0285564681
C  C719  1  0.70657000  0.48085000  0.78273000  1.0 -0.0285564681
C  C720  1  0.37324000  0.81418000  0.11606000  1.0 -0.0285564681
C  C721  1  0.97973000  0.09347000  0.46127000  1.0 -0.1206271962
C  C722  1  0.64640000  0.42680000  0.79460000  1.0 -0.1206271962
C  C723  1  0.31307000  0.76013000  0.12793000  1.0 -0.1206271962
C  C724  1  0.05607000  0.19363000  0.50643000  1.0 -0.1511640858
C  C725  1  0.72273000  0.52697000  0.83977000  1.0 -0.1511640858
C  C726  1  0.38940000  0.86030000  0.17310000  1.0 -0.1511640858
C  C727  1  0.94850000  0.06880000  0.46610000  1.0 -0.0912571106
C  C728  1  0.61517000  0.40213000  0.79943000  1.0 -0.0912571106
C  C729  1  0.28183000  0.73547000  0.13277000  1.0 -0.0912571106
C  C730  1  0.08723000  0.21997000  0.50357000  1.0 -0.1402045911
C  C731  1  0.75390000  0.55330000  0.83690000  1.0 -0.1402045911
C  C732  1  0.42057000  0.88663000  0.17023000  1.0 -0.1402045911
C  C733  1  0.90527000  0.04853000  0.49803000  1.0 0.0368111459
C  C734  1  0.57193000  0.38187000  0.83137000  1.0 0.0368111459
C  C735  1  0.23860000  0.71520000  0.16470000  1.0 0.0368111459
C  C736  1  0.99250000  0.14300000  0.51020000  1.0 -0.1402045911
C  C737  1  0.65917000  0.47633000  0.84353000  1.0 -0.1402045911
C  C738  1  0.32583000  0.80967000  0.17687000  1.0 -0.1402045911
C  C739  1  0.95953000  0.11527000  0.51407000  1.0 -0.0912571106
C  C740  1  0.62620000  0.44860000  0.84740000  1.0 -0.0912571106
C  C741  1  0.29287000  0.78193000  0.18073000  1.0 -0.0912571106
C  C742  1  0.85000000  0.18350000  0.53700000  1.0 -0.1402045911
C  C743  1  0.51667000  0.51683000  0.87033000  1.0 -0.1402045911
C  C744  1  0.18333000  0.85017000  0.20367000  1.0 -0.1402045911
C  C745  1  0.83913000  0.11187000  0.52667000  1.0 -0.0591042614
C  C746  1  0.50580000  0.44520000  0.86000000  1.0 -0.0591042614
C  C747  1  0.17247000  0.77853000  0.19333000  1.0 -0.0503065531
C  C748  1  0.86163000  0.28755000  0.55307000  1.0 -0.0099780654
C  C749  1  0.52829000  0.62089000  0.88641000  1.0 -0.0099780654
C  C750  1  0.19496000  0.95422000  0.21974000  1.0 -0.0099780654
C  C751  1  0.88761000  0.29161000  0.56479000  1.0 -0.0099780654
C  C752  1  0.55427000  0.62495000  0.89813000  1.0 -0.0099780654
C  C753  1  0.22094000  0.95828000  0.23146000  1.0 -0.0099780654
C  C754  1  0.85347000  0.21973000  0.54063000  1.0 -0.1000153185
C  C755  1  0.52013000  0.55307000  0.87397000  1.0 -0.1000153185
C  C756  1  0.18680000  0.88640000  0.20730000  1.0 -0.1000153185
C  C757  1  0.88394000  0.25718000  0.55906000  1.0 -0.0099780654
C  C758  1  0.55061000  0.59051000  0.89239000  1.0 -0.0099780654
C  C759  1  0.21727000  0.92385000  0.22573000  1.0 -0.0099780654
C  C760  1  0.87207000  0.18513000  0.55293000  1.0 -0.1402045911
C  C761  1  0.53873000  0.51847000  0.88627000  1.0 -0.1402045911
C  C762  1  0.20540000  0.85180000  0.21960000  1.0 -0.1402045911
C  C763  1  0.82690000  0.21630000  0.52910000  1.0 -0.1570908766
C  C764  1  0.49357000  0.54963000  0.86243000  1.0 -0.1570908766
C  C765  1  0.16023000  0.88297000  0.19577000  1.0 -0.1570908766
C  C766  1  0.86723000  0.14907000  0.54637000  1.0 -0.0912571106
C  C767  1  0.53390000  0.48240000  0.87970000  1.0 -0.0912571106
C  C768  1  0.20057000  0.81573000  0.21303000  1.0 -0.0912571106
C  C769  1  0.82977000  0.25033000  0.53393000  1.0 -0.1000153185
C  C770  1  0.49643000  0.58367000  0.86727000  1.0 -0.1000153185
C  C771  1  0.16310000  0.91700000  0.20060000  1.0 -0.1000153185
C  C772  1  0.83530000  0.07390000  0.52340000  1.0 0.020761226
C  C773  1  0.50197000  0.40723000  0.85673000  1.0 0.020761226
C  C774  1  0.16863000  0.74057000  0.19007000  1.0 0.020761226
C  C775  1  0.82313000  0.14897000  0.51617000  1.0 -0.1570908766
C  C776  1  0.48980000  0.48230000  0.84950000  1.0 -0.1570908766
C  C777  1  0.15647000  0.81563000  0.18283000  1.0 -0.1570908766
C  C778  1  0.81927000  0.11213000  0.51093000  1.0 -0.1000153185
C  C779  1  0.48593000  0.44547000  0.84427000  1.0 -0.1000153185
C  C780  1  0.15260000  0.77880000  0.17760000  1.0 -0.1000153185
C  C781  1  0.79633000  0.97967000  0.33317000  1.0 -0.0912571106
C  C782  1  0.46300000  0.31300000  0.66650000  1.0 -0.0912571106
C  C783  1  0.12967000  0.64633000  0.99983000  1.0 -0.0912571106
C  C784  1  0.80667000  0.97913000  0.39393000  1.0 -0.0503065531
C  C785  1  0.47333000  0.31247000  0.72727000  1.0 -0.0503065531
C  C786  1  0.14000000  0.64580000  0.06060000  1.0 -0.0503065531
C  C787  1  0.78026000  0.97522000  0.24074000  1.0 -0.0184974533
C  C788  1  0.44693000  0.30855000  0.57407000  1.0 -0.0184974533
C  C789  1  0.11359000  0.64189000  0.90741000  1.0 -0.0184974533
C  C790  1  0.76854000  0.98948000  0.26266000  1.0 0.0020346547
C  C791  1  0.43521000  0.32281000  0.59599000  1.0 0.0020346547
C  C792  1  0.10187000  0.65615000  0.92933000  1.0 0.0020346547
C  C793  1  0.79270000  0.97950000  0.30040000  1.0 -0.0285564681
C  C794  1  0.45937000  0.31283000  0.63373000  1.0 -0.0285564681
C  C795  1  0.12603000  0.64617000  0.96707000  1.0 -0.0285564681
C  C796  1  0.77427000  0.99155000  0.29343000  1.0 0.0144092541
C  C797  1  0.44094000  0.32488000  0.62676000  1.0 0.0144092541
C  C798  1  0.10761000  0.65821000  0.96009000  1.0 0.0144092541
C  C799  1  0.78040000  0.98580000  0.35360000  1.0 -0.1206271962
C  C800  1  0.44707000  0.31913000  0.68693000  1.0 -0.1206271962
C  C801  1  0.11373000  0.65247000  0.02027000  1.0 -0.1206271962
C  C802  1  0.80423000  0.96447000  0.27727000  1.0 -0.0713749157
C  C803  1  0.47090000  0.29780000  0.61060000  1.0 -0.0713749157
C  C804  1  0.13757000  0.63113000  0.94393000  1.0 -0.0713749157
C  C805  1  0.78697000  0.98753000  0.38483000  1.0 -0.0503065531
C  C806  1  0.45363000  0.32087000  0.71817000  1.0 -0.0503065531
C  C807  1  0.12030000  0.65420000  0.05150000  1.0 -0.0503065531
C  C808  1  0.79940000  0.96250000  0.24610000  1.0 -0.0503065531
C  C809  1  0.46607000  0.29583000  0.57943000  1.0 -0.0591042614
C  C810  1  0.13273000  0.62917000  0.91277000  1.0 -0.0591042614
C  C811  1  0.80993000  0.97857000  0.42807000  1.0 -0.0184974533
C  C812  1  0.47660000  0.31190000  0.76140000  1.0 -0.0184974533
C  C813  1  0.14327000  0.64523000  0.09473000  1.0 -0.0184974533
C  C814  1  0.81717000  0.97363000  0.34083000  1.0 -0.1206271962
C  C815  1  0.48383000  0.30697000  0.67417000  1.0 -0.1206271962
C  C816  1  0.15050000  0.64030000  0.00750000  1.0 -0.1206271962
C  C817  1  0.82240000  0.97500000  0.37380000  1.0 -0.0713749157
C  C818  1  0.48907000  0.30833000  0.70713000  1.0 -0.0713749157
C  C819  1  0.15573000  0.64167000  0.04047000  1.0 -0.0713749157
C  C820  1  0.09750000  0.06550000  0.41900000  1.0 -0.1402045911
C  C821  1  0.76417000  0.39883000  0.75233000  1.0 -0.1402045911
C  C822  1  0.43083000  0.73217000  0.08567000  1.0 -0.1402045911
C  C823  1  0.11740000  0.03420000  0.44900000  1.0 -0.0503065531
C  C824  1  0.78407000  0.36753000  0.78233000  1.0 -0.0503065531
C  C825  1  0.45073000  0.70087000  0.11567000  1.0 -0.0503065531
C  C826  1  0.06373000  0.10645000  0.37197000  1.0 -0.0591042614
C  C827  1  0.73039000  0.43979000  0.70531000  1.0 -0.0591042614
C  C828  1  0.39706000  0.77312000  0.03864000  1.0 -0.0591042614
C  C829  1  0.08054000  0.12988000  0.40306000  1.0 0.0020346547
C  C830  1  0.74721000  0.46321000  0.73639000  1.0 0.0020346547
C  C831  1  0.41387000  0.79655000  0.06973000  1.0 0.0020346547
C  C832  1  0.08647000  0.07983000  0.40073000  1.0 -0.1000153185
C  C833  1  0.75313000  0.41317000  0.73407000  1.0 -0.1000153185
C  C834  1  0.41980000  0.74650000  0.06740000  1.0 -0.1000153185
C  C835  1  0.09217000  0.11665000  0.41853000  1.0 -0.0285564681
C  C836  1  0.75884000  0.44998000  0.75186000  1.0 -0.0285564681
C  C837  1  0.42551000  0.78331000  0.08519000  1.0 -0.0285564681
C  C838  1  0.10840000  0.08280000  0.45060000  1.0 -0.1206271962
C  C839  1  0.77507000  0.41613000  0.78393000  1.0 -0.1206271962
C  C840  1  0.44173000  0.74947000  0.11727000  1.0 -0.1206271962
C  C841  1  0.06873000  0.05597000  0.36877000  1.0 -0.1511640858
C  C842  1  0.73540000  0.38930000  0.70210000  1.0 -0.1511640858
C  C843  1  0.40207000  0.72263000  0.03543000  1.0 -0.1511640858
C  C844  1  0.11997000  0.06813000  0.46543000  1.0 -0.0912571106
C  C845  1  0.78663000  0.40147000  0.79877000  1.0 -0.0912571106
C  C846  1  0.45330000  0.73480000  0.13210000  1.0 -0.0912571106
C  C847  1  0.05703000  0.06857000  0.35217000  1.0 -0.1402045911
C  C848  1  0.72370000  0.40190000  0.68550000  1.0 -0.1402045911
C  C849  1  0.39037000  0.73523000  0.01883000  1.0 -0.1402045911
C  C850  1  0.12840000  0.01880000  0.46830000  1.0 0.0323840369
C  C851  1  0.79507000  0.35213000  0.80163000  1.0 0.0368111459
C  C852  1  0.46173000  0.68547000  0.13497000  1.0 0.0368111459
C  C853  1  0.09603000  0.03407000  0.40127000  1.0 -0.1402045911
C  C854  1  0.76270000  0.36740000  0.73460000  1.0 -0.1402045911
C  C855  1  0.42937000  0.70073000  0.06793000  1.0 -0.1402045911
C  C856  1  0.10793000  0.01967000  0.41847000  1.0 -0.0912571106
C  C857  1  0.77460000  0.35300000  0.75180000  1.0 -0.0912571106
C  C858  1  0.44127000  0.68633000  0.08513000  1.0 -0.0912571106
C  C859  1  0.24767000  0.01183000  0.36533000  1.0 -0.1402045911
C  C860  1  0.91433000  0.34517000  0.69867000  1.0 -0.1402045911
C  C861  1  0.58100000  0.67850000  0.03200000  1.0 -0.1402045911
C  C862  1  0.21767000  0.00173000  0.41653000  1.0 -0.0591042614
C  C863  1  0.88433000  0.33507000  0.74987000  1.0 -0.0591042614
C  C864  1  0.55100000  0.66840000  0.08320000  1.0 -0.0591042614
C  C865  1  0.29469000  0.02509000  0.29061000  1.0 -0.0099780654
C  C866  1  0.96136000  0.35842000  0.62394000  1.0 -0.0099780654
C  C867  1  0.62803000  0.69175000  0.95727000  1.0 -0.0099780654
C  C868  1  0.26361000  0.01081000  0.28399000  1.0 -0.0099780654
C  C869  1  0.93027000  0.34415000  0.61733000  1.0 -0.0099780654
C  C870  1  0.59694000  0.67748000  0.95066000  1.0 -0.0099780654
C  C871  1  0.26593000  0.01907000  0.33997000  1.0 -0.1000153185
C  C872  1  0.93260000  0.35240000  0.67330000  1.0 -0.1000153185
C  C873  1  0.59927000  0.68573000  0.00663000  1.0 -0.1000153185
C  C874  1  0.24814000  0.00698000  0.30886000  1.0 -0.0099780654
C  C875  1  0.91481000  0.34031000  0.64219000  1.0 -0.0099780654
C  C876  1  0.58147000  0.67365000  0.97553000  1.0 -0.0099780654
C  C877  1  0.21607000  0.99113000  0.35893000  1.0 -0.1402045911
C  C878  1  0.88273000  0.32447000  0.69227000  1.0 -0.1402045911
C  C879  1  0.54940000  0.65780000  0.02560000  1.0 -0.1402045911
C  C880  1  0.29790000  0.03330000  0.34610000  1.0 -0.1570908766
C  C881  1  0.96457000  0.36663000  0.67943000  1.0 -0.1570908766
C  C882  1  0.63123000  0.69997000  0.01277000  1.0 -0.1511640858
C  C883  1  0.20123000  0.98787000  0.38517000  1.0 -0.0912571106
C  C884  1  0.86790000  0.32120000  0.71850000  1.0 -0.0912571106
C  C885  1  0.53457000  0.65453000  0.05183000  1.0 -0.0912571106
C  C886  1  0.31450000  0.03820000  0.32180000  1.0 -0.1000153185
C  C887  1  0.98117000  0.37153000  0.65513000  1.0 -0.1000153185
C  C888  1  0.64783000  0.70487000  0.98847000  1.0 -0.1000153185
C  C889  1  0.19837000  0.99343000  0.44293000  1.0 0.020761226
C  C890  1  0.86503000  0.32677000  0.77627000  1.0 0.020761226
C  C891  1  0.53170000  0.66010000  0.10960000  1.0 0.020761226
C  C892  1  0.26540000  0.02810000  0.39530000  1.0 -0.1570908766
C  C893  1  0.93207000  0.36143000  0.72863000  1.0 -0.1570908766
C  C894  1  0.59873000  0.69477000  0.06197000  1.0 -0.1570908766
C  C895  1  0.24820000  0.02280000  0.42160000  1.0 -0.1000153185
C  C896  1  0.91487000  0.35613000  0.75493000  1.0 -0.1000153185
C  C897  1  0.58153000  0.68947000  0.08827000  1.0 -0.1000153185
C  C898  1  0.30133000  0.21567000  0.56917000  1.0 -0.0912571106
C  C899  1  0.96800000  0.54900000  0.90250000  1.0 -0.0912571106
C  C900  1  0.63467000  0.88233000  0.23583000  1.0 -0.0912571106
C  C901  1  0.25013000  0.13447000  0.54927000  1.0 -0.0503065531
C  C902  1  0.91680000  0.46780000  0.88260000  1.0 -0.0503065531
C  C903  1  0.58347000  0.80113000  0.21593000  1.0 -0.0503065531
C  C904  1  0.37606000  0.33742000  0.60294000  1.0 -0.0184974533
C  C905  1  0.04273000  0.67075000  0.93627000  1.0 -0.0184974533
C  C906  1  0.70939000  0.00409000  0.26961000  1.0 -0.0184974533
C  C907  1  0.38267000  0.31295000  0.58613000  1.0 0.0020346547
C  C908  1  0.04934000  0.64628000  0.91946000  1.0 0.0020346547
C  C909  1  0.71601000  0.97961000  0.25279000  1.0 0.0020346547
C  C910  1  0.32670000  0.25930000  0.58020000  1.0 -0.0285564681
C  C911  1  0.99337000  0.59263000  0.91353000  1.0 -0.0285564681
C  C912  1  0.66003000  0.92597000  0.24687000  1.0 -0.0285564681
C  C913  1  0.35781000  0.27261000  0.57449000  1.0 0.020761226
C  C914  1  0.02447000  0.60595000  0.90783000  1.0 0.0144092541
C  C915  1  0.69114000  0.93928000  0.24116000  1.0 0.020761226
C  C916  1  0.30773000  0.19047000  0.55827000  1.0 -0.1206271962
C  C917  1  0.97440000  0.52380000  0.89160000  1.0 -0.1206271962
C  C918  1  0.64107000  0.85713000  0.22493000  1.0 -0.1206271962
C  C919  1  0.32057000  0.28513000  0.59793000  1.0 -0.0713749157
C  C920  1  0.98723000  0.61847000  0.93127000  1.0 -0.0713749157
C  C921  1  0.65390000  0.95180000  0.26460000  1.0 -0.0713749157
C  C922  1  0.28150000  0.14940000  0.54670000  1.0 -0.0503065531
C  C923  1  0.94817000  0.48273000  0.88003000  1.0 -0.0503065531
C  C924  1  0.61483000  0.81607000  0.21337000  1.0 -0.0503065531
C  C925  1  0.34487000  0.32603000  0.60963000  1.0 -0.0591042614
C  C926  1  0.01153000  0.65937000  0.94297000  1.0 -0.0591042614
C  C927  1  0.67820000  0.99270000  0.27630000  1.0 -0.0503065531
C  C928  1  0.22373000  0.08877000  0.53827000  1.0 -0.0184974533
C  C929  1  0.89040000  0.42210000  0.87160000  1.0 -0.0184974533
C  C930  1  0.55707000  0.75543000  0.20493000  1.0 -0.0184974533
C  C931  1  0.27137000  0.20343000  0.57063000  1.0 -0.1206271962
C  C932  1  0.93803000  0.53677000  0.90397000  1.0 -0.1206271962
C  C933  1  0.60470000  0.87010000  0.23730000  1.0 -0.1206271962
C  C934  1  0.24507000  0.15993000  0.55873000  1.0 -0.0713749157
C  C935  1  0.91173000  0.49327000  0.89207000  1.0 -0.0713749157
C  C936  1  0.57840000  0.82660000  0.22540000  1.0 -0.0713749157
C  C937  1  0.58333000  0.66666667  0.41667000  1.0 0.0144092541
C  C938  1  0.25000000  0.00000000  0.75000000  1.0 0.0144092541
C  C939  1  0.91667000  0.33333333  0.08333000  1.0 0.0144092541
C  C940  1  0.08333000  0.66666667  0.41667000  1.0 0.0144092541
C  C941  1  0.75000000  0.00000000  0.75000000  1.0 0.0144092541
C  C942  1  0.41667000  0.33333333  0.08333000  1.0 0.0144092541
C  C943  1  0.91667000  0.83333000  0.58333000  1.0 0.0323840369
C  C944  1  0.58333000  0.16667000  0.91667000  1.0 0.0323840369
C  C945  1  0.25000000  0.50000000  0.25000000  1.0 0.0323840369
C  C946  1  0.75000000  0.00000000  0.25000000  1.0 0.0144092541
C  C947  1  0.41667000  0.33333333  0.58333000  1.0 0.0144092541
C  C948  1  0.08333000  0.66666667  0.91667000  1.0 0.0144092541
C  C949  1  0.25000000  0.00000000  0.25000000  1.0 0.0144092541
C  C950  1  0.91667000  0.33333333  0.58333000  1.0 0.0144092541
C  C951  1  0.58333000  0.66666667  0.91667000  1.0 0.0144092541
C  C952  1  0.08333000  0.16667000  0.41667000  1.0 0.0323840369
C  C953  1  0.75000000  0.50000000  0.75000000  1.0 0.0323840369
C  C954  1  0.41667000  0.83333000  0.08333000  1.0 0.0323840369
O  O1  1  0.62497000  0.67690000  0.63511000  1.0 0.1792518105
O  O2  1  0.29163000  0.01024000  0.96845000  1.0 0.1792518105
O  O3  1  0.95830000  0.34357000  0.30178000  1.0 0.1792518105
O  O4  1  0.63747000  0.64046000  0.59915000  1.0 0.1683699979
O  O5  1  0.30414000  0.97379000  0.93248000  1.0 0.1683699979
O  O6  1  0.97080000  0.30713000  0.26582000  1.0 0.1683699979
O  O7  1  0.71860000  0.75016000  0.70837000  1.0 0.129020889
O  O8  1  0.38527000  0.08349000  0.04170000  1.0 0.129020889
O  O9  1  0.05194000  0.41682000  0.37503000  1.0 0.1228218732
O  O10  1  0.66966000  0.73717000  0.69586000  1.0 0.0797036034
O  O11  1  0.33632000  0.07051000  0.02920000  1.0 0.0797036034
O  O12  1  0.00299000  0.40384000  0.36253000  1.0 0.0699584305
O  O13  1  0.69822000  0.65652000  0.61473000  1.0 0.1792518105
O  O14  1  0.36489000  0.98985000  0.94806000  1.0 0.1792518105
O  O15  1  0.03155000  0.32319000  0.28140000  1.0 0.1792518105
O  O16  1  0.73418000  0.70499000  0.66368000  1.0 0.1683699979
O  O17  1  0.40085000  0.03832000  0.99701000  1.0 0.1683699979
O  O18  1  0.06752000  0.37165000  0.33034000  1.0 0.1683699979
O  O19  1  0.06956000  0.71215000  0.67036000  1.0 0.1683699979
O  O20  1  0.73623000  0.04548000  0.00369000  1.0 0.1792518105
O  O21  1  0.40289000  0.37882000  0.33703000  1.0 0.1792518105
O  O22  1  0.05674000  0.74795000  0.70664000  1.0 0.1644906883
O  O23  1  0.72340000  0.08129000  0.03998000  1.0 0.1683699979
O  O24  1  0.39007000  0.41462000  0.37331000  1.0 0.1644906883
O  O25  1  0.97592000  0.63890000  0.59711000  1.0 0.129020889
O  O26  1  0.64259000  0.97223000  0.93044000  1.0 0.1228218732
O  O27  1  0.30926000  0.30556000  0.26377000  1.0 0.1228218732
O  O28  1  0.02455000  0.65124000  0.60993000  1.0 0.0699584305
O  O29  1  0.69122000  0.98457000  0.94326000  1.0 0.0797036034
O  O30  1  0.35788000  0.31791000  0.27660000  1.0 0.0797036034
O  O31  1  0.99631000  0.73253000  0.69074000  1.0 0.1792518105
O  O32  1  0.66297000  0.06587000  0.02408000  1.0 0.1792518105
O  O33  1  0.32964000  0.39920000  0.35741000  1.0 0.1792518105
O  O34  1  0.96002000  0.68343000  0.64212000  1.0 0.1683699979
O  O35  1  0.62669000  0.01676000  0.97545000  1.0 0.1683699979
O  O36  1  0.29336000  0.35009000  0.30878000  1.0 0.1683699979
O  O37  1  0.09711000  0.93413000  0.47592000  1.0 0.1792518105
O  O38  1  0.76377000  0.26747000  0.80926000  1.0 0.1792518105
O  O39  1  0.43044000  0.60080000  0.14259000  1.0 0.1792518105
O  O40  1  0.10993000  0.98324000  0.52455000  1.0 0.1683699979
O  O41  1  0.77660000  0.31657000  0.85788000  1.0 0.1683699979
O  O42  1  0.44326000  0.64991000  0.19122000  1.0 0.1683699979
O  O43  1  0.19074000  0.95452000  0.49631000  1.0 0.1792518105
O  O44  1  0.85741000  0.28785000  0.82964000  1.0 0.1792518105
O  O45  1  0.52408000  0.62118000  0.16297000  1.0 0.1792518105
O  O46  1  0.14212000  0.91871000  0.46002000  1.0 0.1644906883
O  O47  1  0.80878000  0.25205000  0.79336000  1.0 0.1683699979
O  O48  1  0.47545000  0.58538000  0.12669000  1.0 0.1644906883
O  O49  1  0.17036000  0.02777000  0.56956000  1.0 0.129020889
O  O50  1  0.83703000  0.36110000  0.90289000  1.0 0.129020889
O  O51  1  0.50369000  0.69444000  0.23623000  1.0 0.1228218732
O  O52  1  0.20664000  0.01543000  0.55674000  1.0 0.0797036034
O  O53  1  0.87331000  0.34876000  0.89007000  1.0 0.0797036034
O  O54  1  0.53998000  0.68209000  0.22340000  1.0 0.0699584305
O  O55  1  0.87503000  0.01015000  0.55194000  1.0 0.1792518105
O  O56  1  0.54170000  0.34348000  0.88527000  1.0 0.1792518105
O  O57  1  0.20837000  0.67681000  0.21860000  1.0 0.1792518105
O  O58  1  0.86253000  0.96168000  0.50299000  1.0 0.1683699979
O  O59  1  0.52920000  0.29501000  0.83632000  1.0 0.1683699979
O  O60  1  0.19586000  0.62835000  0.16966000  1.0 0.1683699979
O  O61  1  0.78140000  0.98976000  0.53155000  1.0 0.1792518105
O  O62  1  0.44806000  0.32310000  0.86489000  1.0 0.1792518105
O  O63  1  0.11473000  0.65643000  0.19822000  1.0 0.1683699979
O  O64  1  0.83034000  0.02621000  0.56752000  1.0 0.1683699979
O  O65  1  0.49701000  0.35954000  0.90085000  1.0 0.1683699979
O  O66  1  0.16368000  0.69287000  0.23418000  1.0 0.1644906883
O  O67  1  0.80178000  0.91651000  0.45830000  1.0 0.129020889
O  O68  1  0.46845000  0.24984000  0.79163000  1.0 0.129020889
O  O69  1  0.13511000  0.58318000  0.12497000  1.0 0.1228218732
O  O70  1  0.76582000  0.92949000  0.47080000  1.0 0.0797036034
O  O71  1  0.43248000  0.26283000  0.80414000  1.0 0.0797036034
O  O72  1  0.09915000  0.59616000  0.13747000  1.0 0.0699584305
O  O73  1  0.37503000  0.32310000  0.36489000  1.0 0.1792518105
O  O74  1  0.04170000  0.65643000  0.69822000  1.0 0.1683699979
O  O75  1  0.70837000  0.98976000  0.03155000  1.0 0.1792518105
O  O76  1  0.36253000  0.35954000  0.40085000  1.0 0.1644906883
O  O77  1  0.02920000  0.69287000  0.73418000  1.0 0.1644906883
O  O78  1  0.69586000  0.02621000  0.06752000  1.0 0.1683699979
O  O79  1  0.28140000  0.24984000  0.29163000  1.0 0.1228218732
O  O80  1  0.94806000  0.58318000  0.62497000  1.0 0.129020889
O  O81  1  0.61473000  0.91651000  0.95830000  1.0 0.1228218732
O  O82  1  0.33034000  0.26283000  0.30414000  1.0 0.0797036034
O  O83  1  0.99701000  0.59616000  0.63747000  1.0 0.0797036034
O  O84  1  0.66368000  0.92949000  0.97080000  1.0 0.0797036034
O  O85  1  0.30178000  0.34348000  0.38527000  1.0 0.1792518105
O  O86  1  0.96845000  0.67681000  0.71860000  1.0 0.1792518105
O  O87  1  0.63511000  0.01015000  0.05194000  1.0 0.1792518105
O  O88  1  0.26582000  0.29501000  0.33632000  1.0 0.1683699979
O  O89  1  0.93248000  0.62835000  0.66966000  1.0 0.1683699979
O  O90  1  0.59915000  0.96168000  0.00299000  1.0 0.1683699979
O  O91  1  0.93044000  0.28785000  0.32964000  1.0 0.1792518105
O  O92  1  0.59711000  0.62118000  0.66297000  1.0 0.1792518105
O  O93  1  0.26377000  0.95452000  0.99631000  1.0 0.1792518105
O  O94  1  0.94326000  0.25205000  0.29336000  1.0 0.1683699979
O  O95  1  0.60993000  0.58538000  0.62669000  1.0 0.1683699979
O  O96  1  0.27660000  0.91871000  0.96002000  1.0 0.1644906883
O  O97  1  0.02408000  0.36110000  0.40289000  1.0 0.1228218732
O  O98  1  0.69074000  0.69444000  0.73623000  1.0 0.129020889
O  O99  1  0.35741000  0.02777000  0.06956000  1.0 0.129020889
O  O100  1  0.97545000  0.34876000  0.39007000  1.0 0.0797036034
O  O101  1  0.64212000  0.68209000  0.72340000  1.0 0.0797036034
O  O102  1  0.30878000  0.01543000  0.05674000  1.0 0.0797036034
O  O103  1  0.00369000  0.26747000  0.30926000  1.0 0.1792518105
O  O104  1  0.67036000  0.60080000  0.64259000  1.0 0.1792518105
O  O105  1  0.33703000  0.93413000  0.97592000  1.0 0.1792518105
O  O106  1  0.03998000  0.31657000  0.35788000  1.0 0.1683699979
O  O107  1  0.70664000  0.64991000  0.69122000  1.0 0.1683699979
O  O108  1  0.37331000  0.98324000  0.02455000  1.0 0.1683699979
O  O109  1  0.90289000  0.06587000  0.52408000  1.0 0.1792518105
O  O110  1  0.56956000  0.39920000  0.85741000  1.0 0.1792518105
O  O111  1  0.23623000  0.73253000  0.19074000  1.0 0.1792518105
O  O112  1  0.89007000  0.01676000  0.47545000  1.0 0.1683699979
O  O113  1  0.55674000  0.35009000  0.80878000  1.0 0.1683699979
O  O114  1  0.22340000  0.68343000  0.14212000  1.0 0.1683699979
O  O115  1  0.80926000  0.04548000  0.50369000  1.0 0.1792518105
O  O116  1  0.47592000  0.37882000  0.83703000  1.0 0.1792518105
O  O117  1  0.14259000  0.71215000  0.17036000  1.0 0.1792518105
O  O118  1  0.85788000  0.08129000  0.53998000  1.0 0.1683699979
O  O119  1  0.52455000  0.41462000  0.87331000  1.0 0.1683699979
O  O120  1  0.19122000  0.74795000  0.20664000  1.0 0.1644906883
O  O121  1  0.82964000  0.97223000  0.43044000  1.0 0.129020889
O  O122  1  0.49631000  0.30556000  0.76377000  1.0 0.129020889
O  O123  1  0.16297000  0.63890000  0.09711000  1.0 0.1228218732
O  O124  1  0.79336000  0.98457000  0.44326000  1.0 0.0797036034
O  O125  1  0.46002000  0.31791000  0.77660000  1.0 0.0797036034
O  O126  1  0.12669000  0.65124000  0.10993000  1.0 0.0797036034
O  O127  1  0.12497000  0.98985000  0.44806000  1.0 0.1792518105
O  O128  1  0.79163000  0.32319000  0.78140000  1.0 0.1792518105
O  O129  1  0.45830000  0.65652000  0.11473000  1.0 0.1792518105
O  O130  1  0.13747000  0.03832000  0.49701000  1.0 0.1683699979
O  O131  1  0.80414000  0.37165000  0.83034000  1.0 0.1683699979
O  O132  1  0.47080000  0.70499000  0.16368000  1.0 0.1683699979
O  O133  1  0.21860000  0.01024000  0.46845000  1.0 0.1792518105
O  O134  1  0.88527000  0.34357000  0.80178000  1.0 0.1792518105
O  O135  1  0.55194000  0.67690000  0.13511000  1.0 0.1792518105
O  O136  1  0.16966000  0.97379000  0.43248000  1.0 0.1683699979
O  O137  1  0.83632000  0.30713000  0.76582000  1.0 0.1683699979
O  O138  1  0.50299000  0.64046000  0.09915000  1.0 0.1644906883
O  O139  1  0.19822000  0.08349000  0.54170000  1.0 0.129020889
O  O140  1  0.86489000  0.41682000  0.87503000  1.0 0.129020889
O  O141  1  0.53155000  0.75016000  0.20837000  1.0 0.1228218732
O  O142  1  0.23418000  0.07051000  0.52920000  1.0 0.0797036034
O  O143  1  0.90085000  0.40384000  0.86253000  1.0 0.0797036034
O  O144  1  0.56752000  0.73717000  0.19586000  1.0 0.0797036034
O  O145  1  0.97609000  0.24688000  0.24688000  1.0 -0.0813955972
O  O146  1  0.64276000  0.58021000  0.58021000  1.0 -0.0813955972
O  O147  1  0.30942000  0.91355000  0.91355000  1.0 -0.0813955972
O  O148  1  0.93746000  0.35724000  0.35724000  1.0 -0.0813955972
O  O149  1  0.60412000  0.69058000  0.69058000  1.0 -0.0813955972
O  O150  1  0.27079000  0.02391000  0.02391000  1.0 -0.0813955972
O  O151  1  0.08645000  0.39588000  0.39588000  1.0 -0.0813955972
O  O152  1  0.75312000  0.72921000  0.72921000  1.0 -0.0813955972
O  O153  1  0.41979000  0.06254000  0.06254000  1.0 -0.0813955972
O  O154  1  0.35724000  0.41979000  0.41979000  1.0 -0.0813955972
O  O155  1  0.02391000  0.75312000  0.75312000  1.0 -0.0813955972
O  O156  1  0.69058000  0.08645000  0.08645000  1.0 -0.0813955972
O  O157  1  0.39588000  0.30942000  0.30942000  1.0 -0.0813955972
O  O158  1  0.06254000  0.64276000  0.64276000  1.0 -0.0813955972
O  O159  1  0.72921000  0.97609000  0.97609000  1.0 -0.0813955972
O  O160  1  0.24688000  0.27079000  0.27079000  1.0 -0.0813955972
O  O161  1  0.91355000  0.60412000  0.60412000  1.0 -0.0813955972
O  O162  1  0.58021000  0.93746000  0.93746000  1.0 -0.0813955972
O  O163  1  0.14276000  0.06254000  0.56254000  1.0 -0.0813955972
O  O164  1  0.80942000  0.39588000  0.89588000  1.0 -0.0813955972
O  O165  1  0.47609000  0.72921000  0.22921000  1.0 -0.0813955972
O  O166  1  0.10412000  0.91355000  0.41355000  1.0 -0.0813955972
O  O167  1  0.77079000  0.24688000  0.74688000  1.0 -0.0813955972
O  O168  1  0.43746000  0.58021000  0.08021000  1.0 -0.0813955972
O  O169  1  0.25312000  0.02391000  0.52391000  1.0 -0.0813955972
O  O170  1  0.91979000  0.35724000  0.85724000  1.0 -0.0813955972
O  O171  1  0.58645000  0.69058000  0.19058000  1.0 -0.0813955972
O  O172  1  0.85724000  0.93746000  0.43746000  1.0 -0.0813955972
O  O173  1  0.52391000  0.27079000  0.77079000  1.0 -0.0813955972
O  O174  1  0.19058000  0.60412000  0.10412000  1.0 -0.0813955972
O  O175  1  0.89588000  0.08645000  0.58645000  1.0 -0.0813955972
O  O176  1  0.56254000  0.41979000  0.91979000  1.0 -0.0813955972
O  O177  1  0.22921000  0.75312000  0.25312000  1.0 -0.0813955972
O  O178  1  0.74688000  0.97609000  0.47609000  1.0 -0.0813955972
O  O179  1  0.41355000  0.30942000  0.80942000  1.0 -0.0813955972
O  O180  1  0.08021000  0.64276000  0.14276000  1.0 -0.0813955972
O  O181  1  0.00000000  0.33333333  0.33333333  1.0 0.1905300159
O  O182  1  0.66666667  0.66666667  0.66666667  1.0 0.1905300159
O  O183  1  0.33333333  0.00000000  0.00000000  1.0 0.1905300159
O  O184  1  0.33333333  0.33333333  0.33333333  1.0 0.1905300159
O  O185  1  0.00000000  0.66666667  0.66666667  1.0 0.1905300159
O  O186  1  0.66666667  0.00000000  0.00000000  1.0 0.1905300159
O  O187  1  0.16667000  0.00000000  0.50000000  1.0 0.1905300159
O  O188  1  0.83333000  0.33333333  0.83333000  1.0 0.1905300159
O  O189  1  0.50000000  0.66666667  0.16667000  1.0 0.1905300159
O  O190  1  0.83333000  0.00000000  0.50000000  1.0 0.1905300159
O  O191  1  0.50000000  0.33333333  0.83333000  1.0 0.1905300159
O  O192  1  0.16667000  0.66666667  0.16667000  1.0 0.1905300159
