# DDEC6 charges by PACMAN v1.1 (https://github.com/mtap-research/PACMAN-charge/)
data_QOTLOD_FSR_pacman
_symmetry_space_group_name_H-M   'P 1'
_cell_length_a   14.14210000
_cell_length_b   14.14210000
_cell_length_c   17.32050000
_cell_angle_alpha   90.00000000
_cell_angle_beta   90.00000000
_cell_angle_gamma   120.00000000
_symmetry_Int_Tables_number   1
_chemical_formula_structural   Fe6H84C159O32
_chemical_formula_sum   'Fe36 H504 C954 O192'
_cell_volume   2999.98348741
_cell_formula_units_Z   6
loop_
 _symmetry_equiv_pos_site_id
 _symmetry_equiv_pos_as_xyz
  1  'x, y, z'
loop_
 _atom_site_type_symbol
 _atom_site_label
 _atom_site_symmetry_multiplicity
 _atom_site_fract_x
 _atom_site_fract_y
 _atom_site_fract_z
 _atom_site_occupancy
 _atom_site_charge
Fe  Fe1  1  0.29061000  0.30266000  0.30266000  1.0 0.129658769
Fe  Fe2  1  0.95728000  0.63599000  0.63599000  1.0 0.129658769
Fe  Fe3  1  0.62395000  0.96932000  0.96932000  1.0 0.129658769
Fe  Fe4  1  0.34538000  0.37605000  0.37605000  1.0 0.110208823
Fe  Fe5  1  0.01204000  0.70939000  0.70939000  1.0 0.110208823
Fe  Fe6  1  0.67871000  0.04272000  0.04272000  1.0 0.110208823
Fe  Fe7  1  0.36401000  0.32129000  0.32129000  1.0 0.1249413283
Fe  Fe8  1  0.03068000  0.65462000  0.65462000  1.0 0.1249413283
Fe  Fe9  1  0.69734000  0.98796000  0.98796000  1.0 0.129658769
Fe  Fe10  1  0.04272000  0.36401000  0.36401000  1.0 0.129658769
Fe  Fe11  1  0.70939000  0.69734000  0.69734000  1.0 0.129658769
Fe  Fe12  1  0.37605000  0.03068000  0.03068000  1.0 0.129658769
Fe  Fe13  1  0.98796000  0.29061000  0.29061000  1.0 0.110208823
Fe  Fe14  1  0.65462000  0.62395000  0.62395000  1.0 0.110208823
Fe  Fe15  1  0.32129000  0.95728000  0.95728000  1.0 0.110208823
Fe  Fe16  1  0.96932000  0.34538000  0.34538000  1.0 0.129658769
Fe  Fe17  1  0.63599000  0.67871000  0.67871000  1.0 0.1249413283
Fe  Fe18  1  0.30266000  0.01204000  0.01204000  1.0 0.1249413283
Fe  Fe19  1  0.79061000  0.98796000  0.48796000  1.0 0.129658769
Fe  Fe20  1  0.45728000  0.32129000  0.82129000  1.0 0.1249413283
Fe  Fe21  1  0.12395000  0.65462000  0.15462000  1.0 0.1249413283
Fe  Fe22  1  0.84538000  0.96932000  0.46932000  1.0 0.129658769
Fe  Fe23  1  0.51204000  0.30266000  0.80266000  1.0 0.129658769
Fe  Fe24  1  0.17871000  0.63599000  0.13599000  1.0 0.129658769
Fe  Fe25  1  0.86401000  0.04272000  0.54272000  1.0 0.110208823
Fe  Fe26  1  0.53068000  0.37605000  0.87605000  1.0 0.110208823
Fe  Fe27  1  0.19734000  0.70939000  0.20939000  1.0 0.110208823
Fe  Fe28  1  0.20939000  0.01204000  0.51204000  1.0 0.1249413283
Fe  Fe29  1  0.87605000  0.34538000  0.84538000  1.0 0.129658769
Fe  Fe30  1  0.54272000  0.67871000  0.17871000  1.0 0.129658769
Fe  Fe31  1  0.15462000  0.03068000  0.53068000  1.0 0.1249413283
Fe  Fe32  1  0.82129000  0.36401000  0.86401000  1.0 0.129658769
Fe  Fe33  1  0.48796000  0.69734000  0.19734000  1.0 0.129658769
Fe  Fe34  1  0.13599000  0.95728000  0.45728000  1.0 0.110208823
Fe  Fe35  1  0.80266000  0.29061000  0.79061000  1.0 0.110208823
Fe  Fe36  1  0.46932000  0.62395000  0.12395000  1.0 0.110208823
H  H1  1  0.96553000  0.63917000  0.54557000  1.0 0.104482653
H  H2  1  0.63220000  0.97250000  0.87890000  1.0 0.104482653
H  H3  1  0.29887000  0.30583000  0.21223000  1.0 0.104482653
H  H4  1  0.97287000  0.63943000  0.49543000  1.0 0.0694690614
H  H5  1  0.63953000  0.97277000  0.82877000  1.0 0.0694690614
H  H6  1  0.30620000  0.30610000  0.16210000  1.0 0.0694690614
H  H7  1  0.05453000  0.64847000  0.51297000  1.0 0.0694690614
H  H8  1  0.72120000  0.98180000  0.84630000  1.0 0.0694690614
H  H9  1  0.38787000  0.31513000  0.17963000  1.0 0.0694690614
H  H10  1  0.05060000  0.65710000  0.56460000  1.0 0.110208823
H  H11  1  0.71727000  0.99043000  0.89793000  1.0 0.110208823
H  H12  1  0.38393000  0.32377000  0.23127000  1.0 0.110208823
H  H13  1  0.97183000  0.62247000  0.44777000  1.0 0.0880457487
H  H14  1  0.63850000  0.95580000  0.78110000  1.0 0.0880457487
H  H15  1  0.30517000  0.28913000  0.11443000  1.0 0.0880457487
H  H16  1  0.97657000  0.61673000  0.39563000  1.0 0.0880457487
H  H17  1  0.64323000  0.95007000  0.72897000  1.0 0.0880457487
H  H18  1  0.30990000  0.28340000  0.06230000  1.0 0.0880457487
H  H19  1  0.06920000  0.66870000  0.47610000  1.0 0.0694690614
H  H20  1  0.73587000  0.00203000  0.80943000  1.0 0.0694690614
H  H21  1  0.40253000  0.33537000  0.14277000  1.0 0.0694690614
H  H22  1  0.00697000  0.79473000  0.70113000  1.0 0.104482653
H  H23  1  0.67363000  0.12807000  0.03447000  1.0 0.104482653
H  H24  1  0.34030000  0.46140000  0.36780000  1.0 0.104482653
H  H25  1  0.99990000  0.83780000  0.69380000  1.0 0.0694690614
H  H26  1  0.66657000  0.17113000  0.02713000  1.0 0.0694690614
H  H27  1  0.33323000  0.50447000  0.36047000  1.0 0.0694690614
H  H28  1  0.92727000  0.74763000  0.61213000  1.0 0.0694690614
H  H29  1  0.59393000  0.08097000  0.94547000  1.0 0.0694690614
H  H30  1  0.26060000  0.41430000  0.27880000  1.0 0.0694690614
H  H31  1  0.93983000  0.70857000  0.61607000  1.0 0.129658769
H  H32  1  0.60650000  0.04190000  0.94940000  1.0 0.129658769
H  H33  1  0.27317000  0.37523000  0.28273000  1.0 0.129658769
H  H34  1  0.98397000  0.86953000  0.69483000  1.0 0.0694690614
H  H35  1  0.65063000  0.20287000  0.02817000  1.0 0.0694690614
H  H36  1  0.31730000  0.53620000  0.36150000  1.0 0.0694690614
H  H37  1  0.97350000  0.91120000  0.69010000  1.0 0.0791131344
H  H38  1  0.64017000  0.24453000  0.02343000  1.0 0.0791131344
H  H39  1  0.30683000  0.57787000  0.35677000  1.0 0.0791131344
H  H40  1  0.93283000  0.79007000  0.59747000  1.0 0.0694690614
H  H41  1  0.59950000  0.12340000  0.93080000  1.0 0.0694690614
H  H42  1  0.26617000  0.45673000  0.26413000  1.0 0.0694690614
H  H43  1  0.12110000  0.75330000  0.65970000  1.0 0.129658769
H  H44  1  0.78777000  0.08663000  0.99303000  1.0 0.129658769
H  H45  1  0.45443000  0.41997000  0.32637000  1.0 0.129658769
H  H46  1  0.17123000  0.81077000  0.66677000  1.0 0.0638342739
H  H47  1  0.83790000  0.14410000  0.00010000  1.0 0.0638342739
H  H48  1  0.50457000  0.47743000  0.33343000  1.0 0.0638342739
H  H49  1  0.15370000  0.87490000  0.73940000  1.0 0.0791131344
H  H50  1  0.82037000  0.20823000  0.07273000  1.0 0.0791131344
H  H51  1  0.48703000  0.54157000  0.40607000  1.0 0.0791131344
H  H52  1  0.10207000  0.81933000  0.72683000  1.0 0.0880457487
H  H53  1  0.76873000  0.15267000  0.06017000  1.0 0.0880457487
H  H54  1  0.43540000  0.48600000  0.39350000  1.0 0.0880457487
H  H55  1  0.21890000  0.85740000  0.68270000  1.0 0.0638342739
H  H56  1  0.88557000  0.19073000  0.01603000  1.0 0.0638342739
H  H57  1  0.55223000  0.52407000  0.34937000  1.0 0.0638342739
H  H58  1  0.27103000  0.91427000  0.69317000  1.0 0.0791131344
H  H59  1  0.93770000  0.24760000  0.02650000  1.0 0.0791131344
H  H60  1  0.60437000  0.58093000  0.35983000  1.0 0.0791131344
H  H61  1  0.19057000  0.92643000  0.73383000  1.0 0.0694690614
H  H62  1  0.85723000  0.25977000  0.06717000  1.0 0.0694690614
H  H63  1  0.52390000  0.59310000  0.40050000  1.0 0.0694690614
H  H64  1  0.76353000  0.81897000  0.72537000  1.0 0.104482653
H  H65  1  0.43020000  0.15230000  0.05870000  1.0 0.104482653
H  H66  1  0.09687000  0.48563000  0.39203000  1.0 0.104482653
H  H67  1  0.78980000  0.88590000  0.74190000  1.0 0.0694690614
H  H68  1  0.45647000  0.21923000  0.07523000  1.0 0.0694690614
H  H69  1  0.12313000  0.55257000  0.40857000  1.0 0.0694690614
H  H70  1  0.70247000  0.86553000  0.73003000  1.0 0.0694690614
H  H71  1  0.36913000  0.19887000  0.06337000  1.0 0.0694690614
H  H72  1  0.03580000  0.53220000  0.39670000  1.0 0.0694690614
H  H73  1  0.67773000  0.79957000  0.70707000  1.0 0.110208823
H  H74  1  0.34440000  0.13290000  0.04040000  1.0 0.110208823
H  H75  1  0.01107000  0.46623000  0.37373000  1.0 0.110208823
H  H76  1  0.81130000  0.94380000  0.76910000  1.0 0.0880457487
H  H77  1  0.47797000  0.27713000  0.10243000  1.0 0.0880457487
H  H78  1  0.14463000  0.61047000  0.43577000  1.0 0.0880457487
H  H79  1  0.83750000  0.01140000  0.79030000  1.0 0.0880457487
H  H80  1  0.50417000  0.34473000  0.12363000  1.0 0.0880457487
H  H81  1  0.17083000  0.67807000  0.45697000  1.0 0.0880457487
H  H82  1  0.72587000  0.92143000  0.72883000  1.0 0.0694690614
H  H83  1  0.39253000  0.25477000  0.06217000  1.0 0.0694690614
H  H84  1  0.05920000  0.58810000  0.39550000  1.0 0.0694690614
H  H85  1  0.72210000  0.66340000  0.56980000  1.0 0.104482653
H  H86  1  0.38877000  0.99673000  0.90313000  1.0 0.104482653
H  H87  1  0.05543000  0.33007000  0.23647000  1.0 0.104482653
H  H88  1  0.76277000  0.68753000  0.54353000  1.0 0.0694690614
H  H89  1  0.42943000  0.02087000  0.87687000  1.0 0.0694690614
H  H90  1  0.09610000  0.35420000  0.21020000  1.0 0.0694690614
H  H91  1  0.82973000  0.76637000  0.63087000  1.0 0.0694690614
H  H92  1  0.49640000  0.09970000  0.96420000  1.0 0.0694690614
H  H93  1  0.16307000  0.43303000  0.29753000  1.0 0.0694690614
H  H94  1  0.78850000  0.74810000  0.65560000  1.0 0.129658769
H  H95  1  0.45517000  0.08143000  0.98893000  1.0 0.129658769
H  H96  1  0.12183000  0.41477000  0.32227000  1.0 0.129658769
H  H97  1  0.79917000  0.69673000  0.52203000  1.0 0.0694690614
H  H98  1  0.46583000  0.03007000  0.85537000  1.0 0.0694690614
H  H99  1  0.13250000  0.36340000  0.18870000  1.0 0.0694690614
H  H100  1  0.84057000  0.71693000  0.49583000  1.0 0.0791131344
H  H101  1  0.50723000  0.05027000  0.82917000  1.0 0.0791131344
H  H102  1  0.17390000  0.38360000  0.16250000  1.0 0.0791131344
H  H103  1  0.86223000  0.80007000  0.60747000  1.0 0.0694690614
H  H104  1  0.52890000  0.13340000  0.94080000  1.0 0.0694690614
H  H105  1  0.19557000  0.46673000  0.27413000  1.0 0.0694690614
H  H106  1  0.60797000  0.70483000  0.61123000  1.0 0.129658769
H  H107  1  0.27463000  0.03817000  0.94457000  1.0 0.129658769
H  H108  1  0.94130000  0.37150000  0.27790000  1.0 0.129658769
H  H109  1  0.59143000  0.71457000  0.57057000  1.0 0.0638342739
H  H110  1  0.25810000  0.04790000  0.90390000  1.0 0.0638342739
H  H111  1  0.92477000  0.38123000  0.23723000  1.0 0.0638342739
H  H112  1  0.60330000  0.63910000  0.50360000  1.0 0.0791131344
H  H113  1  0.26997000  0.97243000  0.83693000  1.0 0.0791131344
H  H114  1  0.93663000  0.30577000  0.17027000  1.0 0.0791131344
H  H115  1  0.62627000  0.63733000  0.54483000  1.0 0.0880457487
H  H116  1  0.29293000  0.97067000  0.87817000  1.0 0.0880457487
H  H117  1  0.95960000  0.30400000  0.21150000  1.0 0.0880457487
H  H118  1  0.56423000  0.70887000  0.53417000  1.0 0.0638342739
H  H119  1  0.23090000  0.04220000  0.86750000  1.0 0.0638342739
H  H120  1  0.89757000  0.37553000  0.20083000  1.0 0.0638342739
H  H121  1  0.54303000  0.71387000  0.49277000  1.0 0.0791131344
H  H122  1  0.20970000  0.04720000  0.82610000  1.0 0.0791131344
H  H123  1  0.87637000  0.38053000  0.15943000  1.0 0.0791131344
H  H124  1  0.60450000  0.66370000  0.47110000  1.0 0.0694690614
H  H125  1  0.27117000  0.99703000  0.80443000  1.0 0.0694690614
H  H126  1  0.93783000  0.33037000  0.13777000  1.0 0.0694690614
H  H127  1  0.73647000  0.96183000  0.55543000  1.0 0.129658769
H  H128  1  0.40313000  0.29517000  0.88877000  1.0 0.129658769
H  H129  1  0.06980000  0.62850000  0.22210000  1.0 0.129658769
H  H130  1  0.71020000  0.95210000  0.59610000  1.0 0.0638342739
H  H131  1  0.37687000  0.28543000  0.92943000  1.0 0.0638342739
H  H132  1  0.04353000  0.61877000  0.26277000  1.0 0.0638342739
H  H133  1  0.79753000  0.02757000  0.66307000  1.0 0.0791131344
H  H134  1  0.46420000  0.36090000  0.99640000  1.0 0.0791131344
H  H135  1  0.13087000  0.69423000  0.32973000  1.0 0.0791131344
H  H136  1  0.82227000  0.02933000  0.62183000  1.0 0.0880457487
H  H137  1  0.48893000  0.36267000  0.95517000  1.0 0.0880457487
H  H138  1  0.15560000  0.69600000  0.28850000  1.0 0.0880457487
H  H139  1  0.68870000  0.95780000  0.63250000  1.0 0.0638342739
H  H140  1  0.35537000  0.29113000  0.96583000  1.0 0.0638342739
H  H141  1  0.02203000  0.62447000  0.29917000  1.0 0.0638342739
H  H142  1  0.66250000  0.95280000  0.67390000  1.0 0.0791131344
H  H143  1  0.32917000  0.28613000  0.00723000  1.0 0.0791131344
H  H144  1  0.99583000  0.61947000  0.34057000  1.0 0.0791131344
H  H145  1  0.77413000  0.00297000  0.69557000  1.0 0.0694690614
H  H146  1  0.44080000  0.33630000  0.02890000  1.0 0.0694690614
H  H147  1  0.10747000  0.66963000  0.36223000  1.0 0.0694690614
H  H148  1  0.77790000  0.84770000  0.44130000  1.0 0.104482653
H  H149  1  0.44457000  0.18103000  0.77463000  1.0 0.104482653
H  H150  1  0.11123000  0.51437000  0.10797000  1.0 0.104482653
H  H151  1  0.73723000  0.78077000  0.42477000  1.0 0.0694690614
H  H152  1  0.40390000  0.11410000  0.75810000  1.0 0.0694690614
H  H153  1  0.07057000  0.44743000  0.09143000  1.0 0.0694690614
H  H154  1  0.67027000  0.80113000  0.43663000  1.0 0.0694690614
H  H155  1  0.33693000  0.13447000  0.76997000  1.0 0.0694690614
H  H156  1  0.00360000  0.46780000  0.10330000  1.0 0.0694690614
H  H157  1  0.71150000  0.86710000  0.45960000  1.0 0.110208823
H  H158  1  0.37817000  0.20043000  0.79293000  1.0 0.110208823
H  H159  1  0.04483000  0.53377000  0.12627000  1.0 0.110208823
H  H160  1  0.70083000  0.72287000  0.39757000  1.0 0.0880457487
H  H161  1  0.36750000  0.05620000  0.73090000  1.0 0.0880457487
H  H162  1  0.03417000  0.38953000  0.06423000  1.0 0.0880457487
H  H163  1  0.65943000  0.65527000  0.37637000  1.0 0.0880457487
H  H164  1  0.32610000  0.98860000  0.70970000  1.0 0.0880457487
H  H165  1  0.99277000  0.32193000  0.04303000  1.0 0.0880457487
H  H166  1  0.63777000  0.74523000  0.43783000  1.0 0.0694690614
H  H167  1  0.30443000  0.07857000  0.77117000  1.0 0.0694690614
H  H168  1  0.97110000  0.41190000  0.10450000  1.0 0.0694690614
H  H169  1  0.89203000  0.00327000  0.59687000  1.0 0.104482653
H  H170  1  0.55870000  0.33660000  0.93020000  1.0 0.104482653
H  H171  1  0.22537000  0.66993000  0.26353000  1.0 0.104482653
H  H172  1  0.90857000  0.97913000  0.62313000  1.0 0.0694690614
H  H173  1  0.57523000  0.31247000  0.95647000  1.0 0.0694690614
H  H174  1  0.24190000  0.64580000  0.28980000  1.0 0.0694690614
H  H175  1  0.89670000  0.90030000  0.53580000  1.0 0.0694690614
H  H176  1  0.56337000  0.23363000  0.86913000  1.0 0.0694690614
H  H177  1  0.23003000  0.56697000  0.20247000  1.0 0.0694690614
H  H178  1  0.87373000  0.91857000  0.51107000  1.0 0.129658769
H  H179  1  0.54040000  0.25190000  0.84440000  1.0 0.129658769
H  H180  1  0.20707000  0.58523000  0.17773000  1.0 0.129658769
H  H181  1  0.93577000  0.96993000  0.64463000  1.0 0.0694690614
H  H182  1  0.60243000  0.30327000  0.97797000  1.0 0.0694690614
H  H183  1  0.26910000  0.63660000  0.31130000  1.0 0.0694690614
H  H184  1  0.95697000  0.94973000  0.67083000  1.0 0.0791131344
H  H185  1  0.62363000  0.28307000  0.00417000  1.0 0.0791131344
H  H186  1  0.29030000  0.61640000  0.33750000  1.0 0.0791131344
H  H187  1  0.89550000  0.86660000  0.55920000  1.0 0.0694690614
H  H188  1  0.56217000  0.19993000  0.89253000  1.0 0.0694690614
H  H189  1  0.22883000  0.53327000  0.22587000  1.0 0.0694690614
H  H190  1  0.20113000  0.91337000  0.50697000  1.0 0.129658769
H  H191  1  0.86780000  0.24670000  0.84030000  1.0 0.129658769
H  H192  1  0.53447000  0.58003000  0.17363000  1.0 0.129658769
H  H193  1  0.19380000  0.85590000  0.49990000  1.0 0.0638342739
H  H194  1  0.86047000  0.18923000  0.83323000  1.0 0.0638342739
H  H195  1  0.52713000  0.52257000  0.16657000  1.0 0.0638342739
H  H196  1  0.11213000  0.79177000  0.42727000  1.0 0.0791131344
H  H197  1  0.77880000  0.12510000  0.76060000  1.0 0.0791131344
H  H198  1  0.44547000  0.45843000  0.09393000  1.0 0.0791131344
H  H199  1  0.11607000  0.84733000  0.43983000  1.0 0.0880457487
H  H200  1  0.78273000  0.18067000  0.77317000  1.0 0.0880457487
H  H201  1  0.44940000  0.51400000  0.10650000  1.0 0.0880457487
H  H202  1  0.19483000  0.80927000  0.48397000  1.0 0.0638342739
H  H203  1  0.86150000  0.14260000  0.81730000  1.0 0.0638342739
H  H204  1  0.52817000  0.47593000  0.15063000  1.0 0.0638342739
H  H205  1  0.19010000  0.75240000  0.47350000  1.0 0.0791131344
H  H206  1  0.85677000  0.08573000  0.80683000  1.0 0.0791131344
H  H207  1  0.52343000  0.41907000  0.14017000  1.0 0.0791131344
H  H208  1  0.09747000  0.74023000  0.43283000  1.0 0.0694690614
H  H209  1  0.76413000  0.07357000  0.76617000  1.0 0.0694690614
H  H210  1  0.43080000  0.40690000  0.09950000  1.0 0.0694690614
H  H211  1  0.15970000  0.02750000  0.62110000  1.0 0.104482653
H  H212  1  0.82637000  0.36083000  0.95443000  1.0 0.104482653
H  H213  1  0.49303000  0.69417000  0.28777000  1.0 0.104482653
H  H214  1  0.16677000  0.02723000  0.67123000  1.0 0.0694690614
H  H215  1  0.83343000  0.36057000  0.00457000  1.0 0.0694690614
H  H216  1  0.50010000  0.69390000  0.33790000  1.0 0.0694690614
H  H217  1  0.23940000  0.01820000  0.65370000  1.0 0.0694690614
H  H218  1  0.90607000  0.35153000  0.98703000  1.0 0.0694690614
H  H219  1  0.57273000  0.68487000  0.32037000  1.0 0.0694690614
H  H220  1  0.22683000  0.00957000  0.60207000  1.0 0.110208823
H  H221  1  0.89350000  0.34290000  0.93540000  1.0 0.110208823
H  H222  1  0.56017000  0.67623000  0.26873000  1.0 0.110208823
H  H223  1  0.18270000  0.04420000  0.71890000  1.0 0.0880457487
H  H224  1  0.84937000  0.37753000  0.05223000  1.0 0.0880457487
H  H225  1  0.51603000  0.71087000  0.38557000  1.0 0.0880457487
H  H226  1  0.19317000  0.04993000  0.77103000  1.0 0.0880457487
H  H227  1  0.85983000  0.38327000  0.10437000  1.0 0.0880457487
H  H228  1  0.52650000  0.71660000  0.43770000  1.0 0.0880457487
H  H229  1  0.23383000  0.99797000  0.69057000  1.0 0.0694690614
H  H230  1  0.90050000  0.33130000  0.02390000  1.0 0.0694690614
H  H231  1  0.56717000  0.66463000  0.35723000  1.0 0.0694690614
H  H232  1  0.04557000  0.87193000  0.46553000  1.0 0.104482653
H  H233  1  0.71223000  0.20527000  0.79887000  1.0 0.104482653
H  H234  1  0.37890000  0.53860000  0.13220000  1.0 0.104482653
H  H235  1  0.99543000  0.82887000  0.47287000  1.0 0.0694690614
H  H236  1  0.66210000  0.16220000  0.80620000  1.0 0.0694690614
H  H237  1  0.32877000  0.49553000  0.13953000  1.0 0.0694690614
H  H238  1  0.01297000  0.91903000  0.55453000  1.0 0.0694690614
H  H239  1  0.67963000  0.25237000  0.88787000  1.0 0.0694690614
H  H240  1  0.34630000  0.58570000  0.22120000  1.0 0.0694690614
H  H241  1  0.06460000  0.95810000  0.55060000  1.0 0.129658769
H  H242  1  0.73127000  0.29143000  0.88393000  1.0 0.129658769
H  H243  1  0.39793000  0.62477000  0.21727000  1.0 0.129658769
H  H244  1  0.94777000  0.79713000  0.47183000  1.0 0.0694690614
H  H245  1  0.61443000  0.13047000  0.80517000  1.0 0.0694690614
H  H246  1  0.28110000  0.46380000  0.13850000  1.0 0.0694690614
H  H247  1  0.89563000  0.75547000  0.47657000  1.0 0.0791131344
H  H248  1  0.56230000  0.08880000  0.80990000  1.0 0.0791131344
H  H249  1  0.22897000  0.42213000  0.14323000  1.0 0.0791131344
H  H250  1  0.97610000  0.87660000  0.56920000  1.0 0.0694690614
H  H251  1  0.64277000  0.20993000  0.90253000  1.0 0.0694690614
H  H252  1  0.30943000  0.54327000  0.23587000  1.0 0.0694690614
H  H253  1  0.03447000  0.36083000  0.45443000  1.0 0.104482653
H  H254  1  0.70113000  0.69417000  0.78777000  1.0 0.104482653
H  H255  1  0.36780000  0.02750000  0.12110000  1.0 0.104482653
H  H256  1  0.02713000  0.36057000  0.50457000  1.0 0.0694690614
H  H257  1  0.69380000  0.69390000  0.83790000  1.0 0.0694690614
H  H258  1  0.36047000  0.02723000  0.17123000  1.0 0.0694690614
H  H259  1  0.94547000  0.35153000  0.48703000  1.0 0.0694690614
H  H260  1  0.61213000  0.68487000  0.82037000  1.0 0.0694690614
H  H261  1  0.27880000  0.01820000  0.15370000  1.0 0.0694690614
H  H262  1  0.94940000  0.34290000  0.43540000  1.0 0.110208823
H  H263  1  0.61607000  0.67623000  0.76873000  1.0 0.110208823
H  H264  1  0.28273000  0.00957000  0.10207000  1.0 0.110208823
H  H265  1  0.02817000  0.37753000  0.55223000  1.0 0.0880457487
H  H266  1  0.69483000  0.71087000  0.88557000  1.0 0.0880457487
H  H267  1  0.36150000  0.04420000  0.21890000  1.0 0.0880457487
H  H268  1  0.02343000  0.38327000  0.60437000  1.0 0.0880457487
H  H269  1  0.69010000  0.71660000  0.93770000  1.0 0.0880457487
H  H270  1  0.35677000  0.04993000  0.27103000  1.0 0.0880457487
H  H271  1  0.93080000  0.33130000  0.52390000  1.0 0.0694690614
H  H272  1  0.59747000  0.66463000  0.85723000  1.0 0.0694690614
H  H273  1  0.26413000  0.99797000  0.19057000  1.0 0.0694690614
H  H274  1  0.99303000  0.20527000  0.29887000  1.0 0.104482653
H  H275  1  0.65970000  0.53860000  0.63220000  1.0 0.104482653
H  H276  1  0.32637000  0.87193000  0.96553000  1.0 0.104482653
H  H277  1  0.00010000  0.16220000  0.30620000  1.0 0.0694690614
H  H278  1  0.66677000  0.49553000  0.63953000  1.0 0.0694690614
H  H279  1  0.33343000  0.82887000  0.97287000  1.0 0.0694690614
H  H280  1  0.07273000  0.25237000  0.38787000  1.0 0.0694690614
H  H281  1  0.73940000  0.58570000  0.72120000  1.0 0.0694690614
H  H282  1  0.40607000  0.91903000  0.05453000  1.0 0.0694690614
H  H283  1  0.06017000  0.29143000  0.38393000  1.0 0.129658769
H  H284  1  0.72683000  0.62477000  0.71727000  1.0 0.129658769
H  H285  1  0.39350000  0.95810000  0.05060000  1.0 0.129658769
H  H286  1  0.01603000  0.13047000  0.30517000  1.0 0.0694690614
H  H287  1  0.68270000  0.46380000  0.63850000  1.0 0.0694690614
H  H288  1  0.34937000  0.79713000  0.97183000  1.0 0.0694690614
H  H289  1  0.02650000  0.08880000  0.30990000  1.0 0.0791131344
H  H290  1  0.69317000  0.42213000  0.64323000  1.0 0.0791131344
H  H291  1  0.35983000  0.75547000  0.97657000  1.0 0.0791131344
H  H292  1  0.06717000  0.20993000  0.40253000  1.0 0.0694690614
H  H293  1  0.73383000  0.54327000  0.73587000  1.0 0.0694690614
H  H294  1  0.40050000  0.87660000  0.06920000  1.0 0.0694690614
H  H295  1  0.87890000  0.24670000  0.34030000  1.0 0.129658769
H  H296  1  0.54557000  0.58003000  0.67363000  1.0 0.129658769
H  H297  1  0.21223000  0.91337000  0.00697000  1.0 0.129658769
H  H298  1  0.82877000  0.18923000  0.33323000  1.0 0.0638342739
H  H299  1  0.49543000  0.52257000  0.66657000  1.0 0.0638342739
H  H300  1  0.16210000  0.85590000  0.99990000  1.0 0.0638342739
H  H301  1  0.84630000  0.12510000  0.26060000  1.0 0.0791131344
H  H302  1  0.51297000  0.45843000  0.59393000  1.0 0.0791131344
H  H303  1  0.17963000  0.79177000  0.92727000  1.0 0.0791131344
H  H304  1  0.89793000  0.18067000  0.27317000  1.0 0.0880457487
H  H305  1  0.56460000  0.51400000  0.60650000  1.0 0.0880457487
H  H306  1  0.23127000  0.84733000  0.93983000  1.0 0.0880457487
H  H307  1  0.78110000  0.14260000  0.31730000  1.0 0.0638342739
H  H308  1  0.44777000  0.47593000  0.65063000  1.0 0.0638342739
H  H309  1  0.11443000  0.80927000  0.98397000  1.0 0.0638342739
H  H310  1  0.72897000  0.08573000  0.30683000  1.0 0.0791131344
H  H311  1  0.39563000  0.41907000  0.64017000  1.0 0.0791131344
H  H312  1  0.06230000  0.75240000  0.97350000  1.0 0.0791131344
H  H313  1  0.80943000  0.07357000  0.26617000  1.0 0.0694690614
H  H314  1  0.47610000  0.40690000  0.59950000  1.0 0.0694690614
H  H315  1  0.14277000  0.74023000  0.93283000  1.0 0.0694690614
H  H316  1  0.23647000  0.18103000  0.27463000  1.0 0.104482653
H  H317  1  0.90313000  0.51437000  0.60797000  1.0 0.104482653
H  H318  1  0.56980000  0.84770000  0.94130000  1.0 0.104482653
H  H319  1  0.21020000  0.11410000  0.25810000  1.0 0.0694690614
H  H320  1  0.87687000  0.44743000  0.59143000  1.0 0.0694690614
H  H321  1  0.54353000  0.78077000  0.92477000  1.0 0.0694690614
H  H322  1  0.29753000  0.13447000  0.26997000  1.0 0.0694690614
H  H323  1  0.96420000  0.46780000  0.60330000  1.0 0.0694690614
H  H324  1  0.63087000  0.80113000  0.93663000  1.0 0.0694690614
H  H325  1  0.32227000  0.20043000  0.29293000  1.0 0.110208823
H  H326  1  0.98893000  0.53377000  0.62627000  1.0 0.110208823
H  H327  1  0.65560000  0.86710000  0.95960000  1.0 0.110208823
H  H328  1  0.18870000  0.05620000  0.23090000  1.0 0.0880457487
H  H329  1  0.85537000  0.38953000  0.56423000  1.0 0.0880457487
H  H330  1  0.52203000  0.72287000  0.89757000  1.0 0.0880457487
H  H331  1  0.16250000  0.98860000  0.20970000  1.0 0.0880457487
H  H332  1  0.82917000  0.32193000  0.54303000  1.0 0.0880457487
H  H333  1  0.49583000  0.65527000  0.87637000  1.0 0.0880457487
H  H334  1  0.27413000  0.07857000  0.27117000  1.0 0.0694690614
H  H335  1  0.94080000  0.41190000  0.60450000  1.0 0.0694690614
H  H336  1  0.60747000  0.74523000  0.93783000  1.0 0.0694690614
H  H337  1  0.27790000  0.33660000  0.43020000  1.0 0.104482653
H  H338  1  0.94457000  0.66993000  0.76353000  1.0 0.104482653
H  H339  1  0.61123000  0.00327000  0.09687000  1.0 0.104482653
H  H340  1  0.23723000  0.31247000  0.45647000  1.0 0.0694690614
H  H341  1  0.90390000  0.64580000  0.78980000  1.0 0.0694690614
H  H342  1  0.57057000  0.97913000  0.12313000  1.0 0.0694690614
H  H343  1  0.17027000  0.23363000  0.36913000  1.0 0.0694690614
H  H344  1  0.83693000  0.56697000  0.70247000  1.0 0.0694690614
H  H345  1  0.50360000  0.90030000  0.03580000  1.0 0.0694690614
H  H346  1  0.21150000  0.25190000  0.34440000  1.0 0.129658769
H  H347  1  0.87817000  0.58523000  0.67773000  1.0 0.129658769
H  H348  1  0.54483000  0.91857000  0.01107000  1.0 0.129658769
H  H349  1  0.20083000  0.30327000  0.47797000  1.0 0.0694690614
H  H350  1  0.86750000  0.63660000  0.81130000  1.0 0.0694690614
H  H351  1  0.53417000  0.96993000  0.14463000  1.0 0.0694690614
H  H352  1  0.15943000  0.28307000  0.50417000  1.0 0.0791131344
H  H353  1  0.82610000  0.61640000  0.83750000  1.0 0.0791131344
H  H354  1  0.49277000  0.94973000  0.17083000  1.0 0.0791131344
H  H355  1  0.13777000  0.19993000  0.39253000  1.0 0.0694690614
H  H356  1  0.80443000  0.53327000  0.72587000  1.0 0.0694690614
H  H357  1  0.47110000  0.86660000  0.05920000  1.0 0.0694690614
H  H358  1  0.39203000  0.29517000  0.38877000  1.0 0.129658769
H  H359  1  0.05870000  0.62850000  0.72210000  1.0 0.129658769
H  H360  1  0.72537000  0.96183000  0.05543000  1.0 0.129658769
H  H361  1  0.40857000  0.28543000  0.42943000  1.0 0.0638342739
H  H362  1  0.07523000  0.61877000  0.76277000  1.0 0.0638342739
H  H363  1  0.74190000  0.95210000  0.09610000  1.0 0.0638342739
H  H364  1  0.39670000  0.36090000  0.49640000  1.0 0.0791131344
H  H365  1  0.06337000  0.69423000  0.82973000  1.0 0.0791131344
H  H366  1  0.73003000  0.02757000  0.16307000  1.0 0.0791131344
H  H367  1  0.37373000  0.36267000  0.45517000  1.0 0.0880457487
H  H368  1  0.04040000  0.69600000  0.78850000  1.0 0.0880457487
H  H369  1  0.70707000  0.02933000  0.12183000  1.0 0.0880457487
H  H370  1  0.43577000  0.29113000  0.46583000  1.0 0.0638342739
H  H371  1  0.10243000  0.62447000  0.79917000  1.0 0.0638342739
H  H372  1  0.76910000  0.95780000  0.13250000  1.0 0.0638342739
H  H373  1  0.45697000  0.28613000  0.50723000  1.0 0.0791131344
H  H374  1  0.12363000  0.61947000  0.84057000  1.0 0.0791131344
H  H375  1  0.79030000  0.95280000  0.17390000  1.0 0.0791131344
H  H376  1  0.39550000  0.33630000  0.52890000  1.0 0.0694690614
H  H377  1  0.06217000  0.66963000  0.86223000  1.0 0.0694690614
H  H378  1  0.72883000  0.00297000  0.19557000  1.0 0.0694690614
H  H379  1  0.26353000  0.03817000  0.44457000  1.0 0.129658769
H  H380  1  0.93020000  0.37150000  0.77790000  1.0 0.129658769
H  H381  1  0.59687000  0.70483000  0.11123000  1.0 0.129658769
H  H382  1  0.28980000  0.04790000  0.40390000  1.0 0.0638342739
H  H383  1  0.95647000  0.38123000  0.73723000  1.0 0.0638342739
H  H384  1  0.62313000  0.71457000  0.07057000  1.0 0.0638342739
H  H385  1  0.20247000  0.97243000  0.33693000  1.0 0.0791131344
H  H386  1  0.86913000  0.30577000  0.67027000  1.0 0.0791131344
H  H387  1  0.53580000  0.63910000  0.00360000  1.0 0.0791131344
H  H388  1  0.17773000  0.97067000  0.37817000  1.0 0.0880457487
H  H389  1  0.84440000  0.30400000  0.71150000  1.0 0.0880457487
H  H390  1  0.51107000  0.63733000  0.04483000  1.0 0.0880457487
H  H391  1  0.31130000  0.04220000  0.36750000  1.0 0.0638342739
H  H392  1  0.97797000  0.37553000  0.70083000  1.0 0.0638342739
H  H393  1  0.64463000  0.70887000  0.03417000  1.0 0.0638342739
H  H394  1  0.33750000  0.04720000  0.32610000  1.0 0.0791131344
H  H395  1  0.00417000  0.38053000  0.65943000  1.0 0.0791131344
H  H396  1  0.67083000  0.71387000  0.99277000  1.0 0.0791131344
H  H397  1  0.22587000  0.99703000  0.30443000  1.0 0.0694690614
H  H398  1  0.89253000  0.33037000  0.63777000  1.0 0.0694690614
H  H399  1  0.55920000  0.66370000  0.97110000  1.0 0.0694690614
H  H400  1  0.22210000  0.15230000  0.55870000  1.0 0.104482653
H  H401  1  0.88877000  0.48563000  0.89203000  1.0 0.104482653
H  H402  1  0.55543000  0.81897000  0.22537000  1.0 0.104482653
H  H403  1  0.26277000  0.21923000  0.57523000  1.0 0.0694690614
H  H404  1  0.92943000  0.55257000  0.90857000  1.0 0.0694690614
H  H405  1  0.59610000  0.88590000  0.24190000  1.0 0.0694690614
H  H406  1  0.32973000  0.19887000  0.56337000  1.0 0.0694690614
H  H407  1  0.99640000  0.53220000  0.89670000  1.0 0.0694690614
H  H408  1  0.66307000  0.86553000  0.23003000  1.0 0.0694690614
H  H409  1  0.28850000  0.13290000  0.54040000  1.0 0.110208823
H  H410  1  0.95517000  0.46623000  0.87373000  1.0 0.110208823
H  H411  1  0.62183000  0.79957000  0.20707000  1.0 0.110208823
H  H412  1  0.29917000  0.27713000  0.60243000  1.0 0.0880457487
H  H413  1  0.96583000  0.61047000  0.93577000  1.0 0.0880457487
H  H414  1  0.63250000  0.94380000  0.26910000  1.0 0.0880457487
H  H415  1  0.34057000  0.34473000  0.62363000  1.0 0.0880457487
H  H416  1  0.00723000  0.67807000  0.95697000  1.0 0.0880457487
H  H417  1  0.67390000  0.01140000  0.29030000  1.0 0.0880457487
H  H418  1  0.36223000  0.25477000  0.56217000  1.0 0.0694690614
H  H419  1  0.02890000  0.58810000  0.89550000  1.0 0.0694690614
H  H420  1  0.69557000  0.92143000  0.22883000  1.0 0.0694690614
H  H421  1  0.10797000  0.99673000  0.40313000  1.0 0.104482653
H  H422  1  0.77463000  0.33007000  0.73647000  1.0 0.104482653
H  H423  1  0.44130000  0.66340000  0.06980000  1.0 0.104482653
H  H424  1  0.09143000  0.02087000  0.37687000  1.0 0.0694690614
H  H425  1  0.75810000  0.35420000  0.71020000  1.0 0.0694690614
H  H426  1  0.42477000  0.68753000  0.04353000  1.0 0.0694690614
H  H427  1  0.10330000  0.09970000  0.46420000  1.0 0.0694690614
H  H428  1  0.76997000  0.43303000  0.79753000  1.0 0.0694690614
H  H429  1  0.43663000  0.76637000  0.13087000  1.0 0.0694690614
H  H430  1  0.12627000  0.08143000  0.48893000  1.0 0.129658769
H  H431  1  0.79293000  0.41477000  0.82227000  1.0 0.129658769
H  H432  1  0.45960000  0.74810000  0.15560000  1.0 0.129658769
H  H433  1  0.06423000  0.03007000  0.35537000  1.0 0.0694690614
H  H434  1  0.73090000  0.36340000  0.68870000  1.0 0.0694690614
H  H435  1  0.39757000  0.69673000  0.02203000  1.0 0.0694690614
H  H436  1  0.04303000  0.05027000  0.32917000  1.0 0.0791131344
H  H437  1  0.70970000  0.38360000  0.66250000  1.0 0.0791131344
H  H438  1  0.37637000  0.71693000  0.99583000  1.0 0.0791131344
H  H439  1  0.10450000  0.13340000  0.44080000  1.0 0.0694690614
H  H440  1  0.77117000  0.46673000  0.77413000  1.0 0.0694690614
H  H441  1  0.43783000  0.80007000  0.10747000  1.0 0.0694690614
H  H442  1  0.79887000  0.08663000  0.49303000  1.0 0.129658769
H  H443  1  0.46553000  0.41997000  0.82637000  1.0 0.129658769
H  H444  1  0.13220000  0.75330000  0.15970000  1.0 0.129658769
H  H445  1  0.80620000  0.14410000  0.50010000  1.0 0.0638342739
H  H446  1  0.47287000  0.47743000  0.83343000  1.0 0.0638342739
H  H447  1  0.13953000  0.81077000  0.16677000  1.0 0.0638342739
H  H448  1  0.88787000  0.20823000  0.57273000  1.0 0.0791131344
H  H449  1  0.55453000  0.54157000  0.90607000  1.0 0.0791131344
H  H450  1  0.22120000  0.87490000  0.23940000  1.0 0.0791131344
H  H451  1  0.88393000  0.15267000  0.56017000  1.0 0.0880457487
H  H452  1  0.55060000  0.48600000  0.89350000  1.0 0.0880457487
H  H453  1  0.21727000  0.81933000  0.22683000  1.0 0.0880457487
H  H454  1  0.80517000  0.19073000  0.51603000  1.0 0.0638342739
H  H455  1  0.47183000  0.52407000  0.84937000  1.0 0.0638342739
H  H456  1  0.13850000  0.85740000  0.18270000  1.0 0.0638342739
H  H457  1  0.80990000  0.24760000  0.52650000  1.0 0.0791131344
H  H458  1  0.47657000  0.58093000  0.85983000  1.0 0.0791131344
H  H459  1  0.14323000  0.91427000  0.19317000  1.0 0.0791131344
H  H460  1  0.90253000  0.25977000  0.56717000  1.0 0.0694690614
H  H461  1  0.56920000  0.59310000  0.90050000  1.0 0.0694690614
H  H462  1  0.23587000  0.92643000  0.23383000  1.0 0.0694690614
H  H463  1  0.84030000  0.97250000  0.37890000  1.0 0.104482653
H  H464  1  0.50697000  0.30583000  0.71223000  1.0 0.104482653
H  H465  1  0.17363000  0.63917000  0.04557000  1.0 0.104482653
H  H466  1  0.83323000  0.97277000  0.32877000  1.0 0.0694690614
H  H467  1  0.49990000  0.30610000  0.66210000  1.0 0.0694690614
H  H468  1  0.16657000  0.63943000  0.99543000  1.0 0.0694690614
H  H469  1  0.76060000  0.98180000  0.34630000  1.0 0.0694690614
H  H470  1  0.42727000  0.31513000  0.67963000  1.0 0.0694690614
H  H471  1  0.09393000  0.64847000  0.01297000  1.0 0.0694690614
H  H472  1  0.77317000  0.99043000  0.39793000  1.0 0.110208823
H  H473  1  0.43983000  0.32377000  0.73127000  1.0 0.110208823
H  H474  1  0.10650000  0.65710000  0.06460000  1.0 0.110208823
H  H475  1  0.81730000  0.95580000  0.28110000  1.0 0.0880457487
H  H476  1  0.48397000  0.28913000  0.61443000  1.0 0.0880457487
H  H477  1  0.15063000  0.62247000  0.94777000  1.0 0.0880457487
H  H478  1  0.80683000  0.95007000  0.22897000  1.0 0.0880457487
H  H479  1  0.47350000  0.28340000  0.56230000  1.0 0.0880457487
H  H480  1  0.14017000  0.61673000  0.89563000  1.0 0.0880457487
H  H481  1  0.76617000  0.00203000  0.30943000  1.0 0.0694690614
H  H482  1  0.43283000  0.33537000  0.64277000  1.0 0.0694690614
H  H483  1  0.09950000  0.66870000  0.97610000  1.0 0.0694690614
H  H484  1  0.95443000  0.12807000  0.53447000  1.0 0.104482653
H  H485  1  0.62110000  0.46140000  0.86780000  1.0 0.104482653
H  H486  1  0.28777000  0.79473000  0.20113000  1.0 0.104482653
H  H487  1  0.00457000  0.17113000  0.52713000  1.0 0.0694690614
H  H488  1  0.67123000  0.50447000  0.86047000  1.0 0.0694690614
H  H489  1  0.33790000  0.83780000  0.19380000  1.0 0.0694690614
H  H490  1  0.98703000  0.08097000  0.44547000  1.0 0.0694690614
H  H491  1  0.65370000  0.41430000  0.77880000  1.0 0.0694690614
H  H492  1  0.32037000  0.74763000  0.11213000  1.0 0.0694690614
H  H493  1  0.93540000  0.04190000  0.44940000  1.0 0.129658769
H  H494  1  0.60207000  0.37523000  0.78273000  1.0 0.129658769
H  H495  1  0.26873000  0.70857000  0.11607000  1.0 0.129658769
H  H496  1  0.05223000  0.20287000  0.52817000  1.0 0.0694690614
H  H497  1  0.71890000  0.53620000  0.86150000  1.0 0.0694690614
H  H498  1  0.38557000  0.86953000  0.19483000  1.0 0.0694690614
H  H499  1  0.10437000  0.24453000  0.52343000  1.0 0.0791131344
H  H500  1  0.77103000  0.57787000  0.85677000  1.0 0.0791131344
H  H501  1  0.43770000  0.91120000  0.19010000  1.0 0.0791131344
H  H502  1  0.02390000  0.12340000  0.43080000  1.0 0.0694690614
H  H503  1  0.69057000  0.45673000  0.76413000  1.0 0.0694690614
H  H504  1  0.35723000  0.79007000  0.09747000  1.0 0.0694690614
C  C1  1  0.00165000  0.64483000  0.59101000  1.0 -0.0196323093
C  C2  1  0.66832000  0.97816000  0.92434000  1.0 -0.0196323093
C  C3  1  0.33498000  0.31150000  0.25768000  1.0 -0.0196323093
C  C4  1  0.00643000  0.64575000  0.56035000  1.0 -0.0417319851
C  C5  1  0.67310000  0.97908000  0.89368000  1.0 -0.0417319851
C  C6  1  0.33977000  0.31241000  0.22701000  1.0 -0.0417319851
C  C7  1  0.98473000  0.64206000  0.53967000  1.0 -0.0685329472
C  C8  1  0.65140000  0.97539000  0.87300000  1.0 -0.0685329472
C  C9  1  0.31807000  0.30872000  0.20633000  1.0 -0.0685329472
C  C10  1  0.98917000  0.64215000  0.50919000  1.0 -0.1227469757
C  C11  1  0.65584000  0.97548000  0.84252000  1.0 -0.1227469757
C  C12  1  0.32251000  0.30881000  0.17585000  1.0 -0.1227469757
C  C13  1  0.01512000  0.64592000  0.49929000  1.0 -0.0901432088
C  C14  1  0.68179000  0.97925000  0.83262000  1.0 -0.0901432088
C  C15  1  0.34846000  0.31258000  0.16595000  1.0 -0.0901432088
C  C16  1  0.03656000  0.64851000  0.51974000  1.0 -0.1227469757
C  C17  1  0.70322000  0.98185000  0.85308000  1.0 -0.1227469757
C  C18  1  0.36989000  0.31518000  0.18641000  1.0 -0.1227469757
C  C19  1  0.03288000  0.65105000  0.54977000  1.0 -0.0576367145
C  C20  1  0.69954000  0.98439000  0.88311000  1.0 -0.0576367145
C  C21  1  0.36621000  0.31772000  0.21644000  1.0 -0.0576367145
C  C22  1  0.01958000  0.64537000  0.46769000  1.0 -0.0298992188
C  C23  1  0.68624000  0.97871000  0.80103000  1.0 -0.0298992188
C  C24  1  0.35291000  0.31204000  0.13436000  1.0 -0.0298992188
C  C25  1  0.99264000  0.63071000  0.44325000  1.0 -0.0685329472
C  C26  1  0.65930000  0.96405000  0.77659000  1.0 -0.0685329472
C  C27  1  0.32597000  0.29738000  0.10992000  1.0 -0.0685329472
C  C28  1  0.99560000  0.62791000  0.41230000  1.0 -0.0576367145
C  C29  1  0.66227000  0.96124000  0.74563000  1.0 -0.0576367145
C  C30  1  0.32894000  0.29457000  0.07896000  1.0 -0.0576367145
C  C31  1  0.02627000  0.64130000  0.40505000  1.0 -0.0196323093
C  C32  1  0.69294000  0.97463000  0.73838000  1.0 -0.0196323093
C  C33  1  0.35961000  0.30796000  0.07171000  1.0 -0.0196323093
C  C34  1  0.05321000  0.65598000  0.42949000  1.0 0.0033337738
C  C35  1  0.71987000  0.98932000  0.76283000  1.0 0.0033337738
C  C36  1  0.38654000  0.32265000  0.09616000  1.0 0.0033337738
C  C37  1  0.05017000  0.65819000  0.45980000  1.0 0.0138234475
C  C38  1  0.71683000  0.99153000  0.79314000  1.0 0.0138234475
C  C39  1  0.38350000  0.32486000  0.12647000  1.0 0.0138234475
C  C40  1  0.97651000  0.71884000  0.66502000  1.0 0.0193475459
C  C41  1  0.64318000  0.05217000  0.99835000  1.0 0.0193475459
C  C42  1  0.30985000  0.38550000  0.33168000  1.0 0.0193475459
C  C43  1  0.97265000  0.74563000  0.66023000  1.0 -0.0489922938
C  C44  1  0.63931000  0.07897000  0.99357000  1.0 -0.0489922938
C  C45  1  0.30598000  0.41230000  0.32690000  1.0 -0.0489922938
C  C46  1  0.99066000  0.78432000  0.68193000  1.0 -0.0901432088
C  C47  1  0.65732000  0.11766000  0.01527000  1.0 -0.0901432088
C  C48  1  0.32399000  0.45099000  0.34860000  1.0 -0.0901432088
C  C49  1  0.98631000  0.81045000  0.67749000  1.0 -0.1404057231
C  C50  1  0.65297000  0.14379000  0.01083000  1.0 -0.1404057231
C  C51  1  0.31964000  0.47712000  0.34416000  1.0 -0.1404057231
C  C52  1  0.96413000  0.79817000  0.65154000  1.0 -0.1404057231
C  C53  1  0.63079000  0.13151000  0.98488000  1.0 -0.1404057231
C  C54  1  0.29746000  0.46484000  0.31821000  1.0 -0.1404057231
C  C55  1  0.94529000  0.75888000  0.63011000  1.0 -0.1227469757
C  C56  1  0.61196000  0.09221000  0.96344000  1.0 -0.1227469757
C  C57  1  0.27862000  0.42555000  0.29678000  1.0 -0.1227469757
C  C58  1  0.95151000  0.73507000  0.63379000  1.0 -0.0999085522
C  C59  1  0.61818000  0.06840000  0.96712000  1.0 -0.0999085522
C  C60  1  0.28484000  0.40174000  0.30046000  1.0 -0.0999085522
C  C61  1  0.95913000  0.82477000  0.64709000  1.0 -0.0999085522
C  C62  1  0.62580000  0.15810000  0.98042000  1.0 -0.0999085522
C  C63  1  0.29246000  0.49144000  0.31376000  1.0 -0.0999085522
C  C64  1  0.97141000  0.86149000  0.67403000  1.0 -0.1404057231
C  C65  1  0.63808000  0.19482000  0.00736000  1.0 -0.1513906725
C  C66  1  0.30474000  0.52816000  0.34070000  1.0 -0.1513906725
C  C67  1  0.96564000  0.88667000  0.67106000  1.0 -0.1404057231
C  C68  1  0.63230000  0.22001000  0.00440000  1.0 -0.1404057231
C  C69  1  0.29897000  0.55334000  0.33773000  1.0 -0.1404057231
C  C70  1  0.94836000  0.87664000  0.64039000  1.0 -0.0685329472
C  C71  1  0.61502000  0.20998000  0.97373000  1.0 -0.0685329472
C  C72  1  0.28169000  0.54331000  0.30706000  1.0 -0.0789875173
C  C73  1  0.93611000  0.83995000  0.61346000  1.0 -0.0077869284
C  C74  1  0.60278000  0.17328000  0.94679000  1.0 -0.0077869284
C  C75  1  0.26944000  0.50662000  0.28013000  1.0 -0.0077869284
C  C76  1  0.94136000  0.81489000  0.61650000  1.0 -0.0298992188
C  C77  1  0.60803000  0.14822000  0.94983000  1.0 -0.0298992188
C  C78  1  0.27469000  0.48156000  0.28317000  1.0 -0.0417319851
C  C79  1  0.07566000  0.74397000  0.69015000  1.0 0.0193475459
C  C80  1  0.74232000  0.07731000  0.02349000  1.0 0.0193475459
C  C81  1  0.40899000  0.41064000  0.35682000  1.0 0.0193475459
C  C82  1  0.10632000  0.77942000  0.69402000  1.0 -0.0417319851
C  C83  1  0.77299000  0.11275000  0.02735000  1.0 -0.0489922938
C  C84  1  0.43965000  0.44609000  0.36069000  1.0 -0.0489922938
C  C85  1  0.12700000  0.77840000  0.67601000  1.0 -0.0999085522
C  C86  1  0.79367000  0.11173000  0.00934000  1.0 -0.0901432088
C  C87  1  0.46033000  0.44507000  0.34268000  1.0 -0.0999085522
C  C88  1  0.15748000  0.81332000  0.68036000  1.0 -0.1556614873
C  C89  1  0.82415000  0.14665000  0.01369000  1.0 -0.1513906725
C  C90  1  0.49081000  0.47999000  0.34703000  1.0 -0.1556614873
C  C91  1  0.16738000  0.84917000  0.70254000  1.0 -0.1404057231
C  C92  1  0.83405000  0.18250000  0.03587000  1.0 -0.1404057231
C  C93  1  0.50071000  0.51584000  0.36921000  1.0 -0.1404057231
C  C94  1  0.14692000  0.85015000  0.72138000  1.0 -0.1404057231
C  C95  1  0.81359000  0.18348000  0.05471000  1.0 -0.1404057231
C  C96  1  0.48026000  0.51681000  0.38804000  1.0 -0.1404057231
C  C97  1  0.11689000  0.81644000  0.71516000  1.0 -0.0901432088
C  C98  1  0.78356000  0.14977000  0.04849000  1.0 -0.0901432088
C  C99  1  0.45023000  0.48310000  0.38182000  1.0 -0.0901432088
C  C100  1  0.19897000  0.88522000  0.70754000  1.0 -0.0999085522
C  C101  1  0.86564000  0.21855000  0.04087000  1.0 -0.0999085522
C  C102  1  0.53231000  0.55188000  0.37420000  1.0 -0.0999085522
C  C103  1  0.22341000  0.88272000  0.69526000  1.0 -0.1513906725
C  C104  1  0.89008000  0.21605000  0.02859000  1.0 -0.1513906725
C  C105  1  0.55675000  0.54938000  0.36192000  1.0 -0.1513906725
C  C106  1  0.25437000  0.91664000  0.70103000  1.0 -0.0999085522
C  C107  1  0.92104000  0.24997000  0.03436000  1.0 -0.0999085522
C  C108  1  0.58770000  0.58331000  0.36770000  1.0 -0.0999085522
C  C109  1  0.26162000  0.95456000  0.71831000  1.0 -0.0077869284
C  C110  1  0.92829000  0.28789000  0.05164000  1.0 -0.0077869284
C  C111  1  0.59495000  0.62123000  0.38498000  1.0 -0.0077869284
C  C112  1  0.23717000  0.95705000  0.73056000  1.0 -0.0077869284
C  C113  1  0.90384000  0.29038000  0.06389000  1.0 -0.0077869284
C  C114  1  0.57051000  0.62371000  0.39722000  1.0 -0.0077869284
C  C115  1  0.20686000  0.92370000  0.72531000  1.0 -0.0196323093
C  C116  1  0.87353000  0.25703000  0.05864000  1.0 -0.0196323093
C  C117  1  0.54020000  0.59036000  0.39197000  1.0 -0.0196323093
C  C118  1  0.70090000  0.76026000  0.70644000  1.0 -0.0196323093
C  C119  1  0.36756000  0.09360000  0.03978000  1.0 -0.0196323093
C  C120  1  0.03423000  0.42693000  0.37311000  1.0 -0.0196323093
C  C121  1  0.71717000  0.80145000  0.71605000  1.0 -0.0417319851
C  C122  1  0.38383000  0.13479000  0.04939000  1.0 -0.0417319851
C  C123  1  0.05050000  0.46812000  0.38272000  1.0 -0.0417319851
C  C124  1  0.75019000  0.82780000  0.72541000  1.0 -0.0685329472
C  C125  1  0.41686000  0.16113000  0.05874000  1.0 -0.0685329472
C  C126  1  0.08353000  0.49446000  0.39207000  1.0 -0.0685329472
C  C127  1  0.76613000  0.86847000  0.73551000  1.0 -0.1227469757
C  C128  1  0.43280000  0.20180000  0.06884000  1.0 -0.1227469757
C  C129  1  0.09947000  0.53513000  0.40217000  1.0 -0.1227469757
C  C130  1  0.74930000  0.88292000  0.73629000  1.0 -0.0901432088
C  C131  1  0.41596000  0.21626000  0.06963000  1.0 -0.0901432088
C  C132  1  0.08263000  0.54959000  0.40296000  1.0 -0.0901432088
C  C133  1  0.71596000  0.85651000  0.72774000  1.0 -0.1227469757
C  C134  1  0.38262000  0.18985000  0.06108000  1.0 -0.1227469757
C  C135  1  0.04929000  0.52318000  0.39441000  1.0 -0.1227469757
C  C136  1  0.70131000  0.81732000  0.71604000  1.0 -0.0576367145
C  C137  1  0.36798000  0.15065000  0.04937000  1.0 -0.0576367145
C  C138  1  0.03464000  0.48399000  0.38271000  1.0 -0.0576367145
C  C139  1  0.76554000  0.92487000  0.74719000  1.0 -0.0298992188
C  C140  1  0.43221000  0.25820000  0.08052000  1.0 -0.0298992188
C  C141  1  0.09888000  0.59153000  0.41385000  1.0 -0.0298992188
C  C142  1  0.79900000  0.95257000  0.76511000  1.0 -0.0685329472
C  C143  1  0.46567000  0.28590000  0.09844000  1.0 -0.0685329472
C  C144  1  0.13234000  0.61923000  0.43177000  1.0 -0.0685329472
C  C145  1  0.81480000  0.99291000  0.77730000  1.0 -0.0576367145
C  C146  1  0.48147000  0.32624000  0.11063000  1.0 -0.0576367145
C  C147  1  0.14814000  0.65957000  0.44396000  1.0 -0.0576367145
C  C148  1  0.79789000  0.00704000  0.77079000  1.0 -0.0196323093
C  C149  1  0.46456000  0.34037000  0.10412000  1.0 -0.0196323093
C  C150  1  0.13123000  0.67370000  0.43745000  1.0 -0.0196323093
C  C151  1  0.76445000  0.97934000  0.75285000  1.0 0.0033337738
C  C152  1  0.43112000  0.31267000  0.08618000  1.0 0.0033337738
C  C153  1  0.09779000  0.64600000  0.41951000  1.0 0.0033337738
C  C154  1  0.74876000  0.93966000  0.74127000  1.0 0.0138234475
C  C155  1  0.41543000  0.27299000  0.07460000  1.0 0.0138234475
C  C156  1  0.08209000  0.60633000  0.40794000  1.0 0.0138234475
C  C157  1  0.72603000  0.68626000  0.63244000  1.0 0.0193475459
C  C158  1  0.39270000  0.01959000  0.96577000  1.0 0.0193475459
C  C159  1  0.05937000  0.35292000  0.29910000  1.0 0.0193475459
C  C160  1  0.75095000  0.70157000  0.61617000  1.0 -0.0489922938
C  C161  1  0.41762000  0.03490000  0.94950000  1.0 -0.0489922938
C  C162  1  0.08429000  0.36823000  0.28283000  1.0 -0.0489922938
C  C163  1  0.74427000  0.68553000  0.58314000  1.0 -0.0901432088
C  C164  1  0.41094000  0.01886000  0.91647000  1.0 -0.0901432088
C  C165  1  0.07760000  0.35220000  0.24981000  1.0 -0.0901432088
C  C166  1  0.76900000  0.70016000  0.56720000  1.0 -0.1404057231
C  C167  1  0.43567000  0.03349000  0.90053000  1.0 -0.1404057231
C  C168  1  0.10233000  0.36683000  0.23387000  1.0 -0.1404057231
C  C169  1  0.80029000  0.73067000  0.58404000  1.0 -0.1404057231
C  C170  1  0.46696000  0.06400000  0.91737000  1.0 -0.1404057231
C  C171  1  0.13363000  0.39733000  0.25070000  1.0 -0.1404057231
C  C172  1  0.80722000  0.74615000  0.61738000  1.0 -0.1227469757
C  C173  1  0.47389000  0.07948000  0.95071000  1.0 -0.1227469757
C  C174  1  0.14056000  0.41281000  0.28404000  1.0 -0.1227469757
C  C175  1  0.78268000  0.73330000  0.63202000  1.0 -0.0999085522
C  C176  1  0.44934000  0.06664000  0.96536000  1.0 -0.0999085522
C  C177  1  0.11601000  0.39997000  0.29869000  1.0 -0.0999085522
C  C178  1  0.82599000  0.74547000  0.56779000  1.0 -0.0999085522
C  C179  1  0.49266000  0.07880000  0.90112000  1.0 -0.0999085522
C  C180  1  0.15932000  0.41214000  0.23446000  1.0 -0.0999085522
C  C181  1  0.82023000  0.72179000  0.53433000  1.0 -0.1404057231
C  C182  1  0.48690000  0.05512000  0.86766000  1.0 -0.1404057231
C  C183  1  0.15356000  0.38846000  0.20100000  1.0 -0.1513906725
C  C184  1  0.84477000  0.73414000  0.51853000  1.0 -0.1404057231
C  C185  1  0.51144000  0.06747000  0.85186000  1.0 -0.1404057231
C  C186  1  0.17810000  0.40081000  0.18520000  1.0 -0.1404057231
C  C187  1  0.87581000  0.77169000  0.53544000  1.0 -0.0685329472
C  C188  1  0.54248000  0.10502000  0.86877000  1.0 -0.0685329472
C  C189  1  0.20914000  0.43836000  0.20211000  1.0 -0.0789875173
C  C190  1  0.88155000  0.79537000  0.56888000  1.0 -0.0077869284
C  C191  1  0.54822000  0.12870000  0.90221000  1.0 -0.0077869284
C  C192  1  0.21488000  0.46204000  0.23555000  1.0 -0.0077869284
C  C193  1  0.85757000  0.78296000  0.58457000  1.0 -0.0298992188
C  C194  1  0.52423000  0.11630000  0.91791000  1.0 -0.0298992188
C  C195  1  0.19090000  0.44963000  0.25124000  1.0 -0.0417319851
C  C196  1  0.62689000  0.66112000  0.60730000  1.0 0.0193475459
C  C197  1  0.29356000  0.99445000  0.94063000  1.0 0.0193475459
C  C198  1  0.96022000  0.32779000  0.27397000  1.0 0.0193475459
C  C199  1  0.61728000  0.66778000  0.58238000  1.0 -0.0489922938
C  C200  1  0.28395000  0.00111000  0.91571000  1.0 -0.0489922938
C  C201  1  0.95061000  0.33445000  0.24905000  1.0 -0.0489922938
C  C202  1  0.60793000  0.69145000  0.58906000  1.0 -0.0901432088
C  C203  1  0.27459000  0.02479000  0.92240000  1.0 -0.0999085522
C  C204  1  0.94126000  0.35812000  0.25573000  1.0 -0.0901432088
C  C205  1  0.59783000  0.69729000  0.56433000  1.0 -0.1556614873
C  C206  1  0.26449000  0.03063000  0.89767000  1.0 -0.1556614873
C  C207  1  0.93116000  0.36396000  0.23100000  1.0 -0.1556614873
C  C208  1  0.59704000  0.67967000  0.53304000  1.0 -0.1404057231
C  C209  1  0.26371000  0.01300000  0.86637000  1.0 -0.1404057231
C  C210  1  0.93037000  0.34634000  0.19971000  1.0 -0.1404057231
C  C211  1  0.60559000  0.65488000  0.52611000  1.0 -0.1404057231
C  C212  1  0.27226000  0.98821000  0.85944000  1.0 -0.1404057231
C  C213  1  0.93892000  0.32155000  0.19278000  1.0 -0.1404057231
C  C214  1  0.61729000  0.65194000  0.55066000  1.0 -0.0901432088
C  C215  1  0.28396000  0.98527000  0.88399000  1.0 -0.0901432088
C  C216  1  0.95063000  0.31860000  0.21732000  1.0 -0.0901432088
C  C217  1  0.58615000  0.68502000  0.50734000  1.0 -0.0999085522
C  C218  1  0.25281000  0.01836000  0.84068000  1.0 -0.0999085522
C  C219  1  0.91948000  0.35169000  0.17401000  1.0 -0.0999085522
C  C220  1  0.56823000  0.70056000  0.51310000  1.0 -0.1513906725
C  C221  1  0.23489000  0.03390000  0.84644000  1.0 -0.1513906725
C  C222  1  0.90156000  0.36723000  0.17977000  1.0 -0.1513906725
C  C223  1  0.55604000  0.70417000  0.48856000  1.0 -0.0999085522
C  C224  1  0.22270000  0.03751000  0.82190000  1.0 -0.0999085522
C  C225  1  0.88937000  0.37084000  0.15523000  1.0 -0.0999085522
C  C226  1  0.56255000  0.69377000  0.45752000  1.0 -0.0077869284
C  C227  1  0.22921000  0.02711000  0.79086000  1.0 -0.0077869284
C  C228  1  0.89588000  0.36044000  0.12419000  1.0 -0.0077869284
C  C229  1  0.58049000  0.67827000  0.45178000  1.0 -0.0077869284
C  C230  1  0.24715000  0.01161000  0.78512000  1.0 -0.0077869284
C  C231  1  0.91382000  0.34494000  0.11845000  1.0 -0.0077869284
C  C232  1  0.59206000  0.67416000  0.47577000  1.0 -0.0196323093
C  C233  1  0.25873000  0.00749000  0.80910000  1.0 -0.0077869284
C  C234  1  0.92540000  0.34082000  0.14243000  1.0 -0.0196323093
C  C235  1  0.79910000  0.00555000  0.55937000  1.0 0.0193475459
C  C236  1  0.46577000  0.33888000  0.89270000  1.0 0.0193475459
C  C237  1  0.13244000  0.67221000  0.22603000  1.0 0.0193475459
C  C238  1  0.78283000  0.99889000  0.58429000  1.0 -0.0489922938
C  C239  1  0.44950000  0.33222000  0.91762000  1.0 -0.0417319851
C  C240  1  0.11617000  0.66555000  0.25095000  1.0 -0.0417319851
C  C241  1  0.74981000  0.97521000  0.57760000  1.0 -0.0901432088
C  C242  1  0.41647000  0.30855000  0.91094000  1.0 -0.0999085522
C  C243  1  0.08314000  0.64188000  0.24427000  1.0 -0.0999085522
C  C244  1  0.73387000  0.96937000  0.60233000  1.0 -0.1556614873
C  C245  1  0.40053000  0.30271000  0.93567000  1.0 -0.1556614873
C  C246  1  0.06720000  0.63604000  0.26900000  1.0 -0.1556614873
C  C247  1  0.75070000  0.98700000  0.63363000  1.0 -0.1404057231
C  C248  1  0.41737000  0.32033000  0.96696000  1.0 -0.1404057231
C  C249  1  0.08404000  0.65366000  0.30029000  1.0 -0.1404057231
C  C250  1  0.78404000  0.01179000  0.64056000  1.0 -0.1404057231
C  C251  1  0.45071000  0.34512000  0.97389000  1.0 -0.1404057231
C  C252  1  0.11738000  0.67845000  0.30722000  1.0 -0.1404057231
C  C253  1  0.79869000  0.01473000  0.61601000  1.0 -0.0901432088
C  C254  1  0.46536000  0.34806000  0.94934000  1.0 -0.0901432088
C  C255  1  0.13202000  0.68140000  0.28268000  1.0 -0.0901432088
C  C256  1  0.73446000  0.98164000  0.65932000  1.0 -0.0999085522
C  C257  1  0.40112000  0.31498000  0.99266000  1.0 -0.0999085522
C  C258  1  0.06779000  0.64831000  0.32599000  1.0 -0.0999085522
C  C259  1  0.70100000  0.96610000  0.65356000  1.0 -0.1513906725
C  C260  1  0.36766000  0.29944000  0.98690000  1.0 -0.1513906725
C  C261  1  0.03433000  0.63277000  0.32023000  1.0 -0.1513906725
C  C262  1  0.68520000  0.96249000  0.67810000  1.0 -0.0999085522
C  C263  1  0.35186000  0.29583000  0.01144000  1.0 -0.0999085522
C  C264  1  0.01853000  0.62916000  0.34477000  1.0 -0.0999085522
C  C265  1  0.70211000  0.97289000  0.70914000  1.0 -0.0077869284
C  C266  1  0.36877000  0.30623000  0.04248000  1.0 -0.0077869284
C  C267  1  0.03544000  0.63956000  0.37581000  1.0 -0.0077869284
C  C268  1  0.73555000  0.98839000  0.71488000  1.0 -0.0077869284
C  C269  1  0.40221000  0.32173000  0.04822000  1.0 -0.0077869284
C  C270  1  0.06888000  0.65506000  0.38155000  1.0 -0.0077869284
C  C271  1  0.75124000  0.99251000  0.69090000  1.0 -0.0196323093
C  C272  1  0.41791000  0.32584000  0.02423000  1.0 -0.0196323093
C  C273  1  0.08457000  0.65918000  0.35757000  1.0 -0.0196323093
C  C274  1  0.77397000  0.90640000  0.46022000  1.0 -0.0196323093
C  C275  1  0.44063000  0.23974000  0.79356000  1.0 -0.0196323093
C  C276  1  0.10730000  0.57307000  0.12689000  1.0 -0.0196323093
C  C277  1  0.74905000  0.86521000  0.45061000  1.0 -0.0417319851
C  C278  1  0.41571000  0.19855000  0.78395000  1.0 -0.0417319851
C  C279  1  0.08238000  0.53188000  0.11728000  1.0 -0.0417319851
C  C280  1  0.75573000  0.83887000  0.44126000  1.0 -0.0685329472
C  C281  1  0.42240000  0.17220000  0.77459000  1.0 -0.0685329472
C  C282  1  0.08906000  0.50554000  0.10793000  1.0 -0.0685329472
C  C283  1  0.73100000  0.79820000  0.43116000  1.0 -0.1227469757
C  C284  1  0.39767000  0.13153000  0.76449000  1.0 -0.1227469757
C  C285  1  0.06433000  0.46487000  0.09783000  1.0 -0.1227469757
C  C286  1  0.69971000  0.78374000  0.43037000  1.0 -0.0901432088
C  C287  1  0.36637000  0.11708000  0.76371000  1.0 -0.0901432088
C  C288  1  0.03304000  0.45041000  0.09704000  1.0 -0.0901432088
C  C289  1  0.69278000  0.81015000  0.43892000  1.0 -0.1227469757
C  C290  1  0.35944000  0.14349000  0.77226000  1.0 -0.1227469757
C  C291  1  0.02611000  0.47682000  0.10559000  1.0 -0.1227469757
C  C292  1  0.71732000  0.84935000  0.45063000  1.0 -0.0576367145
C  C293  1  0.38399000  0.18268000  0.78396000  1.0 -0.0576367145
C  C294  1  0.05066000  0.51601000  0.11729000  1.0 -0.0576367145
C  C295  1  0.67401000  0.74180000  0.41948000  1.0 -0.0298992188
C  C296  1  0.34068000  0.07513000  0.75281000  1.0 -0.0298992188
C  C297  1  0.00734000  0.40847000  0.08615000  1.0 -0.0298992188
C  C298  1  0.67977000  0.71410000  0.40156000  1.0 -0.0685329472
C  C299  1  0.34644000  0.04743000  0.73489000  1.0 -0.0685329472
C  C300  1  0.01310000  0.38077000  0.06823000  1.0 -0.0685329472
C  C301  1  0.65523000  0.67376000  0.38937000  1.0 -0.0576367145
C  C302  1  0.32190000  0.00709000  0.72270000  1.0 -0.0576367145
C  C303  1  0.98856000  0.34043000  0.05604000  1.0 -0.0576367145
C  C304  1  0.62419000  0.65963000  0.39588000  1.0 -0.0196323093
C  C305  1  0.29086000  0.99296000  0.72921000  1.0 -0.0196323093
C  C306  1  0.95752000  0.32630000  0.06255000  1.0 -0.0196323093
C  C307  1  0.61845000  0.68733000  0.41382000  1.0 0.0033337738
C  C308  1  0.28512000  0.02066000  0.74715000  1.0 0.0033337738
C  C309  1  0.95178000  0.35400000  0.08049000  1.0 0.0033337738
C  C310  1  0.64243000  0.72701000  0.42540000  1.0 0.0138234475
C  C311  1  0.30910000  0.06034000  0.75873000  1.0 0.0138234475
C  C312  1  0.97577000  0.39367000  0.09206000  1.0 0.0138234475
C  C313  1  0.87311000  0.98041000  0.53423000  1.0 0.0193475459
C  C314  1  0.53978000  0.31374000  0.86756000  1.0 0.0193475459
C  C315  1  0.20644000  0.64708000  0.20090000  1.0 0.0193475459
C  C316  1  0.88272000  0.96510000  0.55050000  1.0 -0.0489922938
C  C317  1  0.54939000  0.29843000  0.88383000  1.0 -0.0489922938
C  C318  1  0.21605000  0.63177000  0.21717000  1.0 -0.0489922938
C  C319  1  0.89207000  0.98114000  0.58353000  1.0 -0.0901432088
C  C320  1  0.55874000  0.31447000  0.91686000  1.0 -0.0901432088
C  C321  1  0.22541000  0.64780000  0.25019000  1.0 -0.0901432088
C  C322  1  0.90217000  0.96651000  0.59947000  1.0 -0.1404057231
C  C323  1  0.56884000  0.29984000  0.93280000  1.0 -0.1404057231
C  C324  1  0.23551000  0.63317000  0.26613000  1.0 -0.1404057231
C  C325  1  0.90296000  0.93600000  0.58263000  1.0 -0.1404057231
C  C326  1  0.56963000  0.26933000  0.91596000  1.0 -0.1404057231
C  C327  1  0.23629000  0.60267000  0.24930000  1.0 -0.1404057231
C  C328  1  0.89441000  0.92052000  0.54929000  1.0 -0.1227469757
C  C329  1  0.56108000  0.25385000  0.88262000  1.0 -0.1227469757
C  C330  1  0.22774000  0.58719000  0.21596000  1.0 -0.1227469757
C  C331  1  0.88271000  0.93336000  0.53464000  1.0 -0.0999085522
C  C332  1  0.54937000  0.26670000  0.86798000  1.0 -0.0999085522
C  C333  1  0.21604000  0.60003000  0.20131000  1.0 -0.0999085522
C  C334  1  0.91385000  0.92120000  0.59888000  1.0 -0.0999085522
C  C335  1  0.58052000  0.25453000  0.93221000  1.0 -0.0999085522
C  C336  1  0.24719000  0.58786000  0.26554000  1.0 -0.0999085522
C  C337  1  0.93177000  0.94488000  0.63234000  1.0 -0.1404057231
C  C338  1  0.59844000  0.27821000  0.96567000  1.0 -0.1404057231
C  C339  1  0.26511000  0.61154000  0.29900000  1.0 -0.1513906725
C  C340  1  0.94396000  0.93253000  0.64814000  1.0 -0.1404057231
C  C341  1  0.61063000  0.26586000  0.98147000  1.0 -0.1404057231
C  C342  1  0.27730000  0.59919000  0.31480000  1.0 -0.1404057231
C  C343  1  0.93745000  0.89498000  0.63123000  1.0 -0.0685329472
C  C344  1  0.60412000  0.22831000  0.96456000  1.0 -0.0685329472
C  C345  1  0.27079000  0.56164000  0.29789000  1.0 -0.0789875173
C  C346  1  0.91951000  0.87130000  0.59779000  1.0 -0.0077869284
C  C347  1  0.58618000  0.20463000  0.93112000  1.0 -0.0077869284
C  C348  1  0.25285000  0.53796000  0.26445000  1.0 -0.0077869284
C  C349  1  0.90794000  0.88370000  0.58209000  1.0 -0.0298992188
C  C350  1  0.57460000  0.21704000  0.91543000  1.0 -0.0298992188
C  C351  1  0.24127000  0.55037000  0.24876000  1.0 -0.0417319851
C  C352  1  0.16502000  0.92269000  0.47651000  1.0 0.0193475459
C  C353  1  0.83168000  0.25603000  0.80985000  1.0 0.0193475459
C  C354  1  0.49835000  0.58936000  0.14318000  1.0 0.0193475459
C  C355  1  0.16023000  0.88725000  0.47265000  1.0 -0.0489922938
C  C356  1  0.82690000  0.22058000  0.80598000  1.0 -0.0489922938
C  C357  1  0.49357000  0.55391000  0.13931000  1.0 -0.0417319851
C  C358  1  0.18193000  0.88827000  0.49066000  1.0 -0.0901432088
C  C359  1  0.84860000  0.22160000  0.82399000  1.0 -0.0901432088
C  C360  1  0.51527000  0.55493000  0.15732000  1.0 -0.0901432088
C  C361  1  0.17749000  0.85335000  0.48631000  1.0 -0.1556614873
C  C362  1  0.84416000  0.18668000  0.81964000  1.0 -0.1513906725
C  C363  1  0.51083000  0.52001000  0.15297000  1.0 -0.1556614873
C  C364  1  0.15154000  0.81750000  0.46413000  1.0 -0.1404057231
C  C365  1  0.81821000  0.15083000  0.79746000  1.0 -0.1404057231
C  C366  1  0.48488000  0.48416000  0.13079000  1.0 -0.1404057231
C  C367  1  0.13011000  0.81652000  0.44529000  1.0 -0.1404057231
C  C368  1  0.79678000  0.14985000  0.77862000  1.0 -0.1404057231
C  C369  1  0.46344000  0.48319000  0.11196000  1.0 -0.1404057231
C  C370  1  0.13379000  0.85023000  0.45151000  1.0 -0.0901432088
C  C371  1  0.80046000  0.18356000  0.78484000  1.0 -0.0901432088
C  C372  1  0.46712000  0.51690000  0.11818000  1.0 -0.0901432088
C  C373  1  0.14709000  0.78145000  0.45913000  1.0 -0.0999085522
C  C374  1  0.81376000  0.11478000  0.79246000  1.0 -0.0999085522
C  C375  1  0.48042000  0.44812000  0.12580000  1.0 -0.0999085522
C  C376  1  0.17403000  0.78395000  0.47141000  1.0 -0.1513906725
C  C377  1  0.84070000  0.11728000  0.80474000  1.0 -0.1513906725
C  C378  1  0.50736000  0.45062000  0.13808000  1.0 -0.1513906725
C  C379  1  0.17106000  0.75003000  0.46564000  1.0 -0.0999085522
C  C380  1  0.83773000  0.08336000  0.79897000  1.0 -0.0999085522
C  C381  1  0.50440000  0.41669000  0.13230000  1.0 -0.0999085522
C  C382  1  0.14039000  0.71211000  0.44836000  1.0 -0.0077869284
C  C383  1  0.80706000  0.04544000  0.78169000  1.0 -0.0077869284
C  C384  1  0.47373000  0.37877000  0.11502000  1.0 -0.0077869284
C  C385  1  0.11346000  0.70962000  0.43611000  1.0 -0.0077869284
C  C386  1  0.78013000  0.04295000  0.76944000  1.0 -0.0077869284
C  C387  1  0.44679000  0.37629000  0.10278000  1.0 -0.0077869284
C  C388  1  0.11650000  0.74297000  0.44136000  1.0 -0.0196323093
C  C389  1  0.78317000  0.07630000  0.77469000  1.0 -0.0077869284
C  C390  1  0.44983000  0.40964000  0.10803000  1.0 -0.0196323093
C  C391  1  0.19015000  0.02184000  0.57566000  1.0 -0.0196323093
C  C392  1  0.85682000  0.35517000  0.90899000  1.0 -0.0196323093
C  C393  1  0.52349000  0.68850000  0.24232000  1.0 -0.0196323093
C  C394  1  0.19402000  0.02092000  0.60632000  1.0 -0.0417319851
C  C395  1  0.86069000  0.35425000  0.93965000  1.0 -0.0417319851
C  C396  1  0.52735000  0.68759000  0.27299000  1.0 -0.0417319851
C  C397  1  0.17601000  0.02461000  0.62700000  1.0 -0.0685329472
C  C398  1  0.84268000  0.35794000  0.96033000  1.0 -0.0685329472
C  C399  1  0.50934000  0.69128000  0.29367000  1.0 -0.0685329472
C  C400  1  0.18036000  0.02452000  0.65748000  1.0 -0.1227469757
C  C401  1  0.84703000  0.35785000  0.99081000  1.0 -0.1227469757
C  C402  1  0.51369000  0.69119000  0.32415000  1.0 -0.1227469757
C  C403  1  0.20254000  0.02075000  0.66738000  1.0 -0.0901432088
C  C404  1  0.86921000  0.35408000  0.00071000  1.0 -0.0901432088
C  C405  1  0.53587000  0.68742000  0.33405000  1.0 -0.0901432088
C  C406  1  0.22138000  0.01815000  0.64692000  1.0 -0.1227469757
C  C407  1  0.88804000  0.35149000  0.98026000  1.0 -0.1227469757
C  C408  1  0.55471000  0.68482000  0.31359000  1.0 -0.1227469757
C  C409  1  0.21516000  0.01561000  0.61689000  1.0 -0.0576367145
C  C410  1  0.88182000  0.34895000  0.95023000  1.0 -0.0576367145
C  C411  1  0.54849000  0.68228000  0.28356000  1.0 -0.0576367145
C  C412  1  0.20754000  0.02129000  0.69897000  1.0 -0.0298992188
C  C413  1  0.87420000  0.35463000  0.03231000  1.0 -0.0298992188
C  C414  1  0.54087000  0.68796000  0.36564000  1.0 -0.0298992188
C  C415  1  0.19526000  0.03595000  0.72341000  1.0 -0.0685329472
C  C416  1  0.86192000  0.36929000  0.05675000  1.0 -0.0685329472
C  C417  1  0.52859000  0.70262000  0.39008000  1.0 -0.0685329472
C  C418  1  0.20103000  0.03876000  0.75437000  1.0 -0.0576367145
C  C419  1  0.86770000  0.37209000  0.08770000  1.0 -0.0576367145
C  C420  1  0.53436000  0.70543000  0.42104000  1.0 -0.0576367145
C  C421  1  0.21831000  0.02537000  0.76162000  1.0 -0.0196323093
C  C422  1  0.88498000  0.35870000  0.09495000  1.0 -0.0196323093
C  C423  1  0.55164000  0.69204000  0.42829000  1.0 -0.0196323093
C  C424  1  0.23056000  0.01068000  0.73717000  1.0 0.0033337738
C  C425  1  0.89722000  0.34402000  0.07051000  1.0 0.0033337738
C  C426  1  0.56389000  0.67735000  0.40384000  1.0 0.0033337738
C  C427  1  0.22531000  0.00847000  0.70686000  1.0 0.0138234475
C  C428  1  0.89197000  0.34181000  0.04020000  1.0 0.0138234475
C  C429  1  0.55864000  0.67514000  0.37353000  1.0 0.0138234475
C  C430  1  0.09101000  0.94783000  0.50165000  1.0 0.0193475459
C  C431  1  0.75768000  0.28116000  0.83498000  1.0 0.0193475459
C  C432  1  0.42434000  0.61450000  0.16832000  1.0 0.0193475459
C  C433  1  0.06035000  0.92103000  0.50643000  1.0 -0.0489922938
C  C434  1  0.72701000  0.25437000  0.83977000  1.0 -0.0489922938
C  C435  1  0.39368000  0.58770000  0.17310000  1.0 -0.0489922938
C  C436  1  0.03967000  0.88234000  0.48473000  1.0 -0.0901432088
C  C437  1  0.70633000  0.21568000  0.81807000  1.0 -0.0901432088
C  C438  1  0.37300000  0.54901000  0.15140000  1.0 -0.0901432088
C  C439  1  0.00919000  0.85621000  0.48917000  1.0 -0.1513906725
C  C440  1  0.67585000  0.18955000  0.82251000  1.0 -0.1404057231
C  C441  1  0.34252000  0.52288000  0.15584000  1.0 -0.1404057231
C  C442  1  0.99929000  0.86849000  0.51512000  1.0 -0.1404057231
C  C443  1  0.66595000  0.20183000  0.84846000  1.0 -0.1404057231
C  C444  1  0.33262000  0.53516000  0.18179000  1.0 -0.1404057231
C  C445  1  0.01974000  0.90779000  0.53656000  1.0 -0.1227469757
C  C446  1  0.68641000  0.24112000  0.86989000  1.0 -0.1227469757
C  C447  1  0.35308000  0.57445000  0.20322000  1.0 -0.1227469757
C  C448  1  0.04977000  0.93160000  0.53288000  1.0 -0.0999085522
C  C449  1  0.71644000  0.26493000  0.86621000  1.0 -0.0999085522
C  C450  1  0.38311000  0.59826000  0.19954000  1.0 -0.0999085522
C  C451  1  0.96769000  0.84190000  0.51958000  1.0 -0.0999085522
C  C452  1  0.63436000  0.17523000  0.85291000  1.0 -0.0999085522
C  C453  1  0.30103000  0.50856000  0.18624000  1.0 -0.0999085522
C  C454  1  0.94325000  0.80518000  0.49264000  1.0 -0.1404057231
C  C455  1  0.60992000  0.13851000  0.82597000  1.0 -0.1404057231
C  C456  1  0.27659000  0.47184000  0.15930000  1.0 -0.1513906725
C  C457  1  0.91230000  0.77999000  0.49560000  1.0 -0.1404057231
C  C458  1  0.57896000  0.11333000  0.82894000  1.0 -0.1404057231
C  C459  1  0.24563000  0.44666000  0.16227000  1.0 -0.1404057231
C  C460  1  0.90505000  0.79002000  0.52627000  1.0 -0.0685329472
C  C461  1  0.57171000  0.12336000  0.85961000  1.0 -0.0685329472
C  C462  1  0.23838000  0.45669000  0.19294000  1.0 -0.0789875173
C  C463  1  0.92949000  0.82672000  0.55321000  1.0 -0.0077869284
C  C464  1  0.59616000  0.16005000  0.88654000  1.0 -0.0077869284
C  C465  1  0.26283000  0.49338000  0.21987000  1.0 -0.0077869284
C  C466  1  0.95980000  0.85178000  0.55017000  1.0 -0.0298992188
C  C467  1  0.62647000  0.18511000  0.88350000  1.0 -0.0298992188
C  C468  1  0.29314000  0.51844000  0.21683000  1.0 -0.0417319851
C  C469  1  0.99835000  0.35517000  0.40899000  1.0 -0.0196323093
C  C470  1  0.66502000  0.68850000  0.74232000  1.0 -0.0196323093
C  C471  1  0.33168000  0.02184000  0.07566000  1.0 -0.0196323093
C  C472  1  0.99357000  0.35425000  0.43965000  1.0 -0.0417319851
C  C473  1  0.66023000  0.68759000  0.77299000  1.0 -0.0417319851
C  C474  1  0.32690000  0.02092000  0.10632000  1.0 -0.0417319851
C  C475  1  0.01527000  0.35794000  0.46033000  1.0 -0.0685329472
C  C476  1  0.68193000  0.69128000  0.79367000  1.0 -0.0685329472
C  C477  1  0.34860000  0.02461000  0.12700000  1.0 -0.0685329472
C  C478  1  0.01083000  0.35785000  0.49081000  1.0 -0.1227469757
C  C479  1  0.67749000  0.69119000  0.82415000  1.0 -0.1227469757
C  C480  1  0.34416000  0.02452000  0.15748000  1.0 -0.1227469757
C  C481  1  0.98488000  0.35408000  0.50071000  1.0 -0.0901432088
C  C482  1  0.65154000  0.68742000  0.83405000  1.0 -0.0901432088
C  C483  1  0.31821000  0.02075000  0.16738000  1.0 -0.0901432088
C  C484  1  0.96344000  0.35149000  0.48026000  1.0 -0.1227469757
C  C485  1  0.63011000  0.68482000  0.81359000  1.0 -0.1227469757
C  C486  1  0.29678000  0.01815000  0.14692000  1.0 -0.1227469757
C  C487  1  0.96712000  0.34895000  0.45023000  1.0 -0.0576367145
C  C488  1  0.63379000  0.68228000  0.78356000  1.0 -0.0576367145
C  C489  1  0.30046000  0.01561000  0.11689000  1.0 -0.0576367145
C  C490  1  0.98042000  0.35463000  0.53231000  1.0 -0.0298992188
C  C491  1  0.64709000  0.68796000  0.86564000  1.0 -0.0298992188
C  C492  1  0.31376000  0.02129000  0.19897000  1.0 -0.0298992188
C  C493  1  0.00736000  0.36929000  0.55675000  1.0 -0.0685329472
C  C494  1  0.67403000  0.70262000  0.89008000  1.0 -0.0685329472
C  C495  1  0.34070000  0.03595000  0.22341000  1.0 -0.0685329472
C  C496  1  0.00440000  0.37209000  0.58770000  1.0 -0.0576367145
C  C497  1  0.67106000  0.70543000  0.92104000  1.0 -0.0576367145
C  C498  1  0.33773000  0.03876000  0.25437000  1.0 -0.0576367145
C  C499  1  0.97373000  0.35870000  0.59495000  1.0 -0.0196323093
C  C500  1  0.64039000  0.69204000  0.92829000  1.0 -0.0196323093
C  C501  1  0.30706000  0.02537000  0.26162000  1.0 -0.0196323093
C  C502  1  0.94679000  0.34402000  0.57051000  1.0 0.0033337738
C  C503  1  0.61346000  0.67735000  0.90384000  1.0 0.0033337738
C  C504  1  0.28013000  0.01068000  0.23717000  1.0 0.0033337738
C  C505  1  0.94983000  0.34181000  0.54020000  1.0 0.0138234475
C  C506  1  0.61650000  0.67514000  0.87353000  1.0 0.0138234475
C  C507  1  0.28317000  0.00847000  0.20686000  1.0 0.0138234475
C  C508  1  0.02349000  0.28116000  0.33498000  1.0 0.0193475459
C  C509  1  0.69015000  0.61450000  0.66832000  1.0 0.0193475459
C  C510  1  0.35682000  0.94783000  0.00165000  1.0 0.0193475459
C  C511  1  0.02735000  0.25437000  0.33977000  1.0 -0.0489922938
C  C512  1  0.69402000  0.58770000  0.67310000  1.0 -0.0489922938
C  C513  1  0.36069000  0.92103000  0.00643000  1.0 -0.0489922938
C  C514  1  0.00934000  0.21568000  0.31807000  1.0 -0.0901432088
C  C515  1  0.67601000  0.54901000  0.65140000  1.0 -0.0901432088
C  C516  1  0.34268000  0.88234000  0.98473000  1.0 -0.0901432088
C  C517  1  0.01369000  0.18955000  0.32251000  1.0 -0.1404057231
C  C518  1  0.68036000  0.52288000  0.65584000  1.0 -0.1404057231
C  C519  1  0.34703000  0.85621000  0.98917000  1.0 -0.1404057231
C  C520  1  0.03587000  0.20183000  0.34846000  1.0 -0.1404057231
C  C521  1  0.70254000  0.53516000  0.68179000  1.0 -0.1404057231
C  C522  1  0.36921000  0.86849000  0.01512000  1.0 -0.1404057231
C  C523  1  0.05471000  0.24112000  0.36989000  1.0 -0.1227469757
C  C524  1  0.72138000  0.57445000  0.70322000  1.0 -0.1227469757
C  C525  1  0.38804000  0.90779000  0.03656000  1.0 -0.1227469757
C  C526  1  0.04849000  0.26493000  0.36621000  1.0 -0.0999085522
C  C527  1  0.71516000  0.59826000  0.69954000  1.0 -0.0999085522
C  C528  1  0.38182000  0.93160000  0.03288000  1.0 -0.0901432088
C  C529  1  0.04087000  0.17523000  0.35291000  1.0 -0.0999085522
C  C530  1  0.70754000  0.50856000  0.68624000  1.0 -0.0999085522
C  C531  1  0.37420000  0.84190000  0.01958000  1.0 -0.0999085522
C  C532  1  0.02859000  0.13851000  0.32597000  1.0 -0.1513906725
C  C533  1  0.69526000  0.47184000  0.65930000  1.0 -0.1404057231
C  C534  1  0.36192000  0.80518000  0.99264000  1.0 -0.1513906725
C  C535  1  0.03436000  0.11333000  0.32894000  1.0 -0.1404057231
C  C536  1  0.70103000  0.44666000  0.66227000  1.0 -0.1404057231
C  C537  1  0.36770000  0.77999000  0.99560000  1.0 -0.1404057231
C  C538  1  0.05164000  0.12336000  0.35961000  1.0 -0.0789875173
C  C539  1  0.71831000  0.45669000  0.69294000  1.0 -0.0685329472
C  C540  1  0.38498000  0.79002000  0.02627000  1.0 -0.0789875173
C  C541  1  0.06389000  0.16005000  0.38654000  1.0 -0.0077869284
C  C542  1  0.73056000  0.49338000  0.71987000  1.0 -0.0077869284
C  C543  1  0.39722000  0.82672000  0.05321000  1.0 -0.0077869284
C  C544  1  0.05864000  0.18511000  0.38350000  1.0 -0.0417319851
C  C545  1  0.72531000  0.51844000  0.71683000  1.0 -0.0298992188
C  C546  1  0.39197000  0.85178000  0.05017000  1.0 -0.0417319851
C  C547  1  0.92434000  0.25603000  0.30985000  1.0 0.0193475459
C  C548  1  0.59101000  0.58936000  0.64318000  1.0 0.0193475459
C  C549  1  0.25768000  0.92269000  0.97651000  1.0 0.0193475459
C  C550  1  0.89368000  0.22058000  0.30598000  1.0 -0.0489922938
C  C551  1  0.56035000  0.55391000  0.63931000  1.0 -0.0489922938
C  C552  1  0.22701000  0.88725000  0.97265000  1.0 -0.0417319851
C  C553  1  0.87300000  0.22160000  0.32399000  1.0 -0.0901432088
C  C554  1  0.53967000  0.55493000  0.65732000  1.0 -0.0901432088
C  C555  1  0.20633000  0.88827000  0.99066000  1.0 -0.0901432088
C  C556  1  0.84252000  0.18668000  0.31964000  1.0 -0.1556614873
C  C557  1  0.50919000  0.52001000  0.65297000  1.0 -0.1556614873
C  C558  1  0.17585000  0.85335000  0.98631000  1.0 -0.1556614873
C  C559  1  0.83262000  0.15083000  0.29746000  1.0 -0.1404057231
C  C560  1  0.49929000  0.48416000  0.63079000  1.0 -0.1404057231
C  C561  1  0.16595000  0.81750000  0.96413000  1.0 -0.1404057231
C  C562  1  0.85308000  0.14985000  0.27862000  1.0 -0.1404057231
C  C563  1  0.51974000  0.48319000  0.61196000  1.0 -0.1404057231
C  C564  1  0.18641000  0.81652000  0.94529000  1.0 -0.1404057231
C  C565  1  0.88311000  0.18356000  0.28484000  1.0 -0.0901432088
C  C566  1  0.54977000  0.51690000  0.61818000  1.0 -0.0901432088
C  C567  1  0.21644000  0.85023000  0.95151000  1.0 -0.0901432088
C  C568  1  0.80103000  0.11478000  0.29246000  1.0 -0.0999085522
C  C569  1  0.46769000  0.44812000  0.62580000  1.0 -0.0999085522
C  C570  1  0.13436000  0.78145000  0.95913000  1.0 -0.0999085522
C  C571  1  0.77659000  0.11728000  0.30474000  1.0 -0.1513906725
C  C572  1  0.44325000  0.45062000  0.63808000  1.0 -0.1513906725
C  C573  1  0.10992000  0.78395000  0.97141000  1.0 -0.1513906725
C  C574  1  0.74563000  0.08336000  0.29897000  1.0 -0.0999085522
C  C575  1  0.41230000  0.41669000  0.63230000  1.0 -0.0999085522
C  C576  1  0.07896000  0.75003000  0.96564000  1.0 -0.0999085522
C  C577  1  0.73838000  0.04544000  0.28169000  1.0 -0.0077869284
C  C578  1  0.40505000  0.37877000  0.61502000  1.0 -0.0077869284
C  C579  1  0.07171000  0.71211000  0.94836000  1.0 -0.0077869284
C  C580  1  0.76283000  0.04295000  0.26944000  1.0 -0.0077869284
C  C581  1  0.42949000  0.37629000  0.60278000  1.0 -0.0077869284
C  C582  1  0.09616000  0.70962000  0.93611000  1.0 -0.0077869284
C  C583  1  0.79314000  0.07630000  0.27469000  1.0 -0.0196323093
C  C584  1  0.45980000  0.40964000  0.60803000  1.0 -0.0196323093
C  C585  1  0.12647000  0.74297000  0.94136000  1.0 -0.0196323093
C  C586  1  0.29910000  0.23974000  0.29356000  1.0 -0.0196323093
C  C587  1  0.96577000  0.57307000  0.62689000  1.0 -0.0196323093
C  C588  1  0.63244000  0.90640000  0.96022000  1.0 -0.0196323093
C  C589  1  0.28283000  0.19855000  0.28395000  1.0 -0.0417319851
C  C590  1  0.94950000  0.53188000  0.61728000  1.0 -0.0417319851
C  C591  1  0.61617000  0.86521000  0.95061000  1.0 -0.0417319851
C  C592  1  0.24981000  0.17220000  0.27459000  1.0 -0.0685329472
C  C593  1  0.91647000  0.50554000  0.60793000  1.0 -0.0685329472
C  C594  1  0.58314000  0.83887000  0.94126000  1.0 -0.0685329472
C  C595  1  0.23387000  0.13153000  0.26449000  1.0 -0.1227469757
C  C596  1  0.90053000  0.46487000  0.59783000  1.0 -0.1227469757
C  C597  1  0.56720000  0.79820000  0.93116000  1.0 -0.1227469757
C  C598  1  0.25070000  0.11708000  0.26371000  1.0 -0.0901432088
C  C599  1  0.91737000  0.45041000  0.59704000  1.0 -0.0901432088
C  C600  1  0.58404000  0.78374000  0.93037000  1.0 -0.0901432088
C  C601  1  0.28404000  0.14349000  0.27226000  1.0 -0.1227469757
C  C602  1  0.95071000  0.47682000  0.60559000  1.0 -0.1227469757
C  C603  1  0.61738000  0.81015000  0.93892000  1.0 -0.1227469757
C  C604  1  0.29869000  0.18268000  0.28396000  1.0 -0.0576367145
C  C605  1  0.96536000  0.51601000  0.61729000  1.0 -0.0576367145
C  C606  1  0.63202000  0.84935000  0.95063000  1.0 -0.0576367145
C  C607  1  0.23446000  0.07513000  0.25281000  1.0 -0.0298992188
C  C608  1  0.90112000  0.40847000  0.58615000  1.0 -0.0298992188
C  C609  1  0.56779000  0.74180000  0.91948000  1.0 -0.0298992188
C  C610  1  0.20100000  0.04743000  0.23489000  1.0 -0.0685329472
C  C611  1  0.86766000  0.38077000  0.56823000  1.0 -0.0685329472
C  C612  1  0.53433000  0.71410000  0.90156000  1.0 -0.0685329472
C  C613  1  0.18520000  0.00709000  0.22270000  1.0 -0.0576367145
C  C614  1  0.85186000  0.34043000  0.55604000  1.0 -0.0576367145
C  C615  1  0.51853000  0.67376000  0.88937000  1.0 -0.0576367145
C  C616  1  0.20211000  0.99296000  0.22921000  1.0 -0.0196323093
C  C617  1  0.86877000  0.32630000  0.56255000  1.0 -0.0196323093
C  C618  1  0.53544000  0.65963000  0.89588000  1.0 -0.0196323093
C  C619  1  0.23555000  0.02066000  0.24715000  1.0 0.0033337738
C  C620  1  0.90221000  0.35400000  0.58049000  1.0 0.0033337738
C  C621  1  0.56888000  0.68733000  0.91382000  1.0 0.0033337738
C  C622  1  0.25124000  0.06034000  0.25873000  1.0 0.0138234475
C  C623  1  0.91791000  0.39367000  0.59206000  1.0 0.0138234475
C  C624  1  0.58457000  0.72701000  0.92540000  1.0 0.0138234475
C  C625  1  0.27397000  0.31374000  0.36756000  1.0 0.0193475459
C  C626  1  0.94063000  0.64708000  0.70090000  1.0 0.0193475459
C  C627  1  0.60730000  0.98041000  0.03423000  1.0 0.0193475459
C  C628  1  0.24905000  0.29843000  0.38383000  1.0 -0.0489922938
C  C629  1  0.91571000  0.63177000  0.71717000  1.0 -0.0489922938
C  C630  1  0.58238000  0.96510000  0.05050000  1.0 -0.0489922938
C  C631  1  0.25573000  0.31447000  0.41686000  1.0 -0.0901432088
C  C632  1  0.92240000  0.64780000  0.75019000  1.0 -0.0901432088
C  C633  1  0.58906000  0.98114000  0.08353000  1.0 -0.0901432088
C  C634  1  0.23100000  0.29984000  0.43280000  1.0 -0.1404057231
C  C635  1  0.89767000  0.63317000  0.76613000  1.0 -0.1404057231
C  C636  1  0.56433000  0.96651000  0.09947000  1.0 -0.1404057231
C  C637  1  0.19971000  0.26933000  0.41596000  1.0 -0.1404057231
C  C638  1  0.86637000  0.60267000  0.74930000  1.0 -0.1404057231
C  C639  1  0.53304000  0.93600000  0.08263000  1.0 -0.1404057231
C  C640  1  0.19278000  0.25385000  0.38262000  1.0 -0.1227469757
C  C641  1  0.85944000  0.58719000  0.71596000  1.0 -0.1227469757
C  C642  1  0.52611000  0.92052000  0.04929000  1.0 -0.1227469757
C  C643  1  0.21732000  0.26670000  0.36798000  1.0 -0.0999085522
C  C644  1  0.88399000  0.60003000  0.70131000  1.0 -0.0999085522
C  C645  1  0.55066000  0.93336000  0.03464000  1.0 -0.0999085522
C  C646  1  0.17401000  0.25453000  0.43221000  1.0 -0.0999085522
C  C647  1  0.84068000  0.58786000  0.76554000  1.0 -0.0999085522
C  C648  1  0.50734000  0.92120000  0.09888000  1.0 -0.0999085522
C  C649  1  0.17977000  0.27821000  0.46567000  1.0 -0.1513906725
C  C650  1  0.84644000  0.61154000  0.79900000  1.0 -0.1404057231
C  C651  1  0.51310000  0.94488000  0.13234000  1.0 -0.1513906725
C  C652  1  0.15523000  0.26586000  0.48147000  1.0 -0.1404057231
C  C653  1  0.82190000  0.59919000  0.81480000  1.0 -0.1404057231
C  C654  1  0.48856000  0.93253000  0.14814000  1.0 -0.1404057231
C  C655  1  0.12419000  0.22831000  0.46456000  1.0 -0.0789875173
C  C656  1  0.79086000  0.56164000  0.79789000  1.0 -0.0685329472
C  C657  1  0.45752000  0.89498000  0.13123000  1.0 -0.0789875173
C  C658  1  0.11845000  0.20463000  0.43112000  1.0 -0.0077869284
C  C659  1  0.78512000  0.53796000  0.76445000  1.0 -0.0077869284
C  C660  1  0.45178000  0.87130000  0.09779000  1.0 -0.0077869284
C  C661  1  0.14243000  0.21704000  0.41543000  1.0 -0.0417319851
C  C662  1  0.80910000  0.55037000  0.74876000  1.0 -0.0298992188
C  C663  1  0.47577000  0.88370000  0.08209000  1.0 -0.0417319851
C  C664  1  0.37311000  0.33888000  0.39270000  1.0 0.0193475459
C  C665  1  0.03978000  0.67221000  0.72603000  1.0 0.0193475459
C  C666  1  0.70644000  0.00555000  0.05937000  1.0 0.0193475459
C  C667  1  0.38272000  0.33222000  0.41762000  1.0 -0.0417319851
C  C668  1  0.04939000  0.66555000  0.75095000  1.0 -0.0489922938
C  C669  1  0.71605000  0.99889000  0.08429000  1.0 -0.0417319851
C  C670  1  0.39207000  0.30855000  0.41094000  1.0 -0.0901432088
C  C671  1  0.05874000  0.64188000  0.74427000  1.0 -0.0901432088
C  C672  1  0.72541000  0.97521000  0.07760000  1.0 -0.0901432088
C  C673  1  0.40217000  0.30271000  0.43567000  1.0 -0.1556614873
C  C674  1  0.06884000  0.63604000  0.76900000  1.0 -0.1556614873
C  C675  1  0.73551000  0.96937000  0.10233000  1.0 -0.1556614873
C  C676  1  0.40296000  0.32033000  0.46696000  1.0 -0.1404057231
C  C677  1  0.06963000  0.65366000  0.80029000  1.0 -0.1404057231
C  C678  1  0.73629000  0.98700000  0.13363000  1.0 -0.1404057231
C  C679  1  0.39441000  0.34512000  0.47389000  1.0 -0.1404057231
C  C680  1  0.06108000  0.67845000  0.80722000  1.0 -0.1404057231
C  C681  1  0.72774000  0.01179000  0.14056000  1.0 -0.1404057231
C  C682  1  0.38271000  0.34806000  0.44934000  1.0 -0.0901432088
C  C683  1  0.04937000  0.68140000  0.78268000  1.0 -0.0901432088
C  C684  1  0.71604000  0.01473000  0.11601000  1.0 -0.0901432088
C  C685  1  0.41385000  0.31498000  0.49266000  1.0 -0.0999085522
C  C686  1  0.08052000  0.64831000  0.82599000  1.0 -0.0999085522
C  C687  1  0.74719000  0.98164000  0.15932000  1.0 -0.0999085522
C  C688  1  0.43177000  0.29944000  0.48690000  1.0 -0.1513906725
C  C689  1  0.09844000  0.63277000  0.82023000  1.0 -0.1513906725
C  C690  1  0.76511000  0.96610000  0.15356000  1.0 -0.1513906725
C  C691  1  0.44396000  0.29583000  0.51144000  1.0 -0.0999085522
C  C692  1  0.11063000  0.62916000  0.84477000  1.0 -0.0999085522
C  C693  1  0.77730000  0.96249000  0.17810000  1.0 -0.0999085522
C  C694  1  0.43745000  0.30623000  0.54248000  1.0 -0.0077869284
C  C695  1  0.10412000  0.63956000  0.87581000  1.0 -0.0077869284
C  C696  1  0.77079000  0.97289000  0.20914000  1.0 -0.0077869284
C  C697  1  0.41951000  0.32173000  0.54822000  1.0 -0.0077869284
C  C698  1  0.08618000  0.65506000  0.88155000  1.0 -0.0077869284
C  C699  1  0.75285000  0.98839000  0.21488000  1.0 -0.0077869284
C  C700  1  0.40794000  0.32584000  0.52423000  1.0 -0.0196323093
C  C701  1  0.07460000  0.65918000  0.85757000  1.0 -0.0196323093
C  C702  1  0.74127000  0.99251000  0.19090000  1.0 -0.0196323093
C  C703  1  0.20090000  0.99445000  0.44063000  1.0 0.0193475459
C  C704  1  0.86756000  0.32779000  0.77397000  1.0 0.0193475459
C  C705  1  0.53423000  0.66112000  0.10730000  1.0 0.0193475459
C  C706  1  0.21717000  0.00111000  0.41571000  1.0 -0.0489922938
C  C707  1  0.88383000  0.33445000  0.74905000  1.0 -0.0489922938
C  C708  1  0.55050000  0.66778000  0.08238000  1.0 -0.0489922938
C  C709  1  0.25019000  0.02479000  0.42240000  1.0 -0.0999085522
C  C710  1  0.91686000  0.35812000  0.75573000  1.0 -0.0901432088
C  C711  1  0.58353000  0.69145000  0.08906000  1.0 -0.0901432088
C  C712  1  0.26613000  0.03063000  0.39767000  1.0 -0.1556614873
C  C713  1  0.93280000  0.36396000  0.73100000  1.0 -0.1556614873
C  C714  1  0.59947000  0.69729000  0.06433000  1.0 -0.1556614873
C  C715  1  0.24930000  0.01300000  0.36637000  1.0 -0.1404057231
C  C716  1  0.91596000  0.34634000  0.69971000  1.0 -0.1404057231
C  C717  1  0.58263000  0.67967000  0.03304000  1.0 -0.1404057231
C  C718  1  0.21596000  0.98821000  0.35944000  1.0 -0.1404057231
C  C719  1  0.88262000  0.32155000  0.69278000  1.0 -0.1404057231
C  C720  1  0.54929000  0.65488000  0.02611000  1.0 -0.1404057231
C  C721  1  0.20131000  0.98527000  0.38399000  1.0 -0.0901432088
C  C722  1  0.86798000  0.31860000  0.71732000  1.0 -0.0901432088
C  C723  1  0.53464000  0.65194000  0.05066000  1.0 -0.0901432088
C  C724  1  0.26554000  0.01836000  0.34068000  1.0 -0.0999085522
C  C725  1  0.93221000  0.35169000  0.67401000  1.0 -0.0999085522
C  C726  1  0.59888000  0.68502000  0.00734000  1.0 -0.0999085522
C  C727  1  0.29900000  0.03390000  0.34644000  1.0 -0.1513906725
C  C728  1  0.96567000  0.36723000  0.67977000  1.0 -0.1513906725
C  C729  1  0.63234000  0.70056000  0.01310000  1.0 -0.1513906725
C  C730  1  0.31480000  0.03751000  0.32190000  1.0 -0.0999085522
C  C731  1  0.98147000  0.37084000  0.65523000  1.0 -0.0999085522
C  C732  1  0.64814000  0.70417000  0.98856000  1.0 -0.0999085522
C  C733  1  0.29789000  0.02711000  0.29086000  1.0 -0.0077869284
C  C734  1  0.96456000  0.36044000  0.62419000  1.0 -0.0077869284
C  C735  1  0.63123000  0.69377000  0.95752000  1.0 -0.0077869284
C  C736  1  0.26445000  0.01161000  0.28512000  1.0 -0.0077869284
C  C737  1  0.93112000  0.34494000  0.61845000  1.0 -0.0077869284
C  C738  1  0.59779000  0.67827000  0.95178000  1.0 -0.0077869284
C  C739  1  0.24876000  0.00749000  0.30910000  1.0 -0.0196323093
C  C740  1  0.91543000  0.34082000  0.64243000  1.0 -0.0077869284
C  C741  1  0.58209000  0.67416000  0.97577000  1.0 -0.0196323093
C  C742  1  0.22603000  0.09360000  0.53978000  1.0 -0.0196323093
C  C743  1  0.89270000  0.42693000  0.87311000  1.0 -0.0196323093
C  C744  1  0.55937000  0.76026000  0.20644000  1.0 -0.0196323093
C  C745  1  0.25095000  0.13479000  0.54939000  1.0 -0.0417319851
C  C746  1  0.91762000  0.46812000  0.88272000  1.0 -0.0417319851
C  C747  1  0.58429000  0.80145000  0.21605000  1.0 -0.0417319851
C  C748  1  0.24427000  0.16113000  0.55874000  1.0 -0.0685329472
C  C749  1  0.91094000  0.49446000  0.89207000  1.0 -0.0685329472
C  C750  1  0.57760000  0.82780000  0.22541000  1.0 -0.0685329472
C  C751  1  0.26900000  0.20180000  0.56884000  1.0 -0.1227469757
C  C752  1  0.93567000  0.53513000  0.90217000  1.0 -0.1227469757
C  C753  1  0.60233000  0.86847000  0.23551000  1.0 -0.1227469757
C  C754  1  0.30029000  0.21626000  0.56963000  1.0 -0.0901432088
C  C755  1  0.96696000  0.54959000  0.90296000  1.0 -0.0901432088
C  C756  1  0.63363000  0.88292000  0.23629000  1.0 -0.0901432088
C  C757  1  0.30722000  0.18985000  0.56108000  1.0 -0.1227469757
C  C758  1  0.97389000  0.52318000  0.89441000  1.0 -0.1227469757
C  C759  1  0.64056000  0.85651000  0.22774000  1.0 -0.1227469757
C  C760  1  0.28268000  0.15065000  0.54937000  1.0 -0.0576367145
C  C761  1  0.94934000  0.48399000  0.88271000  1.0 -0.0576367145
C  C762  1  0.61601000  0.81732000  0.21604000  1.0 -0.0576367145
C  C763  1  0.32599000  0.25820000  0.58052000  1.0 -0.0298992188
C  C764  1  0.99266000  0.59153000  0.91385000  1.0 -0.0298992188
C  C765  1  0.65932000  0.92487000  0.24719000  1.0 -0.0298992188
C  C766  1  0.32023000  0.28590000  0.59844000  1.0 -0.0685329472
C  C767  1  0.98690000  0.61923000  0.93177000  1.0 -0.0685329472
C  C768  1  0.65356000  0.95257000  0.26511000  1.0 -0.0685329472
C  C769  1  0.34477000  0.32624000  0.61063000  1.0 -0.0576367145
C  C770  1  0.01144000  0.65957000  0.94396000  1.0 -0.0576367145
C  C771  1  0.67810000  0.99291000  0.27730000  1.0 -0.0576367145
C  C772  1  0.37581000  0.34037000  0.60412000  1.0 -0.0196323093
C  C773  1  0.04248000  0.67370000  0.93745000  1.0 -0.0196323093
C  C774  1  0.70914000  0.00704000  0.27079000  1.0 -0.0196323093
C  C775  1  0.38155000  0.31267000  0.58618000  1.0 0.0033337738
C  C776  1  0.04822000  0.64600000  0.91951000  1.0 0.0033337738
C  C777  1  0.71488000  0.97934000  0.25285000  1.0 0.0033337738
C  C778  1  0.35757000  0.27299000  0.57460000  1.0 0.0138234475
C  C779  1  0.02423000  0.60633000  0.90794000  1.0 0.0138234475
C  C780  1  0.69090000  0.93966000  0.24127000  1.0 0.0138234475
C  C781  1  0.12689000  0.01959000  0.46577000  1.0 0.0193475459
C  C782  1  0.79356000  0.35292000  0.79910000  1.0 0.0193475459
C  C783  1  0.46022000  0.68626000  0.13244000  1.0 0.0193475459
C  C784  1  0.11728000  0.03490000  0.44950000  1.0 -0.0489922938
C  C785  1  0.78395000  0.36823000  0.78283000  1.0 -0.0489922938
C  C786  1  0.45061000  0.70157000  0.11617000  1.0 -0.0489922938
C  C787  1  0.10793000  0.01886000  0.41647000  1.0 -0.0901432088
C  C788  1  0.77459000  0.35220000  0.74981000  1.0 -0.0901432088
C  C789  1  0.44126000  0.68553000  0.08314000  1.0 -0.0901432088
C  C790  1  0.09783000  0.03349000  0.40053000  1.0 -0.1404057231
C  C791  1  0.76449000  0.36683000  0.73387000  1.0 -0.1404057231
C  C792  1  0.43116000  0.70016000  0.06720000  1.0 -0.1404057231
C  C793  1  0.09704000  0.06400000  0.41737000  1.0 -0.1404057231
C  C794  1  0.76371000  0.39733000  0.75070000  1.0 -0.1404057231
C  C795  1  0.43037000  0.73067000  0.08404000  1.0 -0.1404057231
C  C796  1  0.10559000  0.07948000  0.45071000  1.0 -0.1227469757
C  C797  1  0.77226000  0.41281000  0.78404000  1.0 -0.1227469757
C  C798  1  0.43892000  0.74615000  0.11738000  1.0 -0.1227469757
C  C799  1  0.11729000  0.06664000  0.46536000  1.0 -0.0999085522
C  C800  1  0.78396000  0.39997000  0.79869000  1.0 -0.0999085522
C  C801  1  0.45063000  0.73330000  0.13202000  1.0 -0.0999085522
C  C802  1  0.08615000  0.07880000  0.40112000  1.0 -0.0999085522
C  C803  1  0.75281000  0.41214000  0.73446000  1.0 -0.0999085522
C  C804  1  0.41948000  0.74547000  0.06779000  1.0 -0.0999085522
C  C805  1  0.06823000  0.05512000  0.36766000  1.0 -0.1513906725
C  C806  1  0.73489000  0.38846000  0.70100000  1.0 -0.1404057231
C  C807  1  0.40156000  0.72179000  0.03433000  1.0 -0.1513906725
C  C808  1  0.05604000  0.06747000  0.35186000  1.0 -0.1404057231
C  C809  1  0.72270000  0.40081000  0.68520000  1.0 -0.1404057231
C  C810  1  0.38937000  0.73414000  0.01853000  1.0 -0.1404057231
C  C811  1  0.06255000  0.10502000  0.36877000  1.0 -0.0789875173
C  C812  1  0.72921000  0.43836000  0.70211000  1.0 -0.0685329472
C  C813  1  0.39588000  0.77169000  0.03544000  1.0 -0.0789875173
C  C814  1  0.08049000  0.12870000  0.40221000  1.0 -0.0077869284
C  C815  1  0.74715000  0.46204000  0.73555000  1.0 -0.0077869284
C  C816  1  0.41382000  0.79537000  0.06888000  1.0 -0.0077869284
C  C817  1  0.09206000  0.11630000  0.41791000  1.0 -0.0417319851
C  C818  1  0.75873000  0.44963000  0.75124000  1.0 -0.0298992188
C  C819  1  0.42540000  0.78296000  0.08457000  1.0 -0.0417319851
C  C820  1  0.83498000  0.07731000  0.52349000  1.0 0.0193475459
C  C821  1  0.50165000  0.41064000  0.85682000  1.0 0.0193475459
C  C822  1  0.16832000  0.74397000  0.19015000  1.0 0.0193475459
C  C823  1  0.83977000  0.11275000  0.52735000  1.0 -0.0489922938
C  C824  1  0.50643000  0.44609000  0.86069000  1.0 -0.0417319851
C  C825  1  0.17310000  0.77942000  0.19402000  1.0 -0.0417319851
C  C826  1  0.81807000  0.11173000  0.50934000  1.0 -0.0901432088
C  C827  1  0.48473000  0.44507000  0.84268000  1.0 -0.0901432088
C  C828  1  0.15140000  0.77840000  0.17601000  1.0 -0.0901432088
C  C829  1  0.82251000  0.14665000  0.51369000  1.0 -0.1513906725
C  C830  1  0.48917000  0.47999000  0.84703000  1.0 -0.1556614873
C  C831  1  0.15584000  0.81332000  0.18036000  1.0 -0.1556614873
C  C832  1  0.84846000  0.18250000  0.53587000  1.0 -0.1404057231
C  C833  1  0.51512000  0.51584000  0.86921000  1.0 -0.1404057231
C  C834  1  0.18179000  0.84917000  0.20254000  1.0 -0.1404057231
C  C835  1  0.86989000  0.18348000  0.55471000  1.0 -0.1404057231
C  C836  1  0.53656000  0.51681000  0.88804000  1.0 -0.1404057231
C  C837  1  0.20322000  0.85015000  0.22138000  1.0 -0.1404057231
C  C838  1  0.86621000  0.14977000  0.54849000  1.0 -0.0901432088
C  C839  1  0.53288000  0.48310000  0.88182000  1.0 -0.0901432088
C  C840  1  0.19954000  0.81644000  0.21516000  1.0 -0.0901432088
C  C841  1  0.85291000  0.21855000  0.54087000  1.0 -0.0999085522
C  C842  1  0.51958000  0.55188000  0.87420000  1.0 -0.0999085522
C  C843  1  0.18624000  0.88522000  0.20754000  1.0 -0.0999085522
C  C844  1  0.82597000  0.21605000  0.52859000  1.0 -0.1513906725
C  C845  1  0.49264000  0.54938000  0.86192000  1.0 -0.1513906725
C  C846  1  0.15930000  0.88272000  0.19526000  1.0 -0.1513906725
C  C847  1  0.82894000  0.24997000  0.53436000  1.0 -0.0999085522
C  C848  1  0.49560000  0.58331000  0.86770000  1.0 -0.0999085522
C  C849  1  0.16227000  0.91664000  0.20103000  1.0 -0.0999085522
C  C850  1  0.85961000  0.28789000  0.55164000  1.0 -0.0077869284
C  C851  1  0.52627000  0.62123000  0.88498000  1.0 -0.0077869284
C  C852  1  0.19294000  0.95456000  0.21831000  1.0 -0.0077869284
C  C853  1  0.88654000  0.29038000  0.56389000  1.0 -0.0077869284
C  C854  1  0.55321000  0.62371000  0.89722000  1.0 -0.0077869284
C  C855  1  0.21987000  0.95705000  0.23056000  1.0 -0.0077869284
C  C856  1  0.88350000  0.25703000  0.55864000  1.0 -0.0077869284
C  C857  1  0.55017000  0.59036000  0.89197000  1.0 -0.0196323093
C  C858  1  0.21683000  0.92370000  0.22531000  1.0 -0.0196323093
C  C859  1  0.80985000  0.97816000  0.42434000  1.0 -0.0196323093
C  C860  1  0.47651000  0.31150000  0.75768000  1.0 -0.0196323093
C  C861  1  0.14318000  0.64483000  0.09101000  1.0 -0.0196323093
C  C862  1  0.80598000  0.97908000  0.39368000  1.0 -0.0417319851
C  C863  1  0.47265000  0.31241000  0.72701000  1.0 -0.0417319851
C  C864  1  0.13931000  0.64575000  0.06035000  1.0 -0.0417319851
C  C865  1  0.82399000  0.97539000  0.37300000  1.0 -0.0685329472
C  C866  1  0.49066000  0.30872000  0.70633000  1.0 -0.0685329472
C  C867  1  0.15732000  0.64206000  0.03967000  1.0 -0.0685329472
C  C868  1  0.81964000  0.97548000  0.34252000  1.0 -0.1227469757
C  C869  1  0.48631000  0.30881000  0.67585000  1.0 -0.1227469757
C  C870  1  0.15297000  0.64215000  0.00919000  1.0 -0.1227469757
C  C871  1  0.79746000  0.97925000  0.33262000  1.0 -0.0901432088
C  C872  1  0.46413000  0.31258000  0.66595000  1.0 -0.0901432088
C  C873  1  0.13079000  0.64592000  0.99929000  1.0 -0.0901432088
C  C874  1  0.77862000  0.98185000  0.35308000  1.0 -0.1227469757
C  C875  1  0.44529000  0.31518000  0.68641000  1.0 -0.1227469757
C  C876  1  0.11196000  0.64851000  0.01974000  1.0 -0.1227469757
C  C877  1  0.78484000  0.98439000  0.38311000  1.0 -0.0576367145
C  C878  1  0.45151000  0.31772000  0.71644000  1.0 -0.0576367145
C  C879  1  0.11818000  0.65105000  0.04977000  1.0 -0.0576367145
C  C880  1  0.79246000  0.97871000  0.30103000  1.0 -0.0298992188
C  C881  1  0.45913000  0.31204000  0.63436000  1.0 -0.0298992188
C  C882  1  0.12580000  0.64537000  0.96769000  1.0 -0.0298992188
C  C883  1  0.80474000  0.96405000  0.27659000  1.0 -0.0576367145
C  C884  1  0.47141000  0.29738000  0.60992000  1.0 -0.0685329472
C  C885  1  0.13808000  0.63071000  0.94325000  1.0 -0.0685329472
C  C886  1  0.79897000  0.96124000  0.24563000  1.0 -0.0576367145
C  C887  1  0.46564000  0.29457000  0.57896000  1.0 -0.0576367145
C  C888  1  0.13230000  0.62791000  0.91230000  1.0 -0.0576367145
C  C889  1  0.78169000  0.97463000  0.23838000  1.0 -0.0196323093
C  C890  1  0.44836000  0.30796000  0.57171000  1.0 -0.0196323093
C  C891  1  0.11502000  0.64130000  0.90505000  1.0 -0.0196323093
C  C892  1  0.76944000  0.98932000  0.26283000  1.0 0.0033337738
C  C893  1  0.43611000  0.32265000  0.59616000  1.0 0.0033337738
C  C894  1  0.10278000  0.65598000  0.92949000  1.0 0.0033337738
C  C895  1  0.77469000  0.99153000  0.29314000  1.0 0.0138234475
C  C896  1  0.44136000  0.32486000  0.62647000  1.0 0.0138234475
C  C897  1  0.10803000  0.65819000  0.95980000  1.0 0.0138234475
C  C898  1  0.90899000  0.05217000  0.49835000  1.0 0.0193475459
C  C899  1  0.57566000  0.38550000  0.83168000  1.0 0.0193475459
C  C900  1  0.24232000  0.71884000  0.16502000  1.0 0.0193475459
C  C901  1  0.93965000  0.07897000  0.49357000  1.0 -0.0489922938
C  C902  1  0.60632000  0.41230000  0.82690000  1.0 -0.0489922938
C  C903  1  0.27299000  0.74563000  0.16023000  1.0 -0.0489922938
C  C904  1  0.96033000  0.11766000  0.51527000  1.0 -0.0901432088
C  C905  1  0.62700000  0.45099000  0.84860000  1.0 -0.0901432088
C  C906  1  0.29367000  0.78432000  0.18193000  1.0 -0.0901432088
C  C907  1  0.99081000  0.14379000  0.51083000  1.0 -0.1404057231
C  C908  1  0.65748000  0.47712000  0.84416000  1.0 -0.1404057231
C  C909  1  0.32415000  0.81045000  0.17749000  1.0 -0.1404057231
C  C910  1  0.00071000  0.13151000  0.48488000  1.0 -0.1404057231
C  C911  1  0.66738000  0.46484000  0.81821000  1.0 -0.1404057231
C  C912  1  0.33405000  0.79817000  0.15154000  1.0 -0.1404057231
C  C913  1  0.98026000  0.09221000  0.46344000  1.0 -0.1227469757
C  C914  1  0.64692000  0.42555000  0.79678000  1.0 -0.1227469757
C  C915  1  0.31359000  0.75888000  0.13011000  1.0 -0.1227469757
C  C916  1  0.95023000  0.06840000  0.46712000  1.0 -0.0999085522
C  C917  1  0.61689000  0.40174000  0.80046000  1.0 -0.0999085522
C  C918  1  0.28356000  0.73507000  0.13379000  1.0 -0.0999085522
C  C919  1  0.03231000  0.15810000  0.48042000  1.0 -0.0999085522
C  C920  1  0.69897000  0.49144000  0.81376000  1.0 -0.0999085522
C  C921  1  0.36564000  0.82477000  0.14709000  1.0 -0.0999085522
C  C922  1  0.05675000  0.19482000  0.50736000  1.0 -0.1513906725
C  C923  1  0.72341000  0.52816000  0.84070000  1.0 -0.1404057231
C  C924  1  0.39008000  0.86149000  0.17403000  1.0 -0.1513906725
C  C925  1  0.08770000  0.22001000  0.50440000  1.0 -0.1404057231
C  C926  1  0.75437000  0.55334000  0.83773000  1.0 -0.1404057231
C  C927  1  0.42104000  0.88667000  0.17106000  1.0 -0.1404057231
C  C928  1  0.09495000  0.20998000  0.47373000  1.0 -0.0789875173
C  C929  1  0.76162000  0.54331000  0.80706000  1.0 -0.0685329472
C  C930  1  0.42829000  0.87664000  0.14039000  1.0 -0.0789875173
C  C931  1  0.07051000  0.17328000  0.44679000  1.0 -0.0077869284
C  C932  1  0.73717000  0.50662000  0.78013000  1.0 -0.0077869284
C  C933  1  0.40384000  0.83995000  0.11346000  1.0 -0.0077869284
C  C934  1  0.04020000  0.14822000  0.44983000  1.0 -0.0417319851
C  C935  1  0.70686000  0.48156000  0.78317000  1.0 -0.0298992188
C  C936  1  0.37353000  0.81489000  0.11650000  1.0 -0.0417319851
C  C937  1  0.08333000  0.66666667  0.41667000  1.0 0.0193475459
C  C938  1  0.75000000  0.00000000  0.75000000  1.0 0.0193475459
C  C939  1  0.41667000  0.33333333  0.08333000  1.0 0.0193475459
C  C940  1  0.91667000  0.83333000  0.58333000  1.0 0.0193475459
C  C941  1  0.58333000  0.16667000  0.91667000  1.0 0.0193475459
C  C942  1  0.25000000  0.50000000  0.25000000  1.0 0.0193475459
C  C943  1  0.58333000  0.66666667  0.41667000  1.0 0.0193475459
C  C944  1  0.25000000  0.00000000  0.75000000  1.0 0.0193475459
C  C945  1  0.91667000  0.33333333  0.08333000  1.0 0.0193475459
C  C946  1  0.25000000  0.00000000  0.25000000  1.0 0.0193475459
C  C947  1  0.91667000  0.33333333  0.58333000  1.0 0.0193475459
C  C948  1  0.58333000  0.66666667  0.91667000  1.0 0.0193475459
C  C949  1  0.08333000  0.16667000  0.41667000  1.0 0.0193475459
C  C950  1  0.75000000  0.50000000  0.75000000  1.0 0.0193475459
C  C951  1  0.41667000  0.83333000  0.08333000  1.0 0.0193475459
C  C952  1  0.75000000  0.00000000  0.25000000  1.0 0.0193475459
C  C953  1  0.41667000  0.33333333  0.58333000  1.0 0.0193475459
C  C954  1  0.08333000  0.66666667  0.91667000  1.0 0.0193475459
O  O1  1  0.02359000  0.64990000  0.60928000  1.0 0.0791131344
O  O2  1  0.69026000  0.98323000  0.94261000  1.0 0.0791131344
O  O3  1  0.35692000  0.31657000  0.27595000  1.0 0.0791131344
O  O4  1  0.97506000  0.63742000  0.59730000  1.0 0.129658769
O  O5  1  0.64173000  0.97075000  0.93063000  1.0 0.129658769
O  O6  1  0.30839000  0.30409000  0.26397000  1.0 0.129658769
O  O7  1  0.95964000  0.68370000  0.64308000  1.0 0.1698624287
O  O8  1  0.62631000  0.01703000  0.97641000  1.0 0.1698624287
O  O9  1  0.29298000  0.35036000  0.30974000  1.0 0.1698624287
O  O10  1  0.99569000  0.73173000  0.69161000  1.0 0.1881730994
O  O11  1  0.66236000  0.06506000  0.02494000  1.0 0.1881730994
O  O12  1  0.32903000  0.39839000  0.35827000  1.0 0.1881730994
O  O13  1  0.05739000  0.74764000  0.70702000  1.0 0.1698624287
O  O14  1  0.72405000  0.08098000  0.04036000  1.0 0.1698624287
O  O15  1  0.39072000  0.41431000  0.37369000  1.0 0.1698624287
O  O16  1  0.06937000  0.71109000  0.67097000  1.0 0.1789276467
O  O17  1  0.73603000  0.04443000  0.00431000  1.0 0.1789276467
O  O18  1  0.40270000  0.37776000  0.33764000  1.0 0.1789276467
O  O19  1  0.67016000  0.73759000  0.69697000  1.0 0.0791131344
O  O20  1  0.33682000  0.07093000  0.03031000  1.0 0.0791131344
O  O21  1  0.00349000  0.40426000  0.36364000  1.0 0.0791131344
O  O22  1  0.71835000  0.74941000  0.70929000  1.0 0.129658769
O  O23  1  0.38502000  0.08274000  0.04262000  1.0 0.129658769
O  O24  1  0.05169000  0.41607000  0.37595000  1.0 0.129658769
O  O25  1  0.73410000  0.70380000  0.66318000  1.0 0.1698624287
O  O26  1  0.40077000  0.03713000  0.99651000  1.0 0.1698624287
O  O27  1  0.06744000  0.37046000  0.32984000  1.0 0.1698624287
O  O28  1  0.69772000  0.65510000  0.61498000  1.0 0.1881730994
O  O29  1  0.36439000  0.98843000  0.94831000  1.0 0.1881730994
O  O30  1  0.03105000  0.32177000  0.28165000  1.0 0.1881730994
O  O31  1  0.63636000  0.63985000  0.59923000  1.0 0.1698624287
O  O32  1  0.30303000  0.97318000  0.93256000  1.0 0.1698624287
O  O33  1  0.96969000  0.30652000  0.26590000  1.0 0.1698624287
O  O34  1  0.62405000  0.67573000  0.63561000  1.0 0.1789276467
O  O35  1  0.29071000  0.00907000  0.96895000  1.0 0.1789276467
O  O36  1  0.95738000  0.34240000  0.30228000  1.0 0.1789276467
O  O37  1  0.82984000  0.02682000  0.56744000  1.0 0.1698624287
O  O38  1  0.49651000  0.36015000  0.90077000  1.0 0.1698624287
O  O39  1  0.16318000  0.69348000  0.23410000  1.0 0.1698624287
O  O40  1  0.78165000  0.99093000  0.53105000  1.0 0.1789276467
O  O41  1  0.44831000  0.32427000  0.86439000  1.0 0.1789276467
O  O42  1  0.11498000  0.65760000  0.19772000  1.0 0.1789276467
O  O43  1  0.76590000  0.92907000  0.46969000  1.0 0.0791131344
O  O44  1  0.43256000  0.26241000  0.80303000  1.0 0.0791131344
O  O45  1  0.09923000  0.59574000  0.13636000  1.0 0.0791131344
O  O46  1  0.80228000  0.91726000  0.45738000  1.0 0.129658769
O  O47  1  0.46895000  0.25059000  0.79071000  1.0 0.129658769
O  O48  1  0.13561000  0.58393000  0.12405000  1.0 0.129658769
O  O49  1  0.86364000  0.96287000  0.50349000  1.0 0.1698624287
O  O50  1  0.53031000  0.29620000  0.83682000  1.0 0.1698624287
O  O51  1  0.19697000  0.62954000  0.17016000  1.0 0.1698624287
O  O52  1  0.87595000  0.01157000  0.55169000  1.0 0.1881730994
O  O53  1  0.54262000  0.34490000  0.88502000  1.0 0.1881730994
O  O54  1  0.20929000  0.67823000  0.21835000  1.0 0.1881730994
O  O55  1  0.14308000  0.91902000  0.45964000  1.0 0.1698624287
O  O56  1  0.80974000  0.25236000  0.79298000  1.0 0.1698624287
O  O57  1  0.47641000  0.58569000  0.12631000  1.0 0.1698624287
O  O58  1  0.19161000  0.95557000  0.49569000  1.0 0.1789276467
O  O59  1  0.85827000  0.28891000  0.82903000  1.0 0.1789276467
O  O60  1  0.52494000  0.62224000  0.16236000  1.0 0.1789276467
O  O61  1  0.20702000  0.01677000  0.55739000  1.0 0.0791131344
O  O62  1  0.87369000  0.35010000  0.89072000  1.0 0.0791131344
O  O63  1  0.54036000  0.68343000  0.22405000  1.0 0.0791131344
O  O64  1  0.17097000  0.02925000  0.56937000  1.0 0.129658769
O  O65  1  0.83764000  0.36258000  0.90270000  1.0 0.129658769
O  O66  1  0.50431000  0.69591000  0.23603000  1.0 0.129658769
O  O67  1  0.10928000  0.98297000  0.52359000  1.0 0.1698624287
O  O68  1  0.77595000  0.31630000  0.85692000  1.0 0.1698624287
O  O69  1  0.44261000  0.64964000  0.19026000  1.0 0.1698624287
O  O70  1  0.09730000  0.93494000  0.47506000  1.0 0.1881730994
O  O71  1  0.76397000  0.26827000  0.80839000  1.0 0.1881730994
O  O72  1  0.43063000  0.60161000  0.14173000  1.0 0.1881730994
O  O73  1  0.97641000  0.35010000  0.39072000  1.0 0.0791131344
O  O74  1  0.64308000  0.68343000  0.72405000  1.0 0.0791131344
O  O75  1  0.30974000  0.01677000  0.05739000  1.0 0.0880457487
O  O76  1  0.02494000  0.36258000  0.40270000  1.0 0.129658769
O  O77  1  0.69161000  0.69591000  0.73603000  1.0 0.129658769
O  O78  1  0.35827000  0.02925000  0.06937000  1.0 0.129658769
O  O79  1  0.04036000  0.31630000  0.35692000  1.0 0.1698624287
O  O80  1  0.70702000  0.64964000  0.69026000  1.0 0.1698624287
O  O81  1  0.37369000  0.98297000  0.02359000  1.0 0.1698624287
O  O82  1  0.00431000  0.26827000  0.30839000  1.0 0.1881730994
O  O83  1  0.67097000  0.60161000  0.64173000  1.0 0.1881730994
O  O84  1  0.33764000  0.93494000  0.97506000  1.0 0.1881730994
O  O85  1  0.94261000  0.25236000  0.29298000  1.0 0.1698624287
O  O86  1  0.60928000  0.58569000  0.62631000  1.0 0.1698624287
O  O87  1  0.27595000  0.91902000  0.95964000  1.0 0.1698624287
O  O88  1  0.93063000  0.28891000  0.32903000  1.0 0.1789276467
O  O89  1  0.59730000  0.62224000  0.66236000  1.0 0.1789276467
O  O90  1  0.26397000  0.95557000  0.99569000  1.0 0.1789276467
O  O91  1  0.32984000  0.26241000  0.30303000  1.0 0.0791131344
O  O92  1  0.99651000  0.59574000  0.63636000  1.0 0.0791131344
O  O93  1  0.66318000  0.92907000  0.96969000  1.0 0.0791131344
O  O94  1  0.28165000  0.25059000  0.29071000  1.0 0.129658769
O  O95  1  0.94831000  0.58393000  0.62405000  1.0 0.129658769
O  O96  1  0.61498000  0.91726000  0.95738000  1.0 0.129658769
O  O97  1  0.26590000  0.29620000  0.33682000  1.0 0.1698624287
O  O98  1  0.93256000  0.62954000  0.67016000  1.0 0.1698624287
O  O99  1  0.59923000  0.96287000  0.00349000  1.0 0.1698624287
O  O100  1  0.30228000  0.34490000  0.38502000  1.0 0.1881730994
O  O101  1  0.96895000  0.67823000  0.71835000  1.0 0.1881730994
O  O102  1  0.63561000  0.01157000  0.05169000  1.0 0.1881730994
O  O103  1  0.36364000  0.36015000  0.40077000  1.0 0.1698624287
O  O104  1  0.03031000  0.69348000  0.73410000  1.0 0.1698624287
O  O105  1  0.69697000  0.02682000  0.06744000  1.0 0.1698624287
O  O106  1  0.37595000  0.32427000  0.36439000  1.0 0.1789276467
O  O107  1  0.04262000  0.65760000  0.69772000  1.0 0.1789276467
O  O108  1  0.70929000  0.99093000  0.03105000  1.0 0.1789276467
O  O109  1  0.17016000  0.97318000  0.43256000  1.0 0.1698624287
O  O110  1  0.83682000  0.30652000  0.76590000  1.0 0.1698624287
O  O111  1  0.50349000  0.63985000  0.09923000  1.0 0.1698624287
O  O112  1  0.21835000  0.00907000  0.46895000  1.0 0.1789276467
O  O113  1  0.88502000  0.34240000  0.80228000  1.0 0.1789276467
O  O114  1  0.55169000  0.67573000  0.13561000  1.0 0.1789276467
O  O115  1  0.23410000  0.07093000  0.53031000  1.0 0.0880457487
O  O116  1  0.90077000  0.40426000  0.86364000  1.0 0.0791131344
O  O117  1  0.56744000  0.73759000  0.19697000  1.0 0.0791131344
O  O118  1  0.19772000  0.08274000  0.54262000  1.0 0.129658769
O  O119  1  0.86439000  0.41607000  0.87595000  1.0 0.129658769
O  O120  1  0.53105000  0.74941000  0.20929000  1.0 0.129658769
O  O121  1  0.13636000  0.03713000  0.49651000  1.0 0.1698624287
O  O122  1  0.80303000  0.37046000  0.82984000  1.0 0.1698624287
O  O123  1  0.46969000  0.70380000  0.16318000  1.0 0.1698624287
O  O124  1  0.12405000  0.98843000  0.44831000  1.0 0.1881730994
O  O125  1  0.79071000  0.32177000  0.78165000  1.0 0.1881730994
O  O126  1  0.45738000  0.65510000  0.11498000  1.0 0.1881730994
O  O127  1  0.85692000  0.08098000  0.54036000  1.0 0.1698624287
O  O128  1  0.52359000  0.41431000  0.87369000  1.0 0.1698624287
O  O129  1  0.19026000  0.74764000  0.20702000  1.0 0.1698624287
O  O130  1  0.80839000  0.04443000  0.50431000  1.0 0.1789276467
O  O131  1  0.47506000  0.37776000  0.83764000  1.0 0.1789276467
O  O132  1  0.14173000  0.71109000  0.17097000  1.0 0.1789276467
O  O133  1  0.79298000  0.98323000  0.44261000  1.0 0.0791131344
O  O134  1  0.45964000  0.31657000  0.77595000  1.0 0.0791131344
O  O135  1  0.12631000  0.64990000  0.10928000  1.0 0.0791131344
O  O136  1  0.82903000  0.97075000  0.43063000  1.0 0.129658769
O  O137  1  0.49569000  0.30409000  0.76397000  1.0 0.129658769
O  O138  1  0.16236000  0.63742000  0.09730000  1.0 0.129658769
O  O139  1  0.89072000  0.01703000  0.47641000  1.0 0.1698624287
O  O140  1  0.55739000  0.35036000  0.80974000  1.0 0.1698624287
O  O141  1  0.22405000  0.68370000  0.14308000  1.0 0.1698624287
O  O142  1  0.90270000  0.06506000  0.52494000  1.0 0.1881730994
O  O143  1  0.56937000  0.39839000  0.85827000  1.0 0.1881730994
O  O144  1  0.23603000  0.73173000  0.19161000  1.0 0.1881730994
O  O145  1  0.24460000  0.26993000  0.26993000  1.0 -0.0901432088
O  O146  1  0.91127000  0.60326000  0.60326000  1.0 -0.0789875173
O  O147  1  0.57794000  0.93659000  0.93659000  1.0 -0.0901432088
O  O148  1  0.35866000  0.42206000  0.42206000  1.0 -0.0901432088
O  O149  1  0.02532000  0.75540000  0.75540000  1.0 -0.0901432088
O  O150  1  0.69199000  0.08873000  0.08873000  1.0 -0.0901432088
O  O151  1  0.39674000  0.30801000  0.30801000  1.0 -0.0901432088
O  O152  1  0.06341000  0.64134000  0.64134000  1.0 -0.0901432088
O  O153  1  0.73007000  0.97468000  0.97468000  1.0 -0.0901432088
O  O154  1  0.08873000  0.39674000  0.39674000  1.0 -0.0789875173
O  O155  1  0.75540000  0.73007000  0.73007000  1.0 -0.0901432088
O  O156  1  0.42206000  0.06341000  0.06341000  1.0 -0.0901432088
O  O157  1  0.97468000  0.24460000  0.24460000  1.0 -0.0901432088
O  O158  1  0.64134000  0.57794000  0.57794000  1.0 -0.0901432088
O  O159  1  0.30801000  0.91127000  0.91127000  1.0 -0.0901432088
O  O160  1  0.93659000  0.35866000  0.35866000  1.0 -0.0901432088
O  O161  1  0.60326000  0.69199000  0.69199000  1.0 -0.0901432088
O  O162  1  0.26993000  0.02532000  0.02532000  1.0 -0.0901432088
O  O163  1  0.74460000  0.97468000  0.47468000  1.0 -0.0901432088
O  O164  1  0.41127000  0.30801000  0.80801000  1.0 -0.0901432088
O  O165  1  0.07794000  0.64134000  0.14134000  1.0 -0.0901432088
O  O166  1  0.85866000  0.93659000  0.43659000  1.0 -0.0901432088
O  O167  1  0.52532000  0.26993000  0.76993000  1.0 -0.0789875173
O  O168  1  0.19199000  0.60326000  0.10326000  1.0 -0.0789875173
O  O169  1  0.89674000  0.08873000  0.58873000  1.0 -0.0901432088
O  O170  1  0.56341000  0.42206000  0.92206000  1.0 -0.0901432088
O  O171  1  0.23007000  0.75540000  0.25540000  1.0 -0.0901432088
O  O172  1  0.25540000  0.02532000  0.52532000  1.0 -0.0901432088
O  O173  1  0.92206000  0.35866000  0.85866000  1.0 -0.0901432088
O  O174  1  0.58873000  0.69199000  0.19199000  1.0 -0.0901432088
O  O175  1  0.14134000  0.06341000  0.56341000  1.0 -0.0789875173
O  O176  1  0.80801000  0.39674000  0.89674000  1.0 -0.0901432088
O  O177  1  0.47468000  0.73007000  0.23007000  1.0 -0.0901432088
O  O178  1  0.10326000  0.91127000  0.41127000  1.0 -0.0901432088
O  O179  1  0.76993000  0.24460000  0.74460000  1.0 -0.0901432088
O  O180  1  0.43659000  0.57794000  0.07794000  1.0 -0.0901432088
O  O181  1  0.33333333  0.33333333  0.33333333  1.0 0.1881730994
O  O182  1  0.00000000  0.66666667  0.66666667  1.0 0.1881730994
O  O183  1  0.66666667  0.00000000  0.00000000  1.0 0.1881730994
O  O184  1  0.00000000  0.33333333  0.33333333  1.0 0.1881730994
O  O185  1  0.66666667  0.66666667  0.66666667  1.0 0.1881730994
O  O186  1  0.33333333  0.00000000  0.00000000  1.0 0.1881730994
O  O187  1  0.83333000  0.00000000  0.50000000  1.0 0.1881730994
O  O188  1  0.50000000  0.33333333  0.83333000  1.0 0.1881730994
O  O189  1  0.16667000  0.66666667  0.16667000  1.0 0.1881730994
O  O190  1  0.16667000  0.00000000  0.50000000  1.0 0.1881730994
O  O191  1  0.83333000  0.33333333  0.83333000  1.0 0.1881730994
O  O192  1  0.50000000  0.66666667  0.16667000  1.0 0.1881730994
