# DDEC6 charges by PACMAN v1.1 (https://github.com/mtap-research/PACMAN-charge/)
data_QOTLOD01_FSR_pacman
_symmetry_space_group_name_H-M   'P 1'
_cell_length_a   14.14210000
_cell_length_b   14.14210000
_cell_length_c   17.32050000
_cell_angle_alpha   90.00000000
_cell_angle_beta   90.00000000
_cell_angle_gamma   120.00000000
_symmetry_Int_Tables_number   1
_chemical_formula_structural   Fe6H84C159O32
_chemical_formula_sum   'Fe36 H504 C954 O192'
_cell_volume   2999.98348741
_cell_formula_units_Z   6
loop_
 _symmetry_equiv_pos_site_id
 _symmetry_equiv_pos_as_xyz
  1  'x, y, z'
loop_
 _atom_site_type_symbol
 _atom_site_label
 _atom_site_symmetry_multiplicity
 _atom_site_fract_x
 _atom_site_fract_y
 _atom_site_fract_z
 _atom_site_occupancy
 _atom_site_charge
Fe  Fe1  1  0.95718000  0.32129000  0.32129000  1.0 0.1281290475
Fe  Fe2  1  0.62385000  0.65462000  0.65462000  1.0 0.1281290475
Fe  Fe3  1  0.29051000  0.98796000  0.98796000  1.0 0.1281290475
Fe  Fe4  1  0.03078000  0.37615000  0.37615000  1.0 0.1219284321
Fe  Fe5  1  0.69744000  0.70949000  0.70949000  1.0 0.1219284321
Fe  Fe6  1  0.36411000  0.04282000  0.04282000  1.0 0.1219284321
Fe  Fe7  1  0.01204000  0.30256000  0.30256000  1.0 0.1281290475
Fe  Fe8  1  0.67871000  0.63589000  0.63589000  1.0 0.1281290475
Fe  Fe9  1  0.34538000  0.96922000  0.96922000  1.0 0.1281290475
Fe  Fe10  1  0.37615000  0.34538000  0.34538000  1.0 0.1219284321
Fe  Fe11  1  0.04282000  0.67871000  0.67871000  1.0 0.1219284321
Fe  Fe12  1  0.70949000  0.01204000  0.01204000  1.0 0.1219284321
Fe  Fe13  1  0.30256000  0.29051000  0.29051000  1.0 0.1219284321
Fe  Fe14  1  0.96922000  0.62385000  0.62385000  1.0 0.1219284321
Fe  Fe15  1  0.63589000  0.95718000  0.95718000  1.0 0.1219284321
Fe  Fe16  1  0.32129000  0.36411000  0.36411000  1.0 0.1281290475
Fe  Fe17  1  0.98796000  0.69744000  0.69744000  1.0 0.1281290475
Fe  Fe18  1  0.65462000  0.03078000  0.03078000  1.0 0.1281290475
Fe  Fe19  1  0.12385000  0.96922000  0.46922000  1.0 0.1281290475
Fe  Fe20  1  0.79051000  0.30256000  0.80256000  1.0 0.1281290475
Fe  Fe21  1  0.45718000  0.63589000  0.13589000  1.0 0.1281290475
Fe  Fe22  1  0.19744000  0.98796000  0.48796000  1.0 0.1281290475
Fe  Fe23  1  0.86411000  0.32129000  0.82129000  1.0 0.1281290475
Fe  Fe24  1  0.53078000  0.65462000  0.15462000  1.0 0.1281290475
Fe  Fe25  1  0.17871000  0.04282000  0.54282000  1.0 0.1219284321
Fe  Fe26  1  0.84538000  0.37615000  0.87615000  1.0 0.1219284321
Fe  Fe27  1  0.51204000  0.70949000  0.20949000  1.0 0.1219284321
Fe  Fe28  1  0.87615000  0.03078000  0.53078000  1.0 0.1281290475
Fe  Fe29  1  0.54282000  0.36411000  0.86411000  1.0 0.1281290475
Fe  Fe30  1  0.20949000  0.69744000  0.19744000  1.0 0.1281290475
Fe  Fe31  1  0.80256000  0.01204000  0.51204000  1.0 0.1219284321
Fe  Fe32  1  0.46922000  0.34538000  0.84538000  1.0 0.1219284321
Fe  Fe33  1  0.13589000  0.67871000  0.17871000  1.0 0.1219284321
Fe  Fe34  1  0.82129000  0.95718000  0.45718000  1.0 0.1219284321
Fe  Fe35  1  0.48796000  0.29051000  0.79051000  1.0 0.1219284321
Fe  Fe36  1  0.15462000  0.62385000  0.12385000  1.0 0.1219284321
H  H1  1  0.67300000  0.63820000  0.54500000  1.0 0.1044933593
H  H2  1  0.33967000  0.97153000  0.87833000  1.0 0.1044933593
H  H3  1  0.00633000  0.30487000  0.21167000  1.0 0.1044933593
H  H4  1  0.66653000  0.63837000  0.49537000  1.0 0.0704122146
H  H5  1  0.33320000  0.97170000  0.82870000  1.0 0.0704122146
H  H6  1  0.99987000  0.30503000  0.16203000  1.0 0.0704122146
H  H7  1  0.59557000  0.65053000  0.51283000  1.0 0.0704122146
H  H8  1  0.26223000  0.98387000  0.84617000  1.0 0.0704122146
H  H9  1  0.92890000  0.31720000  0.17950000  1.0 0.0704122146
H  H10  1  0.60670000  0.65910000  0.56420000  1.0 0.1067518734
H  H11  1  0.27337000  0.99243000  0.89753000  1.0 0.1067518734
H  H12  1  0.94003000  0.32577000  0.23087000  1.0 0.1067518734
H  H13  1  0.65170000  0.62400000  0.44880000  1.0 0.0880979903
H  H14  1  0.31837000  0.95733000  0.78213000  1.0 0.0880979903
H  H15  1  0.98503000  0.29067000  0.11547000  1.0 0.0880979903
H  H16  1  0.64060000  0.61660000  0.39680000  1.0 0.0880979903
H  H17  1  0.30727000  0.94993000  0.73013000  1.0 0.0880979903
H  H18  1  0.97393000  0.28327000  0.06347000  1.0 0.0880979903
H  H19  1  0.59943000  0.66927000  0.47627000  1.0 0.0704122146
H  H20  1  0.26610000  0.00260000  0.80960000  1.0 0.0704122146
H  H21  1  0.93277000  0.33593000  0.14293000  1.0 0.0704122146
H  H22  1  0.63187000  0.75353000  0.66033000  1.0 0.1281290475
H  H23  1  0.29853000  0.08687000  0.99367000  1.0 0.1281290475
H  H24  1  0.96520000  0.42020000  0.32700000  1.0 0.1281290475
H  H25  1  0.63850000  0.80980000  0.66680000  1.0 0.0704122146
H  H26  1  0.30517000  0.14313000  0.00013000  1.0 0.0704122146
H  H27  1  0.97183000  0.47647000  0.33347000  1.0 0.0704122146
H  H28  1  0.72163000  0.87547000  0.73777000  1.0 0.0793826769
H  H29  1  0.38830000  0.20880000  0.07110000  1.0 0.0793826769
H  H30  1  0.05497000  0.54213000  0.40443000  1.0 0.0793826769
H  H31  1  0.71907000  0.82153000  0.72663000  1.0 0.0880979903
H  H32  1  0.38573000  0.15487000  0.05997000  1.0 0.0880979903
H  H33  1  0.05240000  0.48820000  0.39330000  1.0 0.0880979903
H  H34  1  0.63897000  0.85683000  0.68163000  1.0 0.0636538403
H  H35  1  0.30563000  0.19017000  0.01497000  1.0 0.0636538403
H  H36  1  0.97230000  0.52350000  0.34830000  1.0 0.0636538403
H  H37  1  0.64267000  0.91253000  0.69273000  1.0 0.0793826769
H  H38  1  0.30933000  0.24587000  0.02607000  1.0 0.0793826769
H  H39  1  0.97600000  0.57920000  0.35940000  1.0 0.0793826769
H  H40  1  0.73650000  0.92690000  0.73390000  1.0 0.0704122146
H  H41  1  0.40317000  0.26023000  0.06723000  1.0 0.0704122146
H  H42  1  0.06983000  0.59357000  0.40057000  1.0 0.0704122146
H  H43  1  0.78833000  0.79467000  0.70147000  1.0 0.1044933593
H  H44  1  0.45500000  0.12800000  0.03480000  1.0 0.1044933593
H  H45  1  0.12167000  0.46133000  0.36813000  1.0 0.1044933593
H  H46  1  0.83797000  0.83783000  0.69483000  1.0 0.0704122146
H  H47  1  0.50463000  0.17117000  0.02817000  1.0 0.0704122146
H  H48  1  0.17130000  0.50450000  0.36150000  1.0 0.0704122146
H  H49  1  0.82050000  0.74940000  0.61170000  1.0 0.0704122146
H  H50  1  0.48717000  0.08273000  0.94503000  1.0 0.0704122146
H  H51  1  0.15383000  0.41607000  0.27837000  1.0 0.0704122146
H  H52  1  0.76913000  0.70917000  0.61427000  1.0 0.1219284321
H  H53  1  0.43580000  0.04250000  0.94760000  1.0 0.1281290475
H  H54  1  0.10247000  0.37583000  0.28093000  1.0 0.1219284321
H  H55  1  0.88453000  0.86957000  0.69437000  1.0 0.0704122146
H  H56  1  0.55120000  0.20290000  0.02770000  1.0 0.0704122146
H  H57  1  0.21787000  0.53623000  0.36103000  1.0 0.0704122146
H  H58  1  0.93653000  0.91047000  0.69067000  1.0 0.0793826769
H  H59  1  0.60320000  0.24380000  0.02400000  1.0 0.0793826769
H  H60  1  0.26987000  0.57713000  0.35733000  1.0 0.0793826769
H  H61  1  0.85707000  0.78983000  0.59683000  1.0 0.0704122146
H  H62  1  0.52373000  0.12317000  0.93017000  1.0 0.0704122146
H  H63  1  0.19040000  0.45650000  0.26350000  1.0 0.0704122146
H  H64  1  0.05580000  0.81940000  0.72620000  1.0 0.1044933593
H  H65  1  0.72247000  0.15273000  0.05953000  1.0 0.1044933593
H  H66  1  0.38913000  0.48607000  0.39287000  1.0 0.1044933593
H  H67  1  0.09547000  0.88563000  0.74263000  1.0 0.0704122146
H  H68  1  0.76213000  0.21897000  0.07597000  1.0 0.0704122146
H  H69  1  0.42880000  0.55230000  0.40930000  1.0 0.0704122146
H  H70  1  0.16290000  0.86640000  0.72870000  1.0 0.0704122146
H  H71  1  0.82957000  0.19973000  0.06203000  1.0 0.0704122146
H  H72  1  0.49623000  0.53307000  0.39537000  1.0 0.0704122146
H  H73  1  0.12323000  0.80077000  0.70587000  1.0 0.1067518734
H  H74  1  0.78990000  0.13410000  0.03920000  1.0 0.1067518734
H  H75  1  0.45657000  0.46743000  0.37253000  1.0 0.1067518734
H  H76  1  0.13177000  0.94293000  0.76773000  1.0 0.0880979903
H  H77  1  0.79843000  0.27627000  0.10107000  1.0 0.0880979903
H  H78  1  0.46510000  0.60960000  0.43440000  1.0 0.0880979903
H  H79  1  0.17260000  0.00980000  0.79000000  1.0 0.0880979903
H  H80  1  0.83927000  0.34313000  0.12333000  1.0 0.0880979903
H  H81  1  0.50593000  0.67647000  0.45667000  1.0 0.0880979903
H  H82  1  0.19590000  0.92140000  0.72840000  1.0 0.0704122146
H  H83  1  0.86257000  0.25473000  0.06173000  1.0 0.0704122146
H  H84  1  0.52923000  0.58807000  0.39507000  1.0 0.0704122146
H  H85  1  0.09693000  0.70407000  0.61087000  1.0 0.1281290475
H  H86  1  0.76360000  0.03740000  0.94420000  1.0 0.1281290475
H  H87  1  0.43027000  0.37073000  0.27753000  1.0 0.1281290475
H  H88  1  0.12350000  0.71420000  0.57120000  1.0 0.0704122146
H  H89  1  0.79017000  0.04753000  0.90453000  1.0 0.0704122146
H  H90  1  0.45683000  0.38087000  0.23787000  1.0 0.0704122146
H  H91  1  0.03683000  0.64147000  0.50377000  1.0 0.0793826769
H  H92  1  0.70350000  0.97480000  0.83710000  1.0 0.0793826769
H  H93  1  0.37017000  0.30813000  0.17043000  1.0 0.0793826769
H  H94  1  0.01087000  0.63833000  0.54343000  1.0 0.0880979903
H  H95  1  0.67753000  0.97167000  0.87677000  1.0 0.0880979903
H  H96  1  0.34420000  0.30500000  0.21010000  1.0 0.0880979903
H  H97  1  0.14450000  0.71010000  0.53490000  1.0 0.0636538403
H  H98  1  0.81117000  0.04343000  0.86823000  1.0 0.0636538403
H  H99  1  0.47783000  0.37677000  0.20157000  1.0 0.0636538403
H  H100  1  0.17053000  0.71387000  0.49407000  1.0 0.0793826769
H  H101  1  0.83720000  0.04720000  0.82740000  1.0 0.0793826769
H  H102  1  0.50387000  0.38053000  0.16073000  1.0 0.0793826769
H  H103  1  0.05883000  0.66377000  0.47077000  1.0 0.0704122146
H  H104  1  0.72550000  0.99710000  0.80410000  1.0 0.0704122146
H  H105  1  0.39217000  0.33043000  0.13743000  1.0 0.0704122146
H  H106  1  0.94047000  0.66293000  0.56973000  1.0 0.1044933593
H  H107  1  0.60713000  0.99627000  0.90307000  1.0 0.1044933593
H  H108  1  0.27380000  0.32960000  0.23640000  1.0 0.1044933593
H  H109  1  0.92403000  0.68617000  0.54317000  1.0 0.0704122146
H  H110  1  0.59070000  0.01950000  0.87650000  1.0 0.0704122146
H  H111  1  0.25737000  0.35283000  0.20983000  1.0 0.0704122146
H  H112  1  0.93797000  0.76753000  0.62983000  1.0 0.0704122146
H  H113  1  0.60463000  0.10087000  0.96317000  1.0 0.0704122146
H  H114  1  0.27130000  0.43420000  0.29650000  1.0 0.0704122146
H  H115  1  0.96080000  0.75070000  0.65580000  1.0 0.1219284321
H  H116  1  0.62747000  0.08403000  0.98913000  1.0 0.1281290475
H  H117  1  0.29413000  0.41737000  0.32247000  1.0 0.1219284321
H  H118  1  0.89893000  0.69737000  0.52217000  1.0 0.0704122146
H  H119  1  0.56560000  0.03070000  0.85550000  1.0 0.0704122146
H  H120  1  0.23227000  0.36403000  0.18883000  1.0 0.0704122146
H  H121  1  0.87667000  0.71593000  0.49613000  1.0 0.0793826769
H  H122  1  0.54333000  0.04927000  0.82947000  1.0 0.0793826769
H  H123  1  0.21000000  0.38260000  0.16280000  1.0 0.0793826769
H  H124  1  0.93827000  0.80083000  0.60783000  1.0 0.0704122146
H  H125  1  0.60493000  0.13417000  0.94117000  1.0 0.0704122146
H  H126  1  0.27160000  0.46750000  0.27450000  1.0 0.0704122146
H  H127  1  0.11087000  0.00373000  0.59693000  1.0 0.1044933593
H  H128  1  0.77753000  0.33707000  0.93027000  1.0 0.1044933593
H  H129  1  0.44420000  0.67040000  0.26360000  1.0 0.1044933593
H  H130  1  0.07120000  0.98050000  0.62350000  1.0 0.0704122146
H  H131  1  0.73787000  0.31383000  0.95683000  1.0 0.0704122146
H  H132  1  0.40453000  0.64717000  0.29017000  1.0 0.0704122146
H  H133  1  0.00377000  0.89913000  0.53683000  1.0 0.0704122146
H  H134  1  0.67043000  0.23247000  0.87017000  1.0 0.0704122146
H  H135  1  0.33710000  0.56580000  0.20350000  1.0 0.0704122146
H  H136  1  0.04343000  0.91597000  0.51087000  1.0 0.1219284321
H  H137  1  0.71010000  0.24930000  0.84420000  1.0 0.1281290475
H  H138  1  0.37677000  0.58263000  0.17753000  1.0 0.1219284321
H  H139  1  0.03490000  0.96930000  0.64450000  1.0 0.0704122146
H  H140  1  0.70157000  0.30263000  0.97783000  1.0 0.0704122146
H  H141  1  0.36823000  0.63597000  0.31117000  1.0 0.0704122146
H  H142  1  0.99407000  0.95073000  0.67053000  1.0 0.0793826769
H  H143  1  0.66073000  0.28407000  0.00387000  1.0 0.0793826769
H  H144  1  0.32740000  0.61740000  0.33720000  1.0 0.0793826769
H  H145  1  0.97077000  0.86583000  0.55883000  1.0 0.0704122146
H  H146  1  0.63743000  0.19917000  0.89217000  1.0 0.0704122146
H  H147  1  0.30410000  0.53250000  0.22550000  1.0 0.0704122146
H  H148  1  0.06973000  0.84727000  0.44047000  1.0 0.1044933593
H  H149  1  0.73640000  0.18060000  0.77380000  1.0 0.1044933593
H  H150  1  0.40307000  0.51393000  0.10713000  1.0 0.1044933593
H  H151  1  0.04317000  0.78103000  0.42403000  1.0 0.0704122146
H  H152  1  0.70983000  0.11437000  0.75737000  1.0 0.0704122146
H  H153  1  0.37650000  0.44770000  0.09070000  1.0 0.0704122146
H  H154  1  0.12983000  0.80027000  0.43797000  1.0 0.0704122146
H  H155  1  0.79650000  0.13360000  0.77130000  1.0 0.0704122146
H  H156  1  0.46317000  0.46693000  0.10463000  1.0 0.0704122146
H  H157  1  0.15580000  0.86590000  0.46080000  1.0 0.1067518734
H  H158  1  0.82247000  0.19923000  0.79413000  1.0 0.1067518734
H  H159  1  0.48913000  0.53257000  0.12747000  1.0 0.1067518734
H  H160  1  0.02217000  0.72373000  0.39893000  1.0 0.0880979903
H  H161  1  0.68883000  0.05707000  0.73227000  1.0 0.0880979903
H  H162  1  0.35550000  0.39040000  0.06560000  1.0 0.0880979903
H  H163  1  0.99613000  0.65687000  0.37667000  1.0 0.0880979903
H  H164  1  0.66280000  0.99020000  0.71000000  1.0 0.0880979903
H  H165  1  0.32947000  0.32353000  0.04333000  1.0 0.0880979903
H  H166  1  0.10783000  0.74527000  0.43827000  1.0 0.0704122146
H  H167  1  0.77450000  0.07860000  0.77160000  1.0 0.0704122146
H  H168  1  0.44117000  0.41193000  0.10493000  1.0 0.0704122146
H  H169  1  0.22620000  0.96260000  0.55580000  1.0 0.1281290475
H  H170  1  0.89287000  0.29593000  0.88913000  1.0 0.1281290475
H  H171  1  0.55953000  0.62927000  0.22247000  1.0 0.1281290475
H  H172  1  0.24263000  0.95247000  0.59547000  1.0 0.0704122146
H  H173  1  0.90930000  0.28580000  0.92880000  1.0 0.0704122146
H  H174  1  0.57597000  0.61913000  0.26213000  1.0 0.0704122146
H  H175  1  0.22870000  0.02520000  0.66290000  1.0 0.0793826769
H  H176  1  0.89537000  0.35853000  0.99623000  1.0 0.0793826769
H  H177  1  0.56203000  0.69187000  0.32957000  1.0 0.0793826769
H  H178  1  0.20587000  0.02833000  0.62323000  1.0 0.0880979903
H  H179  1  0.87253000  0.36167000  0.95657000  1.0 0.0880979903
H  H180  1  0.53920000  0.69500000  0.28990000  1.0 0.0880979903
H  H181  1  0.26773000  0.95657000  0.63177000  1.0 0.0636538403
H  H182  1  0.93440000  0.28990000  0.96510000  1.0 0.0636538403
H  H183  1  0.60107000  0.62323000  0.29843000  1.0 0.0636538403
H  H184  1  0.29000000  0.95280000  0.67260000  1.0 0.0793826769
H  H185  1  0.95667000  0.28613000  0.00593000  1.0 0.0793826769
H  H186  1  0.62333000  0.61947000  0.33927000  1.0 0.0793826769
H  H187  1  0.22840000  0.00290000  0.69590000  1.0 0.0704122146
H  H188  1  0.89507000  0.33623000  0.02923000  1.0 0.0704122146
H  H189  1  0.56173000  0.66957000  0.36257000  1.0 0.0704122146
H  H190  1  0.82700000  0.87200000  0.46520000  1.0 0.1044933593
H  H191  1  0.49367000  0.20533000  0.79853000  1.0 0.1067518734
H  H192  1  0.16033000  0.53867000  0.13187000  1.0 0.1044933593
H  H193  1  0.83347000  0.82883000  0.47183000  1.0 0.0704122146
H  H194  1  0.50013000  0.16217000  0.80517000  1.0 0.0704122146
H  H195  1  0.16680000  0.49550000  0.13850000  1.0 0.0704122146
H  H196  1  0.90443000  0.91727000  0.55497000  1.0 0.0704122146
H  H197  1  0.57110000  0.25060000  0.88830000  1.0 0.0704122146
H  H198  1  0.23777000  0.58393000  0.22163000  1.0 0.0704122146
H  H199  1  0.89330000  0.95750000  0.55240000  1.0 0.1219284321
H  H200  1  0.55997000  0.29083000  0.88573000  1.0 0.1281290475
H  H201  1  0.22663000  0.62417000  0.21907000  1.0 0.1219284321
H  H202  1  0.84830000  0.79710000  0.47230000  1.0 0.0704122146
H  H203  1  0.51497000  0.13043000  0.80563000  1.0 0.0704122146
H  H204  1  0.18163000  0.46377000  0.13897000  1.0 0.0704122146
H  H205  1  0.85940000  0.75620000  0.47600000  1.0 0.0793826769
H  H206  1  0.52607000  0.08953000  0.80933000  1.0 0.0793826769
H  H207  1  0.19273000  0.42287000  0.14267000  1.0 0.0793826769
H  H208  1  0.90057000  0.87683000  0.56983000  1.0 0.0704122146
H  H209  1  0.56723000  0.21017000  0.90317000  1.0 0.0704122146
H  H210  1  0.23390000  0.54350000  0.23650000  1.0 0.0704122146
H  H211  1  0.86813000  0.02847000  0.62167000  1.0 0.1044933593
H  H212  1  0.53480000  0.36180000  0.95500000  1.0 0.1044933593
H  H213  1  0.20147000  0.69513000  0.28833000  1.0 0.1044933593
H  H214  1  0.86150000  0.02830000  0.67130000  1.0 0.0704122146
H  H215  1  0.52817000  0.36163000  0.00463000  1.0 0.0704122146
H  H216  1  0.19483000  0.69497000  0.33797000  1.0 0.0704122146
H  H217  1  0.77837000  0.01613000  0.65383000  1.0 0.0704122146
H  H218  1  0.44503000  0.34947000  0.98717000  1.0 0.0704122146
H  H219  1  0.11170000  0.68280000  0.32050000  1.0 0.0704122146
H  H220  1  0.78093000  0.00757000  0.60247000  1.0 0.1067518734
H  H221  1  0.44760000  0.34090000  0.93580000  1.0 0.1067518734
H  H222  1  0.11427000  0.67423000  0.26913000  1.0 0.1067518734
H  H223  1  0.86103000  0.04267000  0.71787000  1.0 0.0880979903
H  H224  1  0.52770000  0.37600000  0.05120000  1.0 0.0880979903
H  H225  1  0.19437000  0.70933000  0.38453000  1.0 0.0880979903
H  H226  1  0.85733000  0.05007000  0.76987000  1.0 0.0880979903
H  H227  1  0.52400000  0.38340000  0.10320000  1.0 0.0880979903
H  H228  1  0.19067000  0.71673000  0.43653000  1.0 0.0880979903
H  H229  1  0.76350000  0.99740000  0.69040000  1.0 0.0704122146
H  H230  1  0.43017000  0.33073000  0.02373000  1.0 0.0704122146
H  H231  1  0.09683000  0.66407000  0.35707000  1.0 0.0704122146
H  H232  1  0.71167000  0.91313000  0.50633000  1.0 0.1281290475
H  H233  1  0.37833000  0.24647000  0.83967000  1.0 0.1281290475
H  H234  1  0.04500000  0.57980000  0.17300000  1.0 0.1281290475
H  H235  1  0.66203000  0.85687000  0.49987000  1.0 0.0704122146
H  H236  1  0.32870000  0.19020000  0.83320000  1.0 0.0704122146
H  H237  1  0.99537000  0.52353000  0.16653000  1.0 0.0704122146
H  H238  1  0.67950000  0.79120000  0.42890000  1.0 0.0793826769
H  H239  1  0.34617000  0.12453000  0.76223000  1.0 0.0793826769
H  H240  1  0.01283000  0.45787000  0.09557000  1.0 0.0793826769
H  H241  1  0.73087000  0.84513000  0.44003000  1.0 0.0880979903
H  H242  1  0.39753000  0.17847000  0.77337000  1.0 0.0880979903
H  H243  1  0.06420000  0.51180000  0.10670000  1.0 0.0880979903
H  H244  1  0.61547000  0.80983000  0.48503000  1.0 0.0636538403
H  H245  1  0.28213000  0.14317000  0.81837000  1.0 0.0636538403
H  H246  1  0.94880000  0.47650000  0.15170000  1.0 0.0636538403
H  H247  1  0.56347000  0.75413000  0.47393000  1.0 0.0793826769
H  H248  1  0.23013000  0.08747000  0.80727000  1.0 0.0793826769
H  H249  1  0.89680000  0.42080000  0.14060000  1.0 0.0793826769
H  H250  1  0.64293000  0.73977000  0.43277000  1.0 0.0704122146
H  H251  1  0.30960000  0.07310000  0.76610000  1.0 0.0704122146
H  H252  1  0.97627000  0.40643000  0.09943000  1.0 0.0704122146
H  H253  1  0.32700000  0.36180000  0.45500000  1.0 0.1044933593
H  H254  1  0.99367000  0.69513000  0.78833000  1.0 0.1044933593
H  H255  1  0.66033000  0.02847000  0.12167000  1.0 0.1044933593
H  H256  1  0.33347000  0.36163000  0.50463000  1.0 0.0704122146
H  H257  1  0.00013000  0.69497000  0.83797000  1.0 0.0704122146
H  H258  1  0.66680000  0.02830000  0.17130000  1.0 0.0704122146
H  H259  1  0.40443000  0.34947000  0.48717000  1.0 0.0704122146
H  H260  1  0.07110000  0.68280000  0.82050000  1.0 0.0704122146
H  H261  1  0.73777000  0.01613000  0.15383000  1.0 0.0704122146
H  H262  1  0.39330000  0.34090000  0.43580000  1.0 0.1067518734
H  H263  1  0.05997000  0.67423000  0.76913000  1.0 0.1067518734
H  H264  1  0.72663000  0.00757000  0.10247000  1.0 0.1067518734
H  H265  1  0.34830000  0.37600000  0.55120000  1.0 0.0880979903
H  H266  1  0.01497000  0.70933000  0.88453000  1.0 0.0880979903
H  H267  1  0.68163000  0.04267000  0.21787000  1.0 0.0880979903
H  H268  1  0.35940000  0.38340000  0.60320000  1.0 0.0880979903
H  H269  1  0.02607000  0.71673000  0.93653000  1.0 0.0880979903
H  H270  1  0.69273000  0.05007000  0.26987000  1.0 0.0880979903
H  H271  1  0.40057000  0.33073000  0.52373000  1.0 0.0704122146
H  H272  1  0.06723000  0.66407000  0.85707000  1.0 0.0704122146
H  H273  1  0.73390000  0.99740000  0.19040000  1.0 0.0704122146
H  H274  1  0.36813000  0.24647000  0.33967000  1.0 0.1281290475
H  H275  1  0.03480000  0.57980000  0.67300000  1.0 0.1281290475
H  H276  1  0.70147000  0.91313000  0.00633000  1.0 0.1281290475
H  H277  1  0.36150000  0.19020000  0.33320000  1.0 0.0704122146
H  H278  1  0.02817000  0.52353000  0.66653000  1.0 0.0704122146
H  H279  1  0.69483000  0.85687000  0.99987000  1.0 0.0704122146
H  H280  1  0.27837000  0.12453000  0.26223000  1.0 0.0793826769
H  H281  1  0.94503000  0.45787000  0.59557000  1.0 0.0793826769
H  H282  1  0.61170000  0.79120000  0.92890000  1.0 0.0793826769
H  H283  1  0.28093000  0.17847000  0.27337000  1.0 0.0880979903
H  H284  1  0.94760000  0.51180000  0.60670000  1.0 0.0880979903
H  H285  1  0.61427000  0.84513000  0.94003000  1.0 0.0880979903
H  H286  1  0.36103000  0.14317000  0.31837000  1.0 0.0636538403
H  H287  1  0.02770000  0.47650000  0.65170000  1.0 0.0636538403
H  H288  1  0.69437000  0.80983000  0.98503000  1.0 0.0636538403
H  H289  1  0.35733000  0.08747000  0.30727000  1.0 0.0793826769
H  H290  1  0.02400000  0.42080000  0.64060000  1.0 0.0793826769
H  H291  1  0.69067000  0.75413000  0.97393000  1.0 0.0793826769
H  H292  1  0.26350000  0.07310000  0.26610000  1.0 0.0704122146
H  H293  1  0.93017000  0.40643000  0.59943000  1.0 0.0704122146
H  H294  1  0.59683000  0.73977000  0.93277000  1.0 0.0704122146
H  H295  1  0.21167000  0.20533000  0.29853000  1.0 0.1044933593
H  H296  1  0.87833000  0.53867000  0.63187000  1.0 0.1044933593
H  H297  1  0.54500000  0.87200000  0.96520000  1.0 0.1044933593
H  H298  1  0.16203000  0.16217000  0.30517000  1.0 0.0704122146
H  H299  1  0.82870000  0.49550000  0.63850000  1.0 0.0704122146
H  H300  1  0.49537000  0.82883000  0.97183000  1.0 0.0704122146
H  H301  1  0.17950000  0.25060000  0.38830000  1.0 0.0704122146
H  H302  1  0.84617000  0.58393000  0.72163000  1.0 0.0704122146
H  H303  1  0.51283000  0.91727000  0.05497000  1.0 0.0704122146
H  H304  1  0.23087000  0.29083000  0.38573000  1.0 0.1219284321
H  H305  1  0.89753000  0.62417000  0.71907000  1.0 0.1219284321
H  H306  1  0.56420000  0.95750000  0.05240000  1.0 0.1219284321
H  H307  1  0.11547000  0.13043000  0.30563000  1.0 0.0704122146
H  H308  1  0.78213000  0.46377000  0.63897000  1.0 0.0704122146
H  H309  1  0.44880000  0.79710000  0.97230000  1.0 0.0704122146
H  H310  1  0.06347000  0.08953000  0.30933000  1.0 0.0793826769
H  H311  1  0.73013000  0.42287000  0.64267000  1.0 0.0793826769
H  H312  1  0.39680000  0.75620000  0.97600000  1.0 0.0793826769
H  H313  1  0.14293000  0.21017000  0.40317000  1.0 0.0704122146
H  H314  1  0.80960000  0.54350000  0.73650000  1.0 0.0704122146
H  H315  1  0.47627000  0.87683000  0.06983000  1.0 0.0704122146
H  H316  1  0.94420000  0.18060000  0.27380000  1.0 0.1044933593
H  H317  1  0.61087000  0.51393000  0.60713000  1.0 0.1044933593
H  H318  1  0.27753000  0.84727000  0.94047000  1.0 0.1044933593
H  H319  1  0.90453000  0.11437000  0.25737000  1.0 0.0704122146
H  H320  1  0.57120000  0.44770000  0.59070000  1.0 0.0704122146
H  H321  1  0.23787000  0.78103000  0.92403000  1.0 0.0704122146
H  H322  1  0.83710000  0.13360000  0.27130000  1.0 0.0704122146
H  H323  1  0.50377000  0.46693000  0.60463000  1.0 0.0704122146
H  H324  1  0.17043000  0.80027000  0.93797000  1.0 0.0704122146
H  H325  1  0.87677000  0.19923000  0.29413000  1.0 0.1067518734
H  H326  1  0.54343000  0.53257000  0.62747000  1.0 0.1067518734
H  H327  1  0.21010000  0.86590000  0.96080000  1.0 0.1067518734
H  H328  1  0.86823000  0.05707000  0.23227000  1.0 0.0880979903
H  H329  1  0.53490000  0.39040000  0.56560000  1.0 0.0880979903
H  H330  1  0.20157000  0.72373000  0.89893000  1.0 0.0880979903
H  H331  1  0.82740000  0.99020000  0.21000000  1.0 0.0880979903
H  H332  1  0.49407000  0.32353000  0.54333000  1.0 0.0880979903
H  H333  1  0.16073000  0.65687000  0.87667000  1.0 0.0880979903
H  H334  1  0.80410000  0.07860000  0.27160000  1.0 0.0704122146
H  H335  1  0.47077000  0.41193000  0.60493000  1.0 0.0704122146
H  H336  1  0.13743000  0.74527000  0.93827000  1.0 0.0704122146
H  H337  1  0.90307000  0.29593000  0.38913000  1.0 0.1281290475
H  H338  1  0.56973000  0.62927000  0.72247000  1.0 0.1281290475
H  H339  1  0.23640000  0.96260000  0.05580000  1.0 0.1281290475
H  H340  1  0.87650000  0.28580000  0.42880000  1.0 0.0704122146
H  H341  1  0.54317000  0.61913000  0.76213000  1.0 0.0704122146
H  H342  1  0.20983000  0.95247000  0.09547000  1.0 0.0704122146
H  H343  1  0.96317000  0.35853000  0.49623000  1.0 0.0793826769
H  H344  1  0.62983000  0.69187000  0.82957000  1.0 0.0793826769
H  H345  1  0.29650000  0.02520000  0.16290000  1.0 0.0793826769
H  H346  1  0.98913000  0.36167000  0.45657000  1.0 0.0880979903
H  H347  1  0.65580000  0.69500000  0.78990000  1.0 0.0880979903
H  H348  1  0.32247000  0.02833000  0.12323000  1.0 0.0880979903
H  H349  1  0.85550000  0.28990000  0.46510000  1.0 0.0636538403
H  H350  1  0.52217000  0.62323000  0.79843000  1.0 0.0636538403
H  H351  1  0.18883000  0.95657000  0.13177000  1.0 0.0636538403
H  H352  1  0.82947000  0.28613000  0.50593000  1.0 0.0793826769
H  H353  1  0.49613000  0.61947000  0.83927000  1.0 0.0793826769
H  H354  1  0.16280000  0.95280000  0.17260000  1.0 0.0793826769
H  H355  1  0.94117000  0.33623000  0.52923000  1.0 0.0704122146
H  H356  1  0.60783000  0.66957000  0.86257000  1.0 0.0704122146
H  H357  1  0.27450000  0.00290000  0.19590000  1.0 0.0704122146
H  H358  1  0.05953000  0.33707000  0.43027000  1.0 0.1044933593
H  H359  1  0.72620000  0.67040000  0.76360000  1.0 0.1044933593
H  H360  1  0.39287000  0.00373000  0.09693000  1.0 0.1044933593
H  H361  1  0.07597000  0.31383000  0.45683000  1.0 0.0704122146
H  H362  1  0.74263000  0.64717000  0.79017000  1.0 0.0704122146
H  H363  1  0.40930000  0.98050000  0.12350000  1.0 0.0704122146
H  H364  1  0.06203000  0.23247000  0.37017000  1.0 0.0704122146
H  H365  1  0.72870000  0.56580000  0.70350000  1.0 0.0704122146
H  H366  1  0.39537000  0.89913000  0.03683000  1.0 0.0704122146
H  H367  1  0.03920000  0.24930000  0.34420000  1.0 0.1219284321
H  H368  1  0.70587000  0.58263000  0.67753000  1.0 0.1219284321
H  H369  1  0.37253000  0.91597000  0.01087000  1.0 0.1219284321
H  H370  1  0.10107000  0.30263000  0.47783000  1.0 0.0704122146
H  H371  1  0.76773000  0.63597000  0.81117000  1.0 0.0704122146
H  H372  1  0.43440000  0.96930000  0.14450000  1.0 0.0704122146
H  H373  1  0.12333000  0.28407000  0.50387000  1.0 0.0793826769
H  H374  1  0.79000000  0.61740000  0.83720000  1.0 0.0793826769
H  H375  1  0.45667000  0.95073000  0.17053000  1.0 0.0793826769
H  H376  1  0.06173000  0.19917000  0.39217000  1.0 0.0704122146
H  H377  1  0.72840000  0.53250000  0.72550000  1.0 0.0704122146
H  H378  1  0.39507000  0.86583000  0.05883000  1.0 0.0704122146
H  H379  1  0.88913000  0.99627000  0.40307000  1.0 0.1044933593
H  H380  1  0.55580000  0.32960000  0.73640000  1.0 0.1044933593
H  H381  1  0.22247000  0.66293000  0.06973000  1.0 0.1044933593
H  H382  1  0.92880000  0.01950000  0.37650000  1.0 0.0704122146
H  H383  1  0.59547000  0.35283000  0.70983000  1.0 0.0704122146
H  H384  1  0.26213000  0.68617000  0.04317000  1.0 0.0704122146
H  H385  1  0.99623000  0.10087000  0.46317000  1.0 0.0704122146
H  H386  1  0.66290000  0.43420000  0.79650000  1.0 0.0704122146
H  H387  1  0.32957000  0.76753000  0.12983000  1.0 0.0704122146
H  H388  1  0.95657000  0.08403000  0.48913000  1.0 0.1219284321
H  H389  1  0.62323000  0.41737000  0.82247000  1.0 0.1281290475
H  H390  1  0.28990000  0.75070000  0.15580000  1.0 0.1219284321
H  H391  1  0.96510000  0.03070000  0.35550000  1.0 0.0704122146
H  H392  1  0.63177000  0.36403000  0.68883000  1.0 0.0704122146
H  H393  1  0.29843000  0.69737000  0.02217000  1.0 0.0704122146
H  H394  1  0.00593000  0.04927000  0.32947000  1.0 0.0793826769
H  H395  1  0.67260000  0.38260000  0.66280000  1.0 0.0793826769
H  H396  1  0.33927000  0.71593000  0.99613000  1.0 0.0793826769
H  H397  1  0.02923000  0.13417000  0.44117000  1.0 0.0704122146
H  H398  1  0.69590000  0.46750000  0.77450000  1.0 0.0704122146
H  H399  1  0.36257000  0.80083000  0.10783000  1.0 0.0704122146
H  H400  1  0.93027000  0.15273000  0.55953000  1.0 0.1044933593
H  H401  1  0.59693000  0.48607000  0.89287000  1.0 0.1044933593
H  H402  1  0.26360000  0.81940000  0.22620000  1.0 0.1044933593
H  H403  1  0.95683000  0.21897000  0.57597000  1.0 0.0704122146
H  H404  1  0.62350000  0.55230000  0.90930000  1.0 0.0704122146
H  H405  1  0.29017000  0.88563000  0.24263000  1.0 0.0704122146
H  H406  1  0.87017000  0.19973000  0.56203000  1.0 0.0704122146
H  H407  1  0.53683000  0.53307000  0.89537000  1.0 0.0704122146
H  H408  1  0.20350000  0.86640000  0.22870000  1.0 0.0704122146
H  H409  1  0.84420000  0.13410000  0.53920000  1.0 0.1067518734
H  H410  1  0.51087000  0.46743000  0.87253000  1.0 0.1067518734
H  H411  1  0.17753000  0.80077000  0.20587000  1.0 0.1067518734
H  H412  1  0.97783000  0.27627000  0.60107000  1.0 0.0880979903
H  H413  1  0.64450000  0.60960000  0.93440000  1.0 0.0880979903
H  H414  1  0.31117000  0.94293000  0.26773000  1.0 0.0880979903
H  H415  1  0.00387000  0.34313000  0.62333000  1.0 0.0880979903
H  H416  1  0.67053000  0.67647000  0.95667000  1.0 0.0880979903
H  H417  1  0.33720000  0.00980000  0.29000000  1.0 0.0880979903
H  H418  1  0.89217000  0.25473000  0.56173000  1.0 0.0704122146
H  H419  1  0.55883000  0.58807000  0.89507000  1.0 0.0704122146
H  H420  1  0.22550000  0.92140000  0.22840000  1.0 0.0704122146
H  H421  1  0.77380000  0.03740000  0.44420000  1.0 0.1281290475
H  H422  1  0.44047000  0.37073000  0.77753000  1.0 0.1281290475
H  H423  1  0.10713000  0.70407000  0.11087000  1.0 0.1281290475
H  H424  1  0.75737000  0.04753000  0.40453000  1.0 0.0704122146
H  H425  1  0.42403000  0.38087000  0.73787000  1.0 0.0704122146
H  H426  1  0.09070000  0.71420000  0.07120000  1.0 0.0704122146
H  H427  1  0.77130000  0.97480000  0.33710000  1.0 0.0793826769
H  H428  1  0.43797000  0.30813000  0.67043000  1.0 0.0793826769
H  H429  1  0.10463000  0.64147000  0.00377000  1.0 0.0793826769
H  H430  1  0.79413000  0.97167000  0.37677000  1.0 0.0880979903
H  H431  1  0.46080000  0.30500000  0.71010000  1.0 0.0880979903
H  H432  1  0.12747000  0.63833000  0.04343000  1.0 0.0880979903
H  H433  1  0.73227000  0.04343000  0.36823000  1.0 0.0636538403
H  H434  1  0.39893000  0.37677000  0.70157000  1.0 0.0636538403
H  H435  1  0.06560000  0.71010000  0.03490000  1.0 0.0636538403
H  H436  1  0.71000000  0.04720000  0.32740000  1.0 0.0793826769
H  H437  1  0.37667000  0.38053000  0.66073000  1.0 0.0793826769
H  H438  1  0.04333000  0.71387000  0.99407000  1.0 0.0793826769
H  H439  1  0.77160000  0.99710000  0.30410000  1.0 0.0704122146
H  H440  1  0.43827000  0.33043000  0.63743000  1.0 0.0704122146
H  H441  1  0.10493000  0.66377000  0.97077000  1.0 0.0704122146
H  H442  1  0.17300000  0.12800000  0.53480000  1.0 0.1044933593
H  H443  1  0.83967000  0.46133000  0.86813000  1.0 0.1044933593
H  H444  1  0.50633000  0.79467000  0.20147000  1.0 0.1044933593
H  H445  1  0.16653000  0.17117000  0.52817000  1.0 0.0704122146
H  H446  1  0.83320000  0.50450000  0.86150000  1.0 0.0704122146
H  H447  1  0.49987000  0.83783000  0.19483000  1.0 0.0704122146
H  H448  1  0.09557000  0.08273000  0.44503000  1.0 0.0704122146
H  H449  1  0.76223000  0.41607000  0.77837000  1.0 0.0704122146
H  H450  1  0.42890000  0.74940000  0.11170000  1.0 0.0704122146
H  H451  1  0.10670000  0.04250000  0.44760000  1.0 0.1281290475
H  H452  1  0.77337000  0.37583000  0.78093000  1.0 0.1219284321
H  H453  1  0.44003000  0.70917000  0.11427000  1.0 0.1219284321
H  H454  1  0.15170000  0.20290000  0.52770000  1.0 0.0704122146
H  H455  1  0.81837000  0.53623000  0.86103000  1.0 0.0704122146
H  H456  1  0.48503000  0.86957000  0.19437000  1.0 0.0704122146
H  H457  1  0.14060000  0.24380000  0.52400000  1.0 0.0793826769
H  H458  1  0.80727000  0.57713000  0.85733000  1.0 0.0793826769
H  H459  1  0.47393000  0.91047000  0.19067000  1.0 0.0793826769
H  H460  1  0.09943000  0.12317000  0.43017000  1.0 0.0704122146
H  H461  1  0.76610000  0.45650000  0.76350000  1.0 0.0704122146
H  H462  1  0.43277000  0.78983000  0.09683000  1.0 0.0704122146
H  H463  1  0.13187000  0.97153000  0.37833000  1.0 0.1044933593
H  H464  1  0.79853000  0.30487000  0.71167000  1.0 0.1044933593
H  H465  1  0.46520000  0.63820000  0.04500000  1.0 0.1044933593
H  H466  1  0.13850000  0.97170000  0.32870000  1.0 0.0704122146
H  H467  1  0.80517000  0.30503000  0.66203000  1.0 0.0704122146
H  H468  1  0.47183000  0.63837000  0.99537000  1.0 0.0704122146
H  H469  1  0.22163000  0.98387000  0.34617000  1.0 0.0704122146
H  H470  1  0.88830000  0.31720000  0.67950000  1.0 0.0704122146
H  H471  1  0.55497000  0.65053000  0.01283000  1.0 0.0704122146
H  H472  1  0.21907000  0.99243000  0.39753000  1.0 0.1067518734
H  H473  1  0.88573000  0.32577000  0.73087000  1.0 0.1067518734
H  H474  1  0.55240000  0.65910000  0.06420000  1.0 0.1067518734
H  H475  1  0.13897000  0.95733000  0.28213000  1.0 0.0880979903
H  H476  1  0.80563000  0.29067000  0.61547000  1.0 0.0880979903
H  H477  1  0.47230000  0.62400000  0.94880000  1.0 0.0880979903
H  H478  1  0.14267000  0.94993000  0.23013000  1.0 0.0880979903
H  H479  1  0.80933000  0.28327000  0.56347000  1.0 0.0880979903
H  H480  1  0.47600000  0.61660000  0.89680000  1.0 0.0880979903
H  H481  1  0.23650000  0.00260000  0.30960000  1.0 0.0704122146
H  H482  1  0.90317000  0.33593000  0.64293000  1.0 0.0704122146
H  H483  1  0.56983000  0.66927000  0.97627000  1.0 0.0704122146
H  H484  1  0.28833000  0.08687000  0.49367000  1.0 0.1281290475
H  H485  1  0.95500000  0.42020000  0.82700000  1.0 0.1281290475
H  H486  1  0.62167000  0.75353000  0.16033000  1.0 0.1281290475
H  H487  1  0.33797000  0.14313000  0.50013000  1.0 0.0704122146
H  H488  1  0.00463000  0.47647000  0.83347000  1.0 0.0704122146
H  H489  1  0.67130000  0.80980000  0.16680000  1.0 0.0704122146
H  H490  1  0.32050000  0.20880000  0.57110000  1.0 0.0793826769
H  H491  1  0.98717000  0.54213000  0.90443000  1.0 0.0793826769
H  H492  1  0.65383000  0.87547000  0.23777000  1.0 0.0793826769
H  H493  1  0.26913000  0.15487000  0.55997000  1.0 0.0880979903
H  H494  1  0.93580000  0.48820000  0.89330000  1.0 0.0880979903
H  H495  1  0.60247000  0.82153000  0.22663000  1.0 0.0880979903
H  H496  1  0.38453000  0.19017000  0.51497000  1.0 0.0636538403
H  H497  1  0.05120000  0.52350000  0.84830000  1.0 0.0636538403
H  H498  1  0.71787000  0.85683000  0.18163000  1.0 0.0636538403
H  H499  1  0.43653000  0.24587000  0.52607000  1.0 0.0793826769
H  H500  1  0.10320000  0.57920000  0.85940000  1.0 0.0793826769
H  H501  1  0.76987000  0.91253000  0.19273000  1.0 0.0793826769
H  H502  1  0.35707000  0.26023000  0.56723000  1.0 0.0704122146
H  H503  1  0.02373000  0.59357000  0.90057000  1.0 0.0704122146
H  H504  1  0.69040000  0.92690000  0.23390000  1.0 0.0704122146
C  C1  1  0.64299000  0.64448000  0.59091000  1.0 -0.0284072156
C  C2  1  0.30966000  0.97781000  0.92424000  1.0 -0.0284072156
C  C3  1  0.97632000  0.31115000  0.25758000  1.0 -0.0284072156
C  C4  1  0.63898000  0.64546000  0.56032000  1.0 -0.0433835446
C  C5  1  0.30565000  0.97879000  0.89365000  1.0 -0.0433835446
C  C6  1  0.97231000  0.31213000  0.22699000  1.0 -0.0433835446
C  C7  1  0.65683000  0.64137000  0.53917000  1.0 -0.0695184293
C  C8  1  0.32350000  0.97470000  0.87250000  1.0 -0.0695184293
C  C9  1  0.99017000  0.30803000  0.20583000  1.0 -0.0695184293
C  C10  1  0.65300000  0.64140000  0.50900000  1.0 -0.1215669931
C  C11  1  0.31967000  0.97473000  0.84233000  1.0 -0.1215669931
C  C12  1  0.98633000  0.30807000  0.17567000  1.0 -0.1215669931
C  C13  1  0.63100000  0.64571000  0.49890000  1.0 -0.0904253743
C  C14  1  0.29767000  0.97904000  0.83223000  1.0 -0.0904253743
C  C15  1  0.96434000  0.31237000  0.16556000  1.0 -0.0904253743
C  C16  1  0.61290000  0.64960000  0.51970000  1.0 -0.1215669931
C  C17  1  0.27957000  0.98293000  0.85303000  1.0 -0.1215669931
C  C18  1  0.94623000  0.31627000  0.18637000  1.0 -0.1215669931
C  C19  1  0.61810000  0.65220000  0.54950000  1.0 -0.0591473544
C  C20  1  0.28477000  0.98553000  0.88283000  1.0 -0.0591473544
C  C21  1  0.95143000  0.31887000  0.21617000  1.0 -0.0591473544
C  C22  1  0.62541000  0.64531000  0.46799000  1.0 -0.0284072156
C  C23  1  0.29207000  0.97865000  0.80133000  1.0 -0.0284072156
C  C24  1  0.95874000  0.31198000  0.13466000  1.0 -0.0284072156
C  C25  1  0.63850000  0.63129000  0.44380000  1.0 -0.0695184293
C  C26  1  0.30516000  0.96463000  0.77714000  1.0 -0.0695184293
C  C27  1  0.97183000  0.29796000  0.11047000  1.0 -0.0695184293
C  C28  1  0.63263000  0.62795000  0.41317000  1.0 -0.0591473544
C  C29  1  0.29929000  0.96129000  0.74651000  1.0 -0.0591473544
C  C30  1  0.96596000  0.29462000  0.07984000  1.0 -0.0591473544
C  C31  1  0.61504000  0.64079000  0.40491000  1.0 -0.0181897998
C  C32  1  0.28171000  0.97412000  0.73824000  1.0 -0.0181897998
C  C33  1  0.94838000  0.30745000  0.07157000  1.0 -0.0181897998
C  C34  1  0.60253000  0.65584000  0.42926000  1.0 0.0036317377
C  C35  1  0.26920000  0.98917000  0.76259000  1.0 0.0036317377
C  C36  1  0.93587000  0.32250000  0.09592000  1.0 0.0036317377
C  C37  1  0.60779000  0.65847000  0.46001000  1.0 0.0145869069
C  C38  1  0.27445000  0.99181000  0.79335000  1.0 0.0145869069
C  C39  1  0.94112000  0.32514000  0.12668000  1.0 0.0145869069
C  C40  1  0.66816000  0.74391000  0.69034000  1.0 0.0190146148
C  C41  1  0.33482000  0.07725000  0.02368000  1.0 0.0190146148
C  C42  1  0.00149000  0.41058000  0.35701000  1.0 0.0190146148
C  C43  1  0.67315000  0.77949000  0.69435000  1.0 -0.0503810213
C  C44  1  0.33981000  0.11283000  0.02769000  1.0 -0.0503810213
C  C45  1  0.00648000  0.44616000  0.36102000  1.0 -0.0503810213
C  C46  1  0.65120000  0.77870000  0.67650000  1.0 -0.0985845673
C  C47  1  0.31787000  0.11203000  0.00983000  1.0 -0.0985845673
C  C48  1  0.98453000  0.44537000  0.34317000  1.0 -0.0985845673
C  C49  1  0.65507000  0.81273000  0.68033000  1.0 -0.1555692435
C  C50  1  0.32173000  0.14607000  0.01367000  1.0 -0.1555692435
C  C51  1  0.98840000  0.47940000  0.34700000  1.0 -0.1555692435
C  C52  1  0.68137000  0.84914000  0.70233000  1.0 -0.1342270564
C  C53  1  0.34804000  0.18247000  0.03566000  1.0 -0.1389708346
C  C54  1  0.01470000  0.51581000  0.36900000  1.0 -0.1389708346
C  C55  1  0.70337000  0.85033000  0.72043000  1.0 -0.1389708346
C  C56  1  0.37003000  0.18367000  0.05377000  1.0 -0.1389708346
C  C57  1  0.03670000  0.51700000  0.38710000  1.0 -0.1389708346
C  C58  1  0.70077000  0.81793000  0.71523000  1.0 -0.0904253743
C  C59  1  0.36743000  0.15127000  0.04857000  1.0 -0.0904253743
C  C60  1  0.03410000  0.48460000  0.38190000  1.0 -0.0904253743
C  C61  1  0.68657000  0.88525000  0.70793000  1.0 -0.0904253743
C  C62  1  0.35324000  0.21858000  0.04126000  1.0 -0.0904253743
C  C63  1  0.01991000  0.55191000  0.37459000  1.0 -0.0904253743
C  C64  1  0.65946000  0.88233000  0.69484000  1.0 -0.1485797433
C  C65  1  0.32613000  0.21566000  0.02817000  1.0 -0.1485797433
C  C66  1  0.99280000  0.54899000  0.36150000  1.0 -0.1485797433
C  C67  1  0.66199000  0.91549000  0.70071000  1.0 -0.0985845673
C  C68  1  0.32866000  0.24882000  0.03404000  1.0 -0.0985845673
C  C69  1  0.99533000  0.58215000  0.36737000  1.0 -0.0985845673
C  C70  1  0.69241000  0.95417000  0.71829000  1.0 -0.0092100019
C  C71  1  0.35908000  0.28750000  0.05162000  1.0 -0.0092100019
C  C72  1  0.02574000  0.62084000  0.38496000  1.0 -0.0092100019
C  C73  1  0.71997000  0.95738000  0.73080000  1.0 -0.0092100019
C  C74  1  0.38664000  0.29071000  0.06413000  1.0 -0.0092100019
C  C75  1  0.05330000  0.62405000  0.39747000  1.0 -0.0092100019
C  C76  1  0.71735000  0.92401000  0.72555000  1.0 -0.0092100019
C  C77  1  0.38402000  0.25734000  0.05888000  1.0 -0.0092100019
C  C78  1  0.05069000  0.59067000  0.39221000  1.0 -0.0092100019
C  C79  1  0.74242000  0.71875000  0.66518000  1.0 0.0190146148
C  C80  1  0.40909000  0.05208000  0.99851000  1.0 0.0145869069
C  C81  1  0.07576000  0.38541000  0.33184000  1.0 0.0190146148
C  C82  1  0.77301000  0.74533000  0.66019000  1.0 -0.0503810213
C  C83  1  0.43968000  0.07866000  0.99352000  1.0 -0.0503810213
C  C84  1  0.10635000  0.41199000  0.32685000  1.0 -0.0503810213
C  C85  1  0.79417000  0.78433000  0.68213000  1.0 -0.0904253743
C  C86  1  0.46083000  0.11767000  0.01547000  1.0 -0.0904253743
C  C87  1  0.12750000  0.45100000  0.34880000  1.0 -0.0904253743
C  C88  1  0.82433000  0.81067000  0.67827000  1.0 -0.1485797433
C  C89  1  0.49100000  0.14400000  0.01160000  1.0 -0.1389708346
C  C90  1  0.15767000  0.47733000  0.34493000  1.0 -0.1389708346
C  C91  1  0.83444000  0.79877000  0.65196000  1.0 -0.1389708346
C  C92  1  0.50110000  0.13211000  0.98530000  1.0 -0.1389708346
C  C93  1  0.16777000  0.46544000  0.31863000  1.0 -0.1389708346
C  C94  1  0.81363000  0.75987000  0.62997000  1.0 -0.1215669931
C  C95  1  0.48030000  0.09320000  0.96330000  1.0 -0.1215669931
C  C96  1  0.14697000  0.42653000  0.29663000  1.0 -0.1215669931
C  C97  1  0.78383000  0.73527000  0.63257000  1.0 -0.0985845673
C  C98  1  0.45050000  0.06860000  0.96590000  1.0 -0.0985845673
C  C99  1  0.11717000  0.40193000  0.29923000  1.0 -0.0985845673
C  C100  1  0.86534000  0.82408000  0.64676000  1.0 -0.0985845673
C  C101  1  0.53201000  0.15741000  0.98009000  1.0 -0.0985845673
C  C102  1  0.19867000  0.49075000  0.31343000  1.0 -0.0985845673
C  C103  1  0.88953000  0.86136000  0.67387000  1.0 -0.1485797433
C  C104  1  0.55620000  0.19469000  0.00720000  1.0 -0.1485797433
C  C105  1  0.22286000  0.52803000  0.34054000  1.0 -0.1485797433
C  C106  1  0.92016000  0.88612000  0.67134000  1.0 -0.1389708346
C  C107  1  0.58683000  0.21945000  0.00467000  1.0 -0.1485797433
C  C108  1  0.25349000  0.55279000  0.33801000  1.0 -0.1389708346
C  C109  1  0.92843000  0.87680000  0.64092000  1.0 -0.0695184293
C  C110  1  0.59509000  0.21014000  0.97426000  1.0 -0.0770086525
C  C111  1  0.26176000  0.54347000  0.30759000  1.0 -0.0770086525
C  C112  1  0.90408000  0.83994000  0.61336000  1.0 -0.0009323144
C  C113  1  0.57074000  0.17328000  0.94670000  1.0 -0.0009323144
C  C114  1  0.23741000  0.50661000  0.28003000  1.0 -0.0009323144
C  C115  1  0.87332000  0.81444000  0.61598000  1.0 -0.0284072156
C  C116  1  0.53999000  0.14777000  0.94931000  1.0 -0.0284072156
C  C117  1  0.20665000  0.48111000  0.28265000  1.0 -0.0284072156
C  C118  1  0.05939000  0.76028000  0.70671000  1.0 -0.0284072156
C  C119  1  0.72606000  0.09361000  0.04004000  1.0 -0.0284072156
C  C120  1  0.39272000  0.42695000  0.37338000  1.0 -0.0284072156
C  C121  1  0.08445000  0.80139000  0.71625000  1.0 -0.0433835446
C  C122  1  0.75111000  0.13473000  0.04959000  1.0 -0.0433835446
C  C123  1  0.41778000  0.46806000  0.38292000  1.0 -0.0433835446
C  C124  1  0.07797000  0.82823000  0.72603000  1.0 -0.0695184293
C  C125  1  0.74463000  0.16157000  0.05937000  1.0 -0.0695184293
C  C126  1  0.41130000  0.49490000  0.39270000  1.0 -0.0695184293
C  C127  1  0.10193000  0.86847000  0.73607000  1.0 -0.1215669931
C  C128  1  0.76860000  0.20180000  0.06940000  1.0 -0.1215669931
C  C129  1  0.43527000  0.53513000  0.40273000  1.0 -0.1215669931
C  C130  1  0.13354000  0.88337000  0.73656000  1.0 -0.0904253743
C  C131  1  0.80020000  0.21671000  0.06990000  1.0 -0.0904253743
C  C132  1  0.46687000  0.55004000  0.40323000  1.0 -0.0904253743
C  C133  1  0.14037000  0.85693000  0.72703000  1.0 -0.1215669931
C  C134  1  0.80703000  0.19027000  0.06037000  1.0 -0.1215669931
C  C135  1  0.47370000  0.52360000  0.39370000  1.0 -0.1215669931
C  C136  1  0.11703000  0.81807000  0.71537000  1.0 -0.0591473544
C  C137  1  0.78370000  0.15140000  0.04870000  1.0 -0.0591473544
C  C138  1  0.45037000  0.48473000  0.38203000  1.0 -0.0591473544
C  C139  1  0.15947000  0.92445000  0.74713000  1.0 -0.0284072156
C  C140  1  0.82614000  0.25778000  0.08046000  1.0 -0.0284072156
C  C141  1  0.49281000  0.59111000  0.41379000  1.0 -0.0284072156
C  C142  1  0.15316000  0.95203000  0.76454000  1.0 -0.0695184293
C  C143  1  0.81983000  0.28536000  0.09787000  1.0 -0.0695184293
C  C144  1  0.48650000  0.61869000  0.43120000  1.0 -0.0695184293
C  C145  1  0.17723000  0.99175000  0.77697000  1.0 -0.0591473544
C  C146  1  0.84389000  0.32509000  0.11031000  1.0 -0.0591473544
C  C147  1  0.51056000  0.65842000  0.44364000  1.0 -0.0591473544
C  C148  1  0.20888000  0.00705000  0.77117000  1.0 -0.0181897998
C  C149  1  0.87554000  0.34039000  0.10451000  1.0 -0.0181897998
C  C150  1  0.54221000  0.67372000  0.43784000  1.0 -0.0181897998
C  C151  1  0.21519000  0.97960000  0.75302000  1.0 0.0036317377
C  C152  1  0.88185000  0.31294000  0.08636000  1.0 0.0036317377
C  C153  1  0.54852000  0.64627000  0.41969000  1.0 0.0036317377
C  C154  1  0.19119000  0.93947000  0.74101000  1.0 0.0145869069
C  C155  1  0.85785000  0.27281000  0.07435000  1.0 0.0145869069
C  C156  1  0.52452000  0.60614000  0.40768000  1.0 0.0145869069
C  C157  1  0.03422000  0.66085000  0.60728000  1.0 0.0190146148
C  C158  1  0.70089000  0.99418000  0.94061000  1.0 0.0190146148
C  C159  1  0.36756000  0.32751000  0.27394000  1.0 0.0190146148
C  C160  1  0.05028000  0.66736000  0.58222000  1.0 -0.0503810213
C  C161  1  0.71695000  0.00069000  0.91555000  1.0 -0.0503810213
C  C162  1  0.38361000  0.33403000  0.24889000  1.0 -0.0503810213
C  C163  1  0.08360000  0.69090000  0.58870000  1.0 -0.0985845673
C  C164  1  0.75027000  0.02423000  0.92203000  1.0 -0.0985845673
C  C165  1  0.41693000  0.35757000  0.25537000  1.0 -0.0985845673
C  C166  1  0.09987000  0.69713000  0.56473000  1.0 -0.1555692435
C  C167  1  0.76653000  0.03047000  0.89807000  1.0 -0.1555692435
C  C168  1  0.43320000  0.36380000  0.23140000  1.0 -0.1555692435
C  C169  1  0.08317000  0.67994000  0.53313000  1.0 -0.1389708346
C  C170  1  0.74984000  0.01327000  0.86646000  1.0 -0.1342270564
C  C171  1  0.41650000  0.34661000  0.19980000  1.0 -0.1389708346
C  C172  1  0.04990000  0.65620000  0.52630000  1.0 -0.1389708346
C  C173  1  0.71657000  0.98953000  0.85963000  1.0 -0.1389708346
C  C174  1  0.38323000  0.32287000  0.19297000  1.0 -0.1389708346
C  C175  1  0.03437000  0.65233000  0.54963000  1.0 -0.0904253743
C  C176  1  0.70103000  0.98567000  0.88297000  1.0 -0.0904253743
C  C177  1  0.36770000  0.31900000  0.21630000  1.0 -0.0904253743
C  C178  1  0.09831000  0.68451000  0.50719000  1.0 -0.0904253743
C  C179  1  0.76497000  0.01785000  0.84053000  1.0 -0.0904253743
C  C180  1  0.43164000  0.35118000  0.17386000  1.0 -0.0904253743
C  C181  1  0.13220000  0.70099000  0.51350000  1.0 -0.1485797433
C  C182  1  0.79886000  0.03433000  0.84684000  1.0 -0.1485797433
C  C183  1  0.46553000  0.36766000  0.18017000  1.0 -0.1485797433
C  C184  1  0.14786000  0.70422000  0.48944000  1.0 -0.0985845673
C  C185  1  0.81453000  0.03755000  0.82277000  1.0 -0.0985845673
C  C186  1  0.48119000  0.37089000  0.15611000  1.0 -0.0985845673
C  C187  1  0.13151000  0.69367000  0.45779000  1.0 -0.0092100019
C  C188  1  0.79818000  0.02700000  0.79112000  1.0 -0.0092100019
C  C189  1  0.46484000  0.36034000  0.12446000  1.0 -0.0092100019
C  C190  1  0.09775000  0.67806000  0.45148000  1.0 -0.0092100019
C  C191  1  0.76442000  0.01139000  0.78481000  1.0 -0.0092100019
C  C192  1  0.43108000  0.34473000  0.11815000  1.0 -0.0092100019
C  C193  1  0.08162000  0.67394000  0.47548000  1.0 -0.0092100019
C  C194  1  0.74829000  0.00727000  0.80881000  1.0 -0.0092100019
C  C195  1  0.41495000  0.34061000  0.14215000  1.0 -0.0092100019
C  C196  1  0.95996000  0.68601000  0.63244000  1.0 0.0190146148
C  C197  1  0.62662000  0.01935000  0.96578000  1.0 0.0145869069
C  C198  1  0.29329000  0.35268000  0.29911000  1.0 0.0190146148
C  C199  1  0.95041000  0.70153000  0.61639000  1.0 -0.0503810213
C  C200  1  0.61708000  0.03486000  0.94972000  1.0 -0.0503810213
C  C201  1  0.28375000  0.36819000  0.28305000  1.0 -0.0503810213
C  C202  1  0.94063000  0.68527000  0.58307000  1.0 -0.0904253743
C  C203  1  0.60730000  0.01860000  0.91640000  1.0 -0.0904253743
C  C204  1  0.27397000  0.35193000  0.24973000  1.0 -0.0904253743
C  C205  1  0.93060000  0.69920000  0.56680000  1.0 -0.1485797433
C  C206  1  0.59727000  0.03253000  0.90013000  1.0 -0.1389708346
C  C207  1  0.26393000  0.36587000  0.23347000  1.0 -0.1485797433
C  C208  1  0.93010000  0.73031000  0.58350000  1.0 -0.1389708346
C  C209  1  0.59677000  0.06364000  0.91683000  1.0 -0.1389708346
C  C210  1  0.26344000  0.39697000  0.25016000  1.0 -0.1389708346
C  C211  1  0.93963000  0.74667000  0.61677000  1.0 -0.1215669931
C  C212  1  0.60630000  0.08000000  0.95010000  1.0 -0.1215669931
C  C213  1  0.27297000  0.41333000  0.28343000  1.0 -0.1215669931
C  C214  1  0.95130000  0.73500000  0.63230000  1.0 -0.0985845673
C  C215  1  0.61797000  0.06833000  0.96563000  1.0 -0.0985845673
C  C216  1  0.28463000  0.40167000  0.29897000  1.0 -0.0985845673
C  C217  1  0.91954000  0.74568000  0.56836000  1.0 -0.0985845673
C  C218  1  0.58621000  0.07901000  0.90169000  1.0 -0.0985845673
C  C219  1  0.25287000  0.41235000  0.23503000  1.0 -0.0985845673
C  C220  1  0.90213000  0.72196000  0.53447000  1.0 -0.1485797433
C  C221  1  0.56880000  0.05529000  0.86780000  1.0 -0.1485797433
C  C222  1  0.23546000  0.38863000  0.20114000  1.0 -0.1485797433
C  C223  1  0.88969000  0.73359000  0.51881000  1.0 -0.1389708346
C  C224  1  0.55636000  0.06692000  0.85214000  1.0 -0.1389708346
C  C225  1  0.22303000  0.40025000  0.18547000  1.0 -0.1389708346
C  C226  1  0.89549000  0.77104000  0.53516000  1.0 -0.0695184293
C  C227  1  0.56216000  0.10437000  0.86849000  1.0 -0.0770086525
C  C228  1  0.22883000  0.43770000  0.20182000  1.0 -0.0770086525
C  C229  1  0.91364000  0.79550000  0.56892000  1.0 -0.0009323144
C  C230  1  0.58031000  0.12883000  0.90225000  1.0 -0.0009323144
C  C231  1  0.24698000  0.46216000  0.23558000  1.0 -0.0009323144
C  C232  1  0.92565000  0.78351000  0.58505000  1.0 -0.0284072156
C  C233  1  0.59232000  0.11684000  0.91838000  1.0 -0.0284072156
C  C234  1  0.25899000  0.45017000  0.25171000  1.0 -0.0284072156
C  C235  1  0.10728000  0.98065000  0.53422000  1.0 0.0190146148
C  C236  1  0.77394000  0.31399000  0.86756000  1.0 0.0190146148
C  C237  1  0.44061000  0.64732000  0.20089000  1.0 0.0190146148
C  C238  1  0.08222000  0.96514000  0.55028000  1.0 -0.0503810213
C  C239  1  0.74889000  0.29847000  0.88361000  1.0 -0.0503810213
C  C240  1  0.41555000  0.63181000  0.21695000  1.0 -0.0503810213
C  C241  1  0.08870000  0.98140000  0.58360000  1.0 -0.0904253743
C  C242  1  0.75537000  0.31473000  0.91693000  1.0 -0.0904253743
C  C243  1  0.42203000  0.64807000  0.25027000  1.0 -0.0904253743
C  C244  1  0.06473000  0.96747000  0.59987000  1.0 -0.1485797433
C  C245  1  0.73140000  0.30080000  0.93320000  1.0 -0.1389708346
C  C246  1  0.39807000  0.63413000  0.26653000  1.0 -0.1485797433
C  C247  1  0.03313000  0.93636000  0.58317000  1.0 -0.1389708346
C  C248  1  0.69980000  0.26969000  0.91650000  1.0 -0.1389708346
C  C249  1  0.36646000  0.60303000  0.24984000  1.0 -0.1389708346
C  C250  1  0.02630000  0.92000000  0.54990000  1.0 -0.1215669931
C  C251  1  0.69297000  0.25333000  0.88323000  1.0 -0.1215669931
C  C252  1  0.35963000  0.58667000  0.21657000  1.0 -0.1215669931
C  C253  1  0.04963000  0.93167000  0.53437000  1.0 -0.0985845673
C  C254  1  0.71630000  0.26500000  0.86770000  1.0 -0.0985845673
C  C255  1  0.38297000  0.59833000  0.20103000  1.0 -0.0985845673
C  C256  1  0.00719000  0.92099000  0.59831000  1.0 -0.0985845673
C  C257  1  0.67386000  0.25432000  0.93164000  1.0 -0.0985845673
C  C258  1  0.34053000  0.58765000  0.26497000  1.0 -0.0985845673
C  C259  1  0.01350000  0.94471000  0.63220000  1.0 -0.1485797433
C  C260  1  0.68017000  0.27804000  0.96553000  1.0 -0.1485797433
C  C261  1  0.34684000  0.61137000  0.29886000  1.0 -0.1485797433
C  C262  1  0.98944000  0.93308000  0.64786000  1.0 -0.1389708346
C  C263  1  0.65611000  0.26641000  0.98119000  1.0 -0.1389708346
C  C264  1  0.32277000  0.59975000  0.31453000  1.0 -0.1485797433
C  C265  1  0.95779000  0.89563000  0.63151000  1.0 -0.0695184293
C  C266  1  0.62446000  0.22896000  0.96484000  1.0 -0.0770086525
C  C267  1  0.29112000  0.56230000  0.29818000  1.0 -0.0770086525
C  C268  1  0.95148000  0.87117000  0.59775000  1.0 -0.0009323144
C  C269  1  0.61815000  0.20450000  0.93108000  1.0 -0.0009323144
C  C270  1  0.28481000  0.53784000  0.26442000  1.0 -0.0009323144
C  C271  1  0.97548000  0.88316000  0.58162000  1.0 -0.0284072156
C  C272  1  0.64215000  0.21649000  0.91495000  1.0 -0.0284072156
C  C273  1  0.30881000  0.54983000  0.24829000  1.0 -0.0284072156
C  C274  1  0.13244000  0.90639000  0.45996000  1.0 -0.0284072156
C  C275  1  0.79911000  0.23972000  0.79329000  1.0 -0.0284072156
C  C276  1  0.46578000  0.57305000  0.12662000  1.0 -0.0284072156
C  C277  1  0.11639000  0.86527000  0.45041000  1.0 -0.0433835446
C  C278  1  0.78305000  0.19861000  0.78375000  1.0 -0.0433835446
C  C279  1  0.44972000  0.53194000  0.11708000  1.0 -0.0433835446
C  C280  1  0.08307000  0.83843000  0.44063000  1.0 -0.0695184293
C  C281  1  0.74973000  0.17177000  0.77397000  1.0 -0.0695184293
C  C282  1  0.41640000  0.50510000  0.10730000  1.0 -0.0695184293
C  C283  1  0.06680000  0.79820000  0.43060000  1.0 -0.1215669931
C  C284  1  0.73347000  0.13153000  0.76393000  1.0 -0.1215669931
C  C285  1  0.40013000  0.46487000  0.09727000  1.0 -0.1215669931
C  C286  1  0.08350000  0.78329000  0.43010000  1.0 -0.0904253743
C  C287  1  0.75016000  0.11663000  0.76344000  1.0 -0.0904253743
C  C288  1  0.41683000  0.44996000  0.09677000  1.0 -0.0904253743
C  C289  1  0.11677000  0.80973000  0.43963000  1.0 -0.1215669931
C  C290  1  0.78343000  0.14307000  0.77297000  1.0 -0.1215669931
C  C291  1  0.45010000  0.47640000  0.10630000  1.0 -0.1215669931
C  C292  1  0.13230000  0.84860000  0.45130000  1.0 -0.0591473544
C  C293  1  0.79897000  0.18193000  0.78463000  1.0 -0.0591473544
C  C294  1  0.46563000  0.51527000  0.11797000  1.0 -0.0591473544
C  C295  1  0.06836000  0.74222000  0.41954000  1.0 -0.0284072156
C  C296  1  0.73503000  0.07555000  0.75287000  1.0 -0.0284072156
C  C297  1  0.40169000  0.40889000  0.08621000  1.0 -0.0284072156
C  C298  1  0.03447000  0.71464000  0.40213000  1.0 -0.0695184293
C  C299  1  0.70114000  0.04797000  0.73546000  1.0 -0.0695184293
C  C300  1  0.36780000  0.38131000  0.06880000  1.0 -0.0695184293
C  C301  1  0.01881000  0.67491000  0.38969000  1.0 -0.0591473544
C  C302  1  0.68547000  0.00825000  0.72303000  1.0 -0.0591473544
C  C303  1  0.35214000  0.34158000  0.05636000  1.0 -0.0591473544
C  C304  1  0.03516000  0.65961000  0.39549000  1.0 -0.0181897998
C  C305  1  0.70182000  0.99295000  0.72883000  1.0 -0.0181897998
C  C306  1  0.36849000  0.32628000  0.06216000  1.0 -0.0181897998
C  C307  1  0.06892000  0.68706000  0.41364000  1.0 0.0036317377
C  C308  1  0.73558000  0.02040000  0.74698000  1.0 0.0036317377
C  C309  1  0.40225000  0.35373000  0.08031000  1.0 0.0036317377
C  C310  1  0.08505000  0.72719000  0.42565000  1.0 0.0145869069
C  C311  1  0.75171000  0.06053000  0.75899000  1.0 0.0145869069
C  C312  1  0.41838000  0.39386000  0.09232000  1.0 0.0145869069
C  C313  1  0.20671000  0.00582000  0.55939000  1.0 0.0190146148
C  C314  1  0.87338000  0.33915000  0.89272000  1.0 0.0190146148
C  C315  1  0.54004000  0.67249000  0.22606000  1.0 0.0190146148
C  C316  1  0.21625000  0.99931000  0.58445000  1.0 -0.0433835446
C  C317  1  0.88292000  0.33264000  0.91778000  1.0 -0.0503810213
C  C318  1  0.54959000  0.66597000  0.25111000  1.0 -0.0433835446
C  C319  1  0.22603000  0.97577000  0.57797000  1.0 -0.0985845673
C  C320  1  0.89270000  0.30910000  0.91130000  1.0 -0.0985845673
C  C321  1  0.55937000  0.64243000  0.24463000  1.0 -0.0985845673
C  C322  1  0.23607000  0.96953000  0.60193000  1.0 -0.1555692435
C  C323  1  0.90273000  0.30287000  0.93527000  1.0 -0.1555692435
C  C324  1  0.56940000  0.63620000  0.26860000  1.0 -0.1555692435
C  C325  1  0.23656000  0.98673000  0.63354000  1.0 -0.1389708346
C  C326  1  0.90323000  0.32006000  0.96687000  1.0 -0.1342270564
C  C327  1  0.56990000  0.65339000  0.30020000  1.0 -0.1342270564
C  C328  1  0.22703000  0.01047000  0.64037000  1.0 -0.1389708346
C  C329  1  0.89370000  0.34380000  0.97370000  1.0 -0.1389708346
C  C330  1  0.56037000  0.67713000  0.30703000  1.0 -0.1389708346
C  C331  1  0.21537000  0.01433000  0.61703000  1.0 -0.0904253743
C  C332  1  0.88203000  0.34767000  0.95037000  1.0 -0.0904253743
C  C333  1  0.54870000  0.68100000  0.28370000  1.0 -0.0904253743
C  C334  1  0.24713000  0.98215000  0.65947000  1.0 -0.0904253743
C  C335  1  0.91379000  0.31549000  0.99281000  1.0 -0.0904253743
C  C336  1  0.58046000  0.64882000  0.32614000  1.0 -0.0904253743
C  C337  1  0.26454000  0.96567000  0.65316000  1.0 -0.1485797433
C  C338  1  0.93120000  0.29901000  0.98650000  1.0 -0.1485797433
C  C339  1  0.59787000  0.63234000  0.31983000  1.0 -0.1485797433
C  C340  1  0.27697000  0.96245000  0.67723000  1.0 -0.0985845673
C  C341  1  0.94364000  0.29578000  0.01056000  1.0 -0.0985845673
C  C342  1  0.61031000  0.62911000  0.34389000  1.0 -0.0985845673
C  C343  1  0.27117000  0.97300000  0.70888000  1.0 -0.0092100019
C  C344  1  0.93784000  0.30633000  0.04221000  1.0 -0.0092100019
C  C345  1  0.60451000  0.63966000  0.37554000  1.0 -0.0092100019
C  C346  1  0.25302000  0.98861000  0.71519000  1.0 -0.0092100019
C  C347  1  0.91969000  0.32194000  0.04852000  1.0 -0.0092100019
C  C348  1  0.58636000  0.65527000  0.38185000  1.0 -0.0092100019
C  C349  1  0.24101000  0.99273000  0.69119000  1.0 -0.0092100019
C  C350  1  0.90768000  0.32606000  0.02452000  1.0 -0.0092100019
C  C351  1  0.57435000  0.65939000  0.35785000  1.0 -0.0092100019
C  C352  1  0.85701000  0.94792000  0.50149000  1.0 0.0190146148
C  C353  1  0.52368000  0.28125000  0.83482000  1.0 0.0190146148
C  C354  1  0.19034000  0.61459000  0.16816000  1.0 0.0190146148
C  C355  1  0.86102000  0.92134000  0.50648000  1.0 -0.0503810213
C  C356  1  0.52769000  0.25467000  0.83981000  1.0 -0.0503810213
C  C357  1  0.19435000  0.58801000  0.17315000  1.0 -0.0503810213
C  C358  1  0.84317000  0.88233000  0.48453000  1.0 -0.0904253743
C  C359  1  0.50983000  0.21567000  0.81787000  1.0 -0.0904253743
C  C360  1  0.17650000  0.54900000  0.15120000  1.0 -0.0904253743
C  C361  1  0.84700000  0.85600000  0.48840000  1.0 -0.1485797433
C  C362  1  0.51367000  0.18933000  0.82173000  1.0 -0.1389708346
C  C363  1  0.18033000  0.52267000  0.15507000  1.0 -0.1485797433
C  C364  1  0.86900000  0.86789000  0.51470000  1.0 -0.1389708346
C  C365  1  0.53566000  0.20123000  0.84804000  1.0 -0.1389708346
C  C366  1  0.20233000  0.53456000  0.18137000  1.0 -0.1389708346
C  C367  1  0.88710000  0.90680000  0.53670000  1.0 -0.1215669931
C  C368  1  0.55377000  0.24013000  0.87003000  1.0 -0.1215669931
C  C369  1  0.22043000  0.57347000  0.20337000  1.0 -0.1215669931
C  C370  1  0.88190000  0.93140000  0.53410000  1.0 -0.0985845673
C  C371  1  0.54857000  0.26473000  0.86743000  1.0 -0.0985845673
C  C372  1  0.21523000  0.59807000  0.20077000  1.0 -0.0985845673
C  C373  1  0.87459000  0.84259000  0.51991000  1.0 -0.0985845673
C  C374  1  0.54126000  0.17592000  0.85324000  1.0 -0.0985845673
C  C375  1  0.20793000  0.50925000  0.18657000  1.0 -0.0985845673
C  C376  1  0.86150000  0.80531000  0.49280000  1.0 -0.1485797433
C  C377  1  0.52817000  0.13864000  0.82613000  1.0 -0.1485797433
C  C378  1  0.19484000  0.47197000  0.15946000  1.0 -0.1485797433
C  C379  1  0.86737000  0.78055000  0.49533000  1.0 -0.1389708346
C  C380  1  0.53404000  0.11388000  0.82866000  1.0 -0.1389708346
C  C381  1  0.20071000  0.44721000  0.16199000  1.0 -0.1485797433
C  C382  1  0.88496000  0.78986000  0.52574000  1.0 -0.0695184293
C  C383  1  0.55162000  0.12320000  0.85908000  1.0 -0.0770086525
C  C384  1  0.21829000  0.45653000  0.19241000  1.0 -0.0770086525
C  C385  1  0.89747000  0.82672000  0.55330000  1.0 -0.0009323144
C  C386  1  0.56413000  0.16006000  0.88664000  1.0 -0.0009323144
C  C387  1  0.23080000  0.49339000  0.21997000  1.0 -0.0009323144
C  C388  1  0.89221000  0.85223000  0.55069000  1.0 -0.0284072156
C  C389  1  0.55888000  0.18556000  0.88402000  1.0 -0.0284072156
C  C390  1  0.22555000  0.51889000  0.21735000  1.0 -0.0284072156
C  C391  1  0.83184000  0.02219000  0.57576000  1.0 -0.0284072156
C  C392  1  0.49851000  0.35552000  0.90909000  1.0 -0.0284072156
C  C393  1  0.16518000  0.68885000  0.24242000  1.0 -0.0284072156
C  C394  1  0.82685000  0.02121000  0.60635000  1.0 -0.0433835446
C  C395  1  0.49352000  0.35454000  0.93968000  1.0 -0.0433835446
C  C396  1  0.16019000  0.68787000  0.27301000  1.0 -0.0433835446
C  C397  1  0.84880000  0.02530000  0.62750000  1.0 -0.0695184293
C  C398  1  0.51547000  0.35863000  0.96083000  1.0 -0.0695184293
C  C399  1  0.18213000  0.69197000  0.29417000  1.0 -0.0695184293
C  C400  1  0.84493000  0.02527000  0.65767000  1.0 -0.1215669931
C  C401  1  0.51160000  0.35860000  0.99100000  1.0 -0.1215669931
C  C402  1  0.17827000  0.69193000  0.32433000  1.0 -0.1215669931
C  C403  1  0.81863000  0.02096000  0.66777000  1.0 -0.0904253743
C  C404  1  0.48530000  0.35429000  0.00110000  1.0 -0.0904253743
C  C405  1  0.15196000  0.68763000  0.33444000  1.0 -0.0904253743
C  C406  1  0.79663000  0.01707000  0.64697000  1.0 -0.1215669931
C  C407  1  0.46330000  0.35040000  0.98030000  1.0 -0.1215669931
C  C408  1  0.12997000  0.68373000  0.31363000  1.0 -0.1215669931
C  C409  1  0.79923000  0.01447000  0.61717000  1.0 -0.0591473544
C  C410  1  0.46590000  0.34780000  0.95050000  1.0 -0.0591473544
C  C411  1  0.13257000  0.68113000  0.28383000  1.0 -0.0591473544
C  C412  1  0.81343000  0.02135000  0.69867000  1.0 -0.0284072156
C  C413  1  0.48009000  0.35469000  0.03201000  1.0 -0.0284072156
C  C414  1  0.14676000  0.68802000  0.36534000  1.0 -0.0284072156
C  C415  1  0.84054000  0.03537000  0.72286000  1.0 -0.0695184293
C  C416  1  0.50720000  0.36871000  0.05620000  1.0 -0.0695184293
C  C417  1  0.17387000  0.70204000  0.38953000  1.0 -0.0695184293
C  C418  1  0.83801000  0.03871000  0.75349000  1.0 -0.0591473544
C  C419  1  0.50467000  0.37205000  0.08683000  1.0 -0.0591473544
C  C420  1  0.17134000  0.70538000  0.42016000  1.0 -0.0591473544
C  C421  1  0.80759000  0.02588000  0.76176000  1.0 -0.0181897998
C  C422  1  0.47426000  0.35921000  0.09509000  1.0 -0.0181897998
C  C423  1  0.14092000  0.69255000  0.42843000  1.0 -0.0181897998
C  C424  1  0.78003000  0.01083000  0.73741000  1.0 0.0036317377
C  C425  1  0.44670000  0.34416000  0.07074000  1.0 0.0036317377
C  C426  1  0.11336000  0.67750000  0.40408000  1.0 0.0036317377
C  C427  1  0.78265000  0.00819000  0.70665000  1.0 0.0145869069
C  C428  1  0.44931000  0.34153000  0.03999000  1.0 0.0145869069
C  C429  1  0.11598000  0.67486000  0.37332000  1.0 0.0145869069
C  C430  1  0.75758000  0.92275000  0.47632000  1.0 0.0190146148
C  C431  1  0.42424000  0.25609000  0.80966000  1.0 0.0190146148
C  C432  1  0.09091000  0.58942000  0.14299000  1.0 0.0190146148
C  C433  1  0.72699000  0.88717000  0.47231000  1.0 -0.0433835446
C  C434  1  0.39365000  0.22051000  0.80565000  1.0 -0.0503810213
C  C435  1  0.06032000  0.55384000  0.13898000  1.0 -0.0433835446
C  C436  1  0.70583000  0.88797000  0.49017000  1.0 -0.0985845673
C  C437  1  0.37250000  0.22130000  0.82350000  1.0 -0.0985845673
C  C438  1  0.03917000  0.55463000  0.15683000  1.0 -0.0985845673
C  C439  1  0.67567000  0.85393000  0.48633000  1.0 -0.1555692435
C  C440  1  0.34233000  0.18727000  0.81967000  1.0 -0.1555692435
C  C441  1  0.00900000  0.52060000  0.15300000  1.0 -0.1555692435
C  C442  1  0.66556000  0.81753000  0.46434000  1.0 -0.1342270564
C  C443  1  0.33223000  0.15086000  0.79767000  1.0 -0.1389708346
C  C444  1  0.99890000  0.48419000  0.13100000  1.0 -0.1389708346
C  C445  1  0.68637000  0.81633000  0.44623000  1.0 -0.1389708346
C  C446  1  0.35303000  0.14967000  0.77957000  1.0 -0.1389708346
C  C447  1  0.01970000  0.48300000  0.11290000  1.0 -0.1389708346
C  C448  1  0.71617000  0.84873000  0.45143000  1.0 -0.0904253743
C  C449  1  0.38283000  0.18207000  0.78477000  1.0 -0.0904253743
C  C450  1  0.04950000  0.51540000  0.11810000  1.0 -0.0904253743
C  C451  1  0.63466000  0.78142000  0.45874000  1.0 -0.0904253743
C  C452  1  0.30133000  0.11475000  0.79207000  1.0 -0.0985845673
C  C453  1  0.96799000  0.44809000  0.12541000  1.0 -0.0904253743
C  C454  1  0.61047000  0.78434000  0.47183000  1.0 -0.1485797433
C  C455  1  0.27714000  0.11767000  0.80516000  1.0 -0.1555692435
C  C456  1  0.94380000  0.45101000  0.13850000  1.0 -0.1485797433
C  C457  1  0.57984000  0.75118000  0.46596000  1.0 -0.0985845673
C  C458  1  0.24651000  0.08451000  0.79929000  1.0 -0.0985845673
C  C459  1  0.91317000  0.41785000  0.13263000  1.0 -0.0985845673
C  C460  1  0.57157000  0.71250000  0.44838000  1.0 -0.0092100019
C  C461  1  0.23824000  0.04583000  0.78171000  1.0 -0.0092100019
C  C462  1  0.90491000  0.37916000  0.11504000  1.0 -0.0092100019
C  C463  1  0.59592000  0.70929000  0.43587000  1.0 -0.0092100019
C  C464  1  0.26259000  0.04262000  0.76920000  1.0 -0.0092100019
C  C465  1  0.92926000  0.37595000  0.10253000  1.0 -0.0092100019
C  C466  1  0.62668000  0.74266000  0.44112000  1.0 -0.0092100019
C  C467  1  0.29335000  0.07599000  0.77445000  1.0 -0.0092100019
C  C468  1  0.96001000  0.40933000  0.10779000  1.0 -0.0092100019
C  C469  1  0.35701000  0.35552000  0.40909000  1.0 -0.0284072156
C  C470  1  0.02368000  0.68885000  0.74242000  1.0 -0.0284072156
C  C471  1  0.69034000  0.02219000  0.07576000  1.0 -0.0284072156
C  C472  1  0.36102000  0.35454000  0.43968000  1.0 -0.0433835446
C  C473  1  0.02769000  0.68787000  0.77301000  1.0 -0.0433835446
C  C474  1  0.69435000  0.02121000  0.10635000  1.0 -0.0433835446
C  C475  1  0.34317000  0.35863000  0.46083000  1.0 -0.0695184293
C  C476  1  0.00983000  0.69197000  0.79417000  1.0 -0.0695184293
C  C477  1  0.67650000  0.02530000  0.12750000  1.0 -0.0695184293
C  C478  1  0.34700000  0.35860000  0.49100000  1.0 -0.1215669931
C  C479  1  0.01367000  0.69193000  0.82433000  1.0 -0.1215669931
C  C480  1  0.68033000  0.02527000  0.15767000  1.0 -0.1215669931
C  C481  1  0.36900000  0.35429000  0.50110000  1.0 -0.0904253743
C  C482  1  0.03566000  0.68763000  0.83444000  1.0 -0.0904253743
C  C483  1  0.70233000  0.02096000  0.16777000  1.0 -0.0904253743
C  C484  1  0.38710000  0.35040000  0.48030000  1.0 -0.1215669931
C  C485  1  0.05377000  0.68373000  0.81363000  1.0 -0.1215669931
C  C486  1  0.72043000  0.01707000  0.14697000  1.0 -0.1215669931
C  C487  1  0.38190000  0.34780000  0.45050000  1.0 -0.0591473544
C  C488  1  0.04857000  0.68113000  0.78383000  1.0 -0.0591473544
C  C489  1  0.71523000  0.01447000  0.11717000  1.0 -0.0591473544
C  C490  1  0.37459000  0.35469000  0.53201000  1.0 -0.0284072156
C  C491  1  0.04126000  0.68802000  0.86534000  1.0 -0.0284072156
C  C492  1  0.70793000  0.02135000  0.19867000  1.0 -0.0284072156
C  C493  1  0.36150000  0.36871000  0.55620000  1.0 -0.0695184293
C  C494  1  0.02817000  0.70204000  0.88953000  1.0 -0.0695184293
C  C495  1  0.69484000  0.03537000  0.22286000  1.0 -0.0695184293
C  C496  1  0.36737000  0.37205000  0.58683000  1.0 -0.0591473544
C  C497  1  0.03404000  0.70538000  0.92016000  1.0 -0.0591473544
C  C498  1  0.70071000  0.03871000  0.25349000  1.0 -0.0591473544
C  C499  1  0.38496000  0.35921000  0.59509000  1.0 -0.0181897998
C  C500  1  0.05162000  0.69255000  0.92843000  1.0 -0.0181897998
C  C501  1  0.71829000  0.02588000  0.26176000  1.0 -0.0181897998
C  C502  1  0.39747000  0.34416000  0.57074000  1.0 0.0036317377
C  C503  1  0.06413000  0.67750000  0.90408000  1.0 0.0036317377
C  C504  1  0.73080000  0.01083000  0.23741000  1.0 0.0036317377
C  C505  1  0.39221000  0.34153000  0.53999000  1.0 0.0145869069
C  C506  1  0.05888000  0.67486000  0.87332000  1.0 0.0145869069
C  C507  1  0.72555000  0.00819000  0.20665000  1.0 0.0145869069
C  C508  1  0.33184000  0.25609000  0.30966000  1.0 0.0190146148
C  C509  1  0.99851000  0.58942000  0.64299000  1.0 0.0190146148
C  C510  1  0.66518000  0.92275000  0.97632000  1.0 0.0190146148
C  C511  1  0.32685000  0.22051000  0.30565000  1.0 -0.0433835446
C  C512  1  0.99352000  0.55384000  0.63898000  1.0 -0.0433835446
C  C513  1  0.66019000  0.88717000  0.97231000  1.0 -0.0503810213
C  C514  1  0.34880000  0.22130000  0.32350000  1.0 -0.0985845673
C  C515  1  0.01547000  0.55463000  0.65683000  1.0 -0.0985845673
C  C516  1  0.68213000  0.88797000  0.99017000  1.0 -0.0985845673
C  C517  1  0.34493000  0.18727000  0.31967000  1.0 -0.1555692435
C  C518  1  0.01160000  0.52060000  0.65300000  1.0 -0.1555692435
C  C519  1  0.67827000  0.85393000  0.98633000  1.0 -0.1555692435
C  C520  1  0.31863000  0.15086000  0.29767000  1.0 -0.1389708346
C  C521  1  0.98530000  0.48419000  0.63100000  1.0 -0.1342270564
C  C522  1  0.65196000  0.81753000  0.96434000  1.0 -0.1342270564
C  C523  1  0.29663000  0.14967000  0.27957000  1.0 -0.1389708346
C  C524  1  0.96330000  0.48300000  0.61290000  1.0 -0.1389708346
C  C525  1  0.62997000  0.81633000  0.94623000  1.0 -0.1389708346
C  C526  1  0.29923000  0.18207000  0.28477000  1.0 -0.0904253743
C  C527  1  0.96590000  0.51540000  0.61810000  1.0 -0.0904253743
C  C528  1  0.63257000  0.84873000  0.95143000  1.0 -0.0904253743
C  C529  1  0.31343000  0.11475000  0.29207000  1.0 -0.0904253743
C  C530  1  0.98009000  0.44809000  0.62541000  1.0 -0.0904253743
C  C531  1  0.64676000  0.78142000  0.95874000  1.0 -0.0904253743
C  C532  1  0.34054000  0.11767000  0.30516000  1.0 -0.1485797433
C  C533  1  0.00720000  0.45101000  0.63850000  1.0 -0.1485797433
C  C534  1  0.67387000  0.78434000  0.97183000  1.0 -0.1485797433
C  C535  1  0.33801000  0.08451000  0.29929000  1.0 -0.0985845673
C  C536  1  0.00467000  0.41785000  0.63263000  1.0 -0.0985845673
C  C537  1  0.67134000  0.75118000  0.96596000  1.0 -0.0985845673
C  C538  1  0.30759000  0.04583000  0.28171000  1.0 -0.0092100019
C  C539  1  0.97426000  0.37916000  0.61504000  1.0 -0.0092100019
C  C540  1  0.64092000  0.71250000  0.94838000  1.0 -0.0092100019
C  C541  1  0.28003000  0.04262000  0.26920000  1.0 -0.0092100019
C  C542  1  0.94670000  0.37595000  0.60253000  1.0 -0.0092100019
C  C543  1  0.61336000  0.70929000  0.93587000  1.0 -0.0092100019
C  C544  1  0.28265000  0.07599000  0.27445000  1.0 -0.0092100019
C  C545  1  0.94931000  0.40933000  0.60779000  1.0 -0.0092100019
C  C546  1  0.61598000  0.74266000  0.94112000  1.0 -0.0092100019
C  C547  1  0.25758000  0.28125000  0.33482000  1.0 0.0190146148
C  C548  1  0.92424000  0.61459000  0.66816000  1.0 0.0190146148
C  C549  1  0.59091000  0.94792000  0.00149000  1.0 0.0190146148
C  C550  1  0.22699000  0.25467000  0.33981000  1.0 -0.0503810213
C  C551  1  0.89365000  0.58801000  0.67315000  1.0 -0.0503810213
C  C552  1  0.56032000  0.92134000  0.00648000  1.0 -0.0503810213
C  C553  1  0.20583000  0.21567000  0.31787000  1.0 -0.0904253743
C  C554  1  0.87250000  0.54900000  0.65120000  1.0 -0.0904253743
C  C555  1  0.53917000  0.88233000  0.98453000  1.0 -0.0904253743
C  C556  1  0.17567000  0.18933000  0.32173000  1.0 -0.1485797433
C  C557  1  0.84233000  0.52267000  0.65507000  1.0 -0.1485797433
C  C558  1  0.50900000  0.85600000  0.98840000  1.0 -0.1485797433
C  C559  1  0.16556000  0.20123000  0.34804000  1.0 -0.1389708346
C  C560  1  0.83223000  0.53456000  0.68137000  1.0 -0.1389708346
C  C561  1  0.49890000  0.86789000  0.01470000  1.0 -0.1389708346
C  C562  1  0.18637000  0.24013000  0.37003000  1.0 -0.1215669931
C  C563  1  0.85303000  0.57347000  0.70337000  1.0 -0.1215669931
C  C564  1  0.51970000  0.90680000  0.03670000  1.0 -0.1215669931
C  C565  1  0.21617000  0.26473000  0.36743000  1.0 -0.0985845673
C  C566  1  0.88283000  0.59807000  0.70077000  1.0 -0.0985845673
C  C567  1  0.54950000  0.93140000  0.03410000  1.0 -0.0904253743
C  C568  1  0.13466000  0.17592000  0.35324000  1.0 -0.0985845673
C  C569  1  0.80133000  0.50925000  0.68657000  1.0 -0.0985845673
C  C570  1  0.46799000  0.84259000  0.01991000  1.0 -0.0985845673
C  C571  1  0.11047000  0.13864000  0.32613000  1.0 -0.1485797433
C  C572  1  0.77714000  0.47197000  0.65946000  1.0 -0.1485797433
C  C573  1  0.44380000  0.80531000  0.99280000  1.0 -0.1485797433
C  C574  1  0.07984000  0.11388000  0.32866000  1.0 -0.1485797433
C  C575  1  0.74651000  0.44721000  0.66199000  1.0 -0.1389708346
C  C576  1  0.41317000  0.78055000  0.99533000  1.0 -0.1389708346
C  C577  1  0.07157000  0.12320000  0.35908000  1.0 -0.0770086525
C  C578  1  0.73824000  0.45653000  0.69241000  1.0 -0.0770086525
C  C579  1  0.40491000  0.78986000  0.02574000  1.0 -0.0770086525
C  C580  1  0.09592000  0.16006000  0.38664000  1.0 -0.0009323144
C  C581  1  0.76259000  0.49339000  0.71997000  1.0 -0.0009323144
C  C582  1  0.42926000  0.82672000  0.05330000  1.0 -0.0009323144
C  C583  1  0.12668000  0.18556000  0.38402000  1.0 -0.0284072156
C  C584  1  0.79335000  0.51889000  0.71735000  1.0 -0.0284072156
C  C585  1  0.46001000  0.85223000  0.05069000  1.0 -0.0284072156
C  C586  1  0.94061000  0.23972000  0.29329000  1.0 -0.0284072156
C  C587  1  0.60728000  0.57305000  0.62662000  1.0 -0.0284072156
C  C588  1  0.27394000  0.90639000  0.95996000  1.0 -0.0284072156
C  C589  1  0.91555000  0.19861000  0.28375000  1.0 -0.0433835446
C  C590  1  0.58222000  0.53194000  0.61708000  1.0 -0.0433835446
C  C591  1  0.24889000  0.86527000  0.95041000  1.0 -0.0433835446
C  C592  1  0.92203000  0.17177000  0.27397000  1.0 -0.0695184293
C  C593  1  0.58870000  0.50510000  0.60730000  1.0 -0.0695184293
C  C594  1  0.25537000  0.83843000  0.94063000  1.0 -0.0695184293
C  C595  1  0.89807000  0.13153000  0.26393000  1.0 -0.1215669931
C  C596  1  0.56473000  0.46487000  0.59727000  1.0 -0.1215669931
C  C597  1  0.23140000  0.79820000  0.93060000  1.0 -0.1215669931
C  C598  1  0.86646000  0.11663000  0.26344000  1.0 -0.0904253743
C  C599  1  0.53313000  0.44996000  0.59677000  1.0 -0.0904253743
C  C600  1  0.19980000  0.78329000  0.93010000  1.0 -0.0904253743
C  C601  1  0.85963000  0.14307000  0.27297000  1.0 -0.1215669931
C  C602  1  0.52630000  0.47640000  0.60630000  1.0 -0.1215669931
C  C603  1  0.19297000  0.80973000  0.93963000  1.0 -0.1215669931
C  C604  1  0.88297000  0.18193000  0.28463000  1.0 -0.0591473544
C  C605  1  0.54963000  0.51527000  0.61797000  1.0 -0.0591473544
C  C606  1  0.21630000  0.84860000  0.95130000  1.0 -0.0591473544
C  C607  1  0.84053000  0.07555000  0.25287000  1.0 -0.0284072156
C  C608  1  0.50719000  0.40889000  0.58621000  1.0 -0.0284072156
C  C609  1  0.17386000  0.74222000  0.91954000  1.0 -0.0284072156
C  C610  1  0.84684000  0.04797000  0.23546000  1.0 -0.0695184293
C  C611  1  0.51350000  0.38131000  0.56880000  1.0 -0.0695184293
C  C612  1  0.18017000  0.71464000  0.90213000  1.0 -0.0695184293
C  C613  1  0.82277000  0.00825000  0.22303000  1.0 -0.0591473544
C  C614  1  0.48944000  0.34158000  0.55636000  1.0 -0.0591473544
C  C615  1  0.15611000  0.67491000  0.88969000  1.0 -0.0591473544
C  C616  1  0.79112000  0.99295000  0.22883000  1.0 -0.0181897998
C  C617  1  0.45779000  0.32628000  0.56216000  1.0 -0.0181897998
C  C618  1  0.12446000  0.65961000  0.89549000  1.0 -0.0181897998
C  C619  1  0.78481000  0.02040000  0.24698000  1.0 0.0036317377
C  C620  1  0.45148000  0.35373000  0.58031000  1.0 0.0036317377
C  C621  1  0.11815000  0.68706000  0.91364000  1.0 0.0036317377
C  C622  1  0.80881000  0.06053000  0.25899000  1.0 0.0145869069
C  C623  1  0.47548000  0.39386000  0.59232000  1.0 0.0145869069
C  C624  1  0.14215000  0.72719000  0.92565000  1.0 0.0145869069
C  C625  1  0.96578000  0.33915000  0.39272000  1.0 0.0190146148
C  C626  1  0.63244000  0.67249000  0.72606000  1.0 0.0190146148
C  C627  1  0.29911000  0.00582000  0.05939000  1.0 0.0190146148
C  C628  1  0.94972000  0.33264000  0.41778000  1.0 -0.0503810213
C  C629  1  0.61639000  0.66597000  0.75111000  1.0 -0.0433835446
C  C630  1  0.28305000  0.99931000  0.08445000  1.0 -0.0433835446
C  C631  1  0.91640000  0.30910000  0.41130000  1.0 -0.0985845673
C  C632  1  0.58307000  0.64243000  0.74463000  1.0 -0.0985845673
C  C633  1  0.24973000  0.97577000  0.07797000  1.0 -0.0985845673
C  C634  1  0.90013000  0.30287000  0.43527000  1.0 -0.1555692435
C  C635  1  0.56680000  0.63620000  0.76860000  1.0 -0.1555692435
C  C636  1  0.23347000  0.96953000  0.10193000  1.0 -0.1555692435
C  C637  1  0.91683000  0.32006000  0.46687000  1.0 -0.1389708346
C  C638  1  0.58350000  0.65339000  0.80020000  1.0 -0.1342270564
C  C639  1  0.25016000  0.98673000  0.13354000  1.0 -0.1389708346
C  C640  1  0.95010000  0.34380000  0.47370000  1.0 -0.1389708346
C  C641  1  0.61677000  0.67713000  0.80703000  1.0 -0.1389708346
C  C642  1  0.28343000  0.01047000  0.14037000  1.0 -0.1389708346
C  C643  1  0.96563000  0.34767000  0.45037000  1.0 -0.0904253743
C  C644  1  0.63230000  0.68100000  0.78370000  1.0 -0.0904253743
C  C645  1  0.29897000  0.01433000  0.11703000  1.0 -0.0904253743
C  C646  1  0.90169000  0.31549000  0.49281000  1.0 -0.0904253743
C  C647  1  0.56836000  0.64882000  0.82614000  1.0 -0.0904253743
C  C648  1  0.23503000  0.98215000  0.15947000  1.0 -0.0904253743
C  C649  1  0.86780000  0.29901000  0.48650000  1.0 -0.1485797433
C  C650  1  0.53447000  0.63234000  0.81983000  1.0 -0.1485797433
C  C651  1  0.20114000  0.96567000  0.15316000  1.0 -0.1485797433
C  C652  1  0.85214000  0.29578000  0.51056000  1.0 -0.0985845673
C  C653  1  0.51881000  0.62911000  0.84389000  1.0 -0.0985845673
C  C654  1  0.18547000  0.96245000  0.17723000  1.0 -0.0985845673
C  C655  1  0.86849000  0.30633000  0.54221000  1.0 -0.0092100019
C  C656  1  0.53516000  0.63966000  0.87554000  1.0 -0.0092100019
C  C657  1  0.20182000  0.97300000  0.20888000  1.0 -0.0092100019
C  C658  1  0.90225000  0.32194000  0.54852000  1.0 -0.0092100019
C  C659  1  0.56892000  0.65527000  0.88185000  1.0 -0.0092100019
C  C660  1  0.23558000  0.98861000  0.21519000  1.0 -0.0092100019
C  C661  1  0.91838000  0.32606000  0.52452000  1.0 -0.0092100019
C  C662  1  0.58505000  0.65939000  0.85785000  1.0 -0.0092100019
C  C663  1  0.25171000  0.99273000  0.19119000  1.0 -0.0092100019
C  C664  1  0.04004000  0.31399000  0.36756000  1.0 0.0145869069
C  C665  1  0.70671000  0.64732000  0.70089000  1.0 0.0190146148
C  C666  1  0.37338000  0.98065000  0.03422000  1.0 0.0190146148
C  C667  1  0.04959000  0.29847000  0.38361000  1.0 -0.0503810213
C  C668  1  0.71625000  0.63181000  0.71695000  1.0 -0.0503810213
C  C669  1  0.38292000  0.96514000  0.05028000  1.0 -0.0503810213
C  C670  1  0.05937000  0.31473000  0.41693000  1.0 -0.0904253743
C  C671  1  0.72603000  0.64807000  0.75027000  1.0 -0.0904253743
C  C672  1  0.39270000  0.98140000  0.08360000  1.0 -0.0904253743
C  C673  1  0.06940000  0.30080000  0.43320000  1.0 -0.1389708346
C  C674  1  0.73607000  0.63413000  0.76653000  1.0 -0.1485797433
C  C675  1  0.40273000  0.96747000  0.09987000  1.0 -0.1485797433
C  C676  1  0.06990000  0.26969000  0.41650000  1.0 -0.1389708346
C  C677  1  0.73656000  0.60303000  0.74984000  1.0 -0.1389708346
C  C678  1  0.40323000  0.93636000  0.08317000  1.0 -0.1389708346
C  C679  1  0.06037000  0.25333000  0.38323000  1.0 -0.1215669931
C  C680  1  0.72703000  0.58667000  0.71657000  1.0 -0.1215669931
C  C681  1  0.39370000  0.92000000  0.04990000  1.0 -0.1215669931
C  C682  1  0.04870000  0.26500000  0.36770000  1.0 -0.0985845673
C  C683  1  0.71537000  0.59833000  0.70103000  1.0 -0.0985845673
C  C684  1  0.38203000  0.93167000  0.03437000  1.0 -0.0985845673
C  C685  1  0.08046000  0.25432000  0.43164000  1.0 -0.0985845673
C  C686  1  0.74713000  0.58765000  0.76497000  1.0 -0.0985845673
C  C687  1  0.41379000  0.92099000  0.09831000  1.0 -0.0985845673
C  C688  1  0.09787000  0.27804000  0.46553000  1.0 -0.1485797433
C  C689  1  0.76454000  0.61137000  0.79886000  1.0 -0.1485797433
C  C690  1  0.43120000  0.94471000  0.13220000  1.0 -0.1485797433
C  C691  1  0.11031000  0.26641000  0.48119000  1.0 -0.1485797433
C  C692  1  0.77697000  0.59975000  0.81453000  1.0 -0.1389708346
C  C693  1  0.44364000  0.93308000  0.14786000  1.0 -0.1485797433
C  C694  1  0.10451000  0.22896000  0.46484000  1.0 -0.0770086525
C  C695  1  0.77117000  0.56230000  0.79818000  1.0 -0.0770086525
C  C696  1  0.43784000  0.89563000  0.13151000  1.0 -0.0770086525
C  C697  1  0.08636000  0.20450000  0.43108000  1.0 -0.0009323144
C  C698  1  0.75302000  0.53784000  0.76442000  1.0 -0.0009323144
C  C699  1  0.41969000  0.87117000  0.09775000  1.0 -0.0009323144
C  C700  1  0.07435000  0.21649000  0.41495000  1.0 -0.0284072156
C  C701  1  0.74101000  0.54983000  0.74829000  1.0 -0.0284072156
C  C702  1  0.40768000  0.88316000  0.08162000  1.0 -0.0284072156
C  C703  1  0.89272000  0.01935000  0.46578000  1.0 0.0190146148
C  C704  1  0.55939000  0.35268000  0.79911000  1.0 0.0190146148
C  C705  1  0.22606000  0.68601000  0.13244000  1.0 0.0190146148
C  C706  1  0.91778000  0.03486000  0.44972000  1.0 -0.0503810213
C  C707  1  0.58445000  0.36819000  0.78305000  1.0 -0.0503810213
C  C708  1  0.25111000  0.70153000  0.11639000  1.0 -0.0503810213
C  C709  1  0.91130000  0.01860000  0.41640000  1.0 -0.0904253743
C  C710  1  0.57797000  0.35193000  0.74973000  1.0 -0.0904253743
C  C711  1  0.24463000  0.68527000  0.08307000  1.0 -0.0904253743
C  C712  1  0.93527000  0.03253000  0.40013000  1.0 -0.1389708346
C  C713  1  0.60193000  0.36587000  0.73347000  1.0 -0.1389708346
C  C714  1  0.26860000  0.69920000  0.06680000  1.0 -0.1485797433
C  C715  1  0.96687000  0.06364000  0.41683000  1.0 -0.1389708346
C  C716  1  0.63354000  0.39697000  0.75016000  1.0 -0.1389708346
C  C717  1  0.30020000  0.73031000  0.08350000  1.0 -0.1389708346
C  C718  1  0.97370000  0.08000000  0.45010000  1.0 -0.1215669931
C  C719  1  0.64037000  0.41333000  0.78343000  1.0 -0.1215669931
C  C720  1  0.30703000  0.74667000  0.11677000  1.0 -0.1215669931
C  C721  1  0.95037000  0.06833000  0.46563000  1.0 -0.0985845673
C  C722  1  0.61703000  0.40167000  0.79897000  1.0 -0.0985845673
C  C723  1  0.28370000  0.73500000  0.13230000  1.0 -0.0985845673
C  C724  1  0.99281000  0.07901000  0.40169000  1.0 -0.0985845673
C  C725  1  0.65947000  0.41235000  0.73503000  1.0 -0.0985845673
C  C726  1  0.32614000  0.74568000  0.06836000  1.0 -0.0985845673
C  C727  1  0.98650000  0.05529000  0.36780000  1.0 -0.1485797433
C  C728  1  0.65316000  0.38863000  0.70114000  1.0 -0.1485797433
C  C729  1  0.31983000  0.72196000  0.03447000  1.0 -0.1485797433
C  C730  1  0.01056000  0.06692000  0.35214000  1.0 -0.1389708346
C  C731  1  0.67723000  0.40025000  0.68547000  1.0 -0.1389708346
C  C732  1  0.34389000  0.73359000  0.01881000  1.0 -0.1485797433
C  C733  1  0.04221000  0.10437000  0.36849000  1.0 -0.0770086525
C  C734  1  0.70888000  0.43770000  0.70182000  1.0 -0.0770086525
C  C735  1  0.37554000  0.77104000  0.03516000  1.0 -0.0770086525
C  C736  1  0.04852000  0.12883000  0.40225000  1.0 -0.0009323144
C  C737  1  0.71519000  0.46216000  0.73558000  1.0 -0.0009323144
C  C738  1  0.38185000  0.79550000  0.06892000  1.0 -0.0009323144
C  C739  1  0.02452000  0.11684000  0.41838000  1.0 -0.0284072156
C  C740  1  0.69119000  0.45017000  0.75171000  1.0 -0.0284072156
C  C741  1  0.35785000  0.78351000  0.08505000  1.0 -0.0284072156
C  C742  1  0.86756000  0.09361000  0.54004000  1.0 -0.0284072156
C  C743  1  0.53422000  0.42695000  0.87338000  1.0 -0.0284072156
C  C744  1  0.20089000  0.76028000  0.20671000  1.0 -0.0284072156
C  C745  1  0.88361000  0.13473000  0.54959000  1.0 -0.0433835446
C  C746  1  0.55028000  0.46806000  0.88292000  1.0 -0.0433835446
C  C747  1  0.21695000  0.80139000  0.21625000  1.0 -0.0433835446
C  C748  1  0.91693000  0.16157000  0.55937000  1.0 -0.0695184293
C  C749  1  0.58360000  0.49490000  0.89270000  1.0 -0.0695184293
C  C750  1  0.25027000  0.82823000  0.22603000  1.0 -0.0695184293
C  C751  1  0.93320000  0.20180000  0.56940000  1.0 -0.1215669931
C  C752  1  0.59987000  0.53513000  0.90273000  1.0 -0.1215669931
C  C753  1  0.26653000  0.86847000  0.23607000  1.0 -0.1215669931
C  C754  1  0.91650000  0.21671000  0.56990000  1.0 -0.0904253743
C  C755  1  0.58317000  0.55004000  0.90323000  1.0 -0.0904253743
C  C756  1  0.24984000  0.88337000  0.23656000  1.0 -0.0904253743
C  C757  1  0.88323000  0.19027000  0.56037000  1.0 -0.1215669931
C  C758  1  0.54990000  0.52360000  0.89370000  1.0 -0.1215669931
C  C759  1  0.21657000  0.85693000  0.22703000  1.0 -0.1215669931
C  C760  1  0.86770000  0.15140000  0.54870000  1.0 -0.0591473544
C  C761  1  0.53437000  0.48473000  0.88203000  1.0 -0.0591473544
C  C762  1  0.20103000  0.81807000  0.21537000  1.0 -0.0591473544
C  C763  1  0.93164000  0.25778000  0.58046000  1.0 -0.0284072156
C  C764  1  0.59831000  0.59111000  0.91379000  1.0 -0.0284072156
C  C765  1  0.26497000  0.92445000  0.24713000  1.0 -0.0284072156
C  C766  1  0.96553000  0.28536000  0.59787000  1.0 -0.0695184293
C  C767  1  0.63220000  0.61869000  0.93120000  1.0 -0.0695184293
C  C768  1  0.29886000  0.95203000  0.26454000  1.0 -0.0695184293
C  C769  1  0.98119000  0.32509000  0.61031000  1.0 -0.0591473544
C  C770  1  0.64786000  0.65842000  0.94364000  1.0 -0.0591473544
C  C771  1  0.31453000  0.99175000  0.27697000  1.0 -0.0591473544
C  C772  1  0.96484000  0.34039000  0.60451000  1.0 -0.0181897998
C  C773  1  0.63151000  0.67372000  0.93784000  1.0 -0.0181897998
C  C774  1  0.29818000  0.00705000  0.27117000  1.0 -0.0181897998
C  C775  1  0.93108000  0.31294000  0.58636000  1.0 0.0036317377
C  C776  1  0.59775000  0.64627000  0.91969000  1.0 0.0036317377
C  C777  1  0.26442000  0.97960000  0.25302000  1.0 0.0036317377
C  C778  1  0.91495000  0.27281000  0.57435000  1.0 0.0145869069
C  C779  1  0.58162000  0.60614000  0.90768000  1.0 0.0145869069
C  C780  1  0.24829000  0.93947000  0.24101000  1.0 0.0145869069
C  C781  1  0.79329000  0.99418000  0.44061000  1.0 0.0190146148
C  C782  1  0.45996000  0.32751000  0.77394000  1.0 0.0190146148
C  C783  1  0.12662000  0.66085000  0.10728000  1.0 0.0190146148
C  C784  1  0.78375000  0.00069000  0.41555000  1.0 -0.0433835446
C  C785  1  0.45041000  0.33403000  0.74889000  1.0 -0.0433835446
C  C786  1  0.11708000  0.66736000  0.08222000  1.0 -0.0503810213
C  C787  1  0.77397000  0.02423000  0.42203000  1.0 -0.0985845673
C  C788  1  0.44063000  0.35757000  0.75537000  1.0 -0.0985845673
C  C789  1  0.10730000  0.69090000  0.08870000  1.0 -0.0985845673
C  C790  1  0.76393000  0.03047000  0.39807000  1.0 -0.1555692435
C  C791  1  0.43060000  0.36380000  0.73140000  1.0 -0.1555692435
C  C792  1  0.09727000  0.69713000  0.06473000  1.0 -0.1555692435
C  C793  1  0.76344000  0.01327000  0.36646000  1.0 -0.1389708346
C  C794  1  0.43010000  0.34661000  0.69980000  1.0 -0.1389708346
C  C795  1  0.09677000  0.67994000  0.03313000  1.0 -0.1389708346
C  C796  1  0.77297000  0.98953000  0.35963000  1.0 -0.1389708346
C  C797  1  0.43963000  0.32287000  0.69297000  1.0 -0.1389708346
C  C798  1  0.10630000  0.65620000  0.02630000  1.0 -0.1389708346
C  C799  1  0.78463000  0.98567000  0.38297000  1.0 -0.0904253743
C  C800  1  0.45130000  0.31900000  0.71630000  1.0 -0.0904253743
C  C801  1  0.11797000  0.65233000  0.04963000  1.0 -0.0904253743
C  C802  1  0.75287000  0.01785000  0.34053000  1.0 -0.0904253743
C  C803  1  0.41954000  0.35118000  0.67386000  1.0 -0.0904253743
C  C804  1  0.08621000  0.68451000  0.00719000  1.0 -0.0904253743
C  C805  1  0.73546000  0.03433000  0.34684000  1.0 -0.1485797433
C  C806  1  0.40213000  0.36766000  0.68017000  1.0 -0.1485797433
C  C807  1  0.06880000  0.70099000  0.01350000  1.0 -0.1485797433
C  C808  1  0.72303000  0.03755000  0.32277000  1.0 -0.0985845673
C  C809  1  0.38969000  0.37089000  0.65611000  1.0 -0.0985845673
C  C810  1  0.05636000  0.70422000  0.98944000  1.0 -0.0985845673
C  C811  1  0.72883000  0.02700000  0.29112000  1.0 -0.0092100019
C  C812  1  0.39549000  0.36034000  0.62446000  1.0 -0.0092100019
C  C813  1  0.06216000  0.69367000  0.95779000  1.0 -0.0092100019
C  C814  1  0.74698000  0.01139000  0.28481000  1.0 -0.0092100019
C  C815  1  0.41364000  0.34473000  0.61815000  1.0 -0.0092100019
C  C816  1  0.08031000  0.67806000  0.95148000  1.0 -0.0092100019
C  C817  1  0.75899000  0.00727000  0.30881000  1.0 -0.0092100019
C  C818  1  0.42565000  0.34061000  0.64215000  1.0 -0.0092100019
C  C819  1  0.09232000  0.67394000  0.97548000  1.0 -0.0092100019
C  C820  1  0.14299000  0.05208000  0.49851000  1.0 0.0190146148
C  C821  1  0.80966000  0.38541000  0.83184000  1.0 0.0190146148
C  C822  1  0.47632000  0.71875000  0.16518000  1.0 0.0190146148
C  C823  1  0.13898000  0.07866000  0.49352000  1.0 -0.0503810213
C  C824  1  0.80565000  0.41199000  0.82685000  1.0 -0.0503810213
C  C825  1  0.47231000  0.74533000  0.16019000  1.0 -0.0503810213
C  C826  1  0.15683000  0.11767000  0.51547000  1.0 -0.0904253743
C  C827  1  0.82350000  0.45100000  0.84880000  1.0 -0.0904253743
C  C828  1  0.49017000  0.78433000  0.18213000  1.0 -0.0904253743
C  C829  1  0.15300000  0.14400000  0.51160000  1.0 -0.1389708346
C  C830  1  0.81967000  0.47733000  0.84493000  1.0 -0.1485797433
C  C831  1  0.48633000  0.81067000  0.17827000  1.0 -0.1485797433
C  C832  1  0.13100000  0.13211000  0.48530000  1.0 -0.1389708346
C  C833  1  0.79767000  0.46544000  0.81863000  1.0 -0.1389708346
C  C834  1  0.46434000  0.79877000  0.15196000  1.0 -0.1389708346
C  C835  1  0.11290000  0.09320000  0.46330000  1.0 -0.1215669931
C  C836  1  0.77957000  0.42653000  0.79663000  1.0 -0.1215669931
C  C837  1  0.44623000  0.75987000  0.12997000  1.0 -0.1215669931
C  C838  1  0.11810000  0.06860000  0.46590000  1.0 -0.0985845673
C  C839  1  0.78477000  0.40193000  0.79923000  1.0 -0.0985845673
C  C840  1  0.45143000  0.73527000  0.13257000  1.0 -0.0985845673
C  C841  1  0.12541000  0.15741000  0.48009000  1.0 -0.0985845673
C  C842  1  0.79207000  0.49075000  0.81343000  1.0 -0.0985845673
C  C843  1  0.45874000  0.82408000  0.14676000  1.0 -0.0985845673
C  C844  1  0.13850000  0.19469000  0.50720000  1.0 -0.1485797433
C  C845  1  0.80516000  0.52803000  0.84054000  1.0 -0.1485797433
C  C846  1  0.47183000  0.86136000  0.17387000  1.0 -0.1485797433
C  C847  1  0.13263000  0.21945000  0.50467000  1.0 -0.1485797433
C  C848  1  0.79929000  0.55279000  0.83801000  1.0 -0.1389708346
C  C849  1  0.46596000  0.88612000  0.17134000  1.0 -0.1485797433
C  C850  1  0.11504000  0.21014000  0.47426000  1.0 -0.0770086525
C  C851  1  0.78171000  0.54347000  0.80759000  1.0 -0.0770086525
C  C852  1  0.44838000  0.87680000  0.14092000  1.0 -0.0770086525
C  C853  1  0.10253000  0.17328000  0.44670000  1.0 -0.0009323144
C  C854  1  0.76920000  0.50661000  0.78003000  1.0 -0.0009323144
C  C855  1  0.43587000  0.83994000  0.11336000  1.0 -0.0009323144
C  C856  1  0.10779000  0.14777000  0.44931000  1.0 -0.0284072156
C  C857  1  0.77445000  0.48111000  0.78265000  1.0 -0.0284072156
C  C858  1  0.44112000  0.81444000  0.11598000  1.0 -0.0284072156
C  C859  1  0.16816000  0.97781000  0.42424000  1.0 -0.0284072156
C  C860  1  0.83482000  0.31115000  0.75758000  1.0 -0.0284072156
C  C861  1  0.50149000  0.64448000  0.09091000  1.0 -0.0284072156
C  C862  1  0.17315000  0.97879000  0.39365000  1.0 -0.0433835446
C  C863  1  0.83981000  0.31213000  0.72699000  1.0 -0.0433835446
C  C864  1  0.50648000  0.64546000  0.06032000  1.0 -0.0433835446
C  C865  1  0.15120000  0.97470000  0.37250000  1.0 -0.0695184293
C  C866  1  0.81787000  0.30803000  0.70583000  1.0 -0.0695184293
C  C867  1  0.48453000  0.64137000  0.03917000  1.0 -0.0695184293
C  C868  1  0.15507000  0.97473000  0.34233000  1.0 -0.1215669931
C  C869  1  0.82173000  0.30807000  0.67567000  1.0 -0.1215669931
C  C870  1  0.48840000  0.64140000  0.00900000  1.0 -0.1215669931
C  C871  1  0.18137000  0.97904000  0.33223000  1.0 -0.0904253743
C  C872  1  0.84804000  0.31237000  0.66556000  1.0 -0.0904253743
C  C873  1  0.51470000  0.64571000  0.99890000  1.0 -0.0904253743
C  C874  1  0.20337000  0.98293000  0.35303000  1.0 -0.1215669931
C  C875  1  0.87003000  0.31627000  0.68637000  1.0 -0.1215669931
C  C876  1  0.53670000  0.64960000  0.01970000  1.0 -0.1215669931
C  C877  1  0.20077000  0.98553000  0.38283000  1.0 -0.0591473544
C  C878  1  0.86743000  0.31887000  0.71617000  1.0 -0.0591473544
C  C879  1  0.53410000  0.65220000  0.04950000  1.0 -0.0591473544
C  C880  1  0.18657000  0.97865000  0.30133000  1.0 -0.0284072156
C  C881  1  0.85324000  0.31198000  0.63466000  1.0 -0.0284072156
C  C882  1  0.51991000  0.64531000  0.96799000  1.0 -0.0284072156
C  C883  1  0.15946000  0.96463000  0.27714000  1.0 -0.0695184293
C  C884  1  0.82613000  0.29796000  0.61047000  1.0 -0.0695184293
C  C885  1  0.49280000  0.63129000  0.94380000  1.0 -0.0695184293
C  C886  1  0.16199000  0.96129000  0.24651000  1.0 -0.0591473544
C  C887  1  0.82866000  0.29462000  0.57984000  1.0 -0.0591473544
C  C888  1  0.49533000  0.62795000  0.91317000  1.0 -0.0591473544
C  C889  1  0.19241000  0.97412000  0.23824000  1.0 -0.0181897998
C  C890  1  0.85908000  0.30745000  0.57157000  1.0 -0.0181897998
C  C891  1  0.52574000  0.64079000  0.90491000  1.0 -0.0181897998
C  C892  1  0.21997000  0.98917000  0.26259000  1.0 0.0036317377
C  C893  1  0.88664000  0.32250000  0.59592000  1.0 0.0036317377
C  C894  1  0.55330000  0.65584000  0.92926000  1.0 0.0036317377
C  C895  1  0.21735000  0.99181000  0.29335000  1.0 0.0145869069
C  C896  1  0.88402000  0.32514000  0.62668000  1.0 0.0145869069
C  C897  1  0.55069000  0.65847000  0.96001000  1.0 0.0145869069
C  C898  1  0.24242000  0.07725000  0.52368000  1.0 0.0190146148
C  C899  1  0.90909000  0.41058000  0.85701000  1.0 0.0190146148
C  C900  1  0.57576000  0.74391000  0.19034000  1.0 0.0190146148
C  C901  1  0.27301000  0.11283000  0.52769000  1.0 -0.0503810213
C  C902  1  0.93968000  0.44616000  0.86102000  1.0 -0.0433835446
C  C903  1  0.60635000  0.77949000  0.19435000  1.0 -0.0433835446
C  C904  1  0.29417000  0.11203000  0.50983000  1.0 -0.0985845673
C  C905  1  0.96083000  0.44537000  0.84317000  1.0 -0.0985845673
C  C906  1  0.62750000  0.77870000  0.17650000  1.0 -0.0985845673
C  C907  1  0.32433000  0.14607000  0.51367000  1.0 -0.1555692435
C  C908  1  0.99100000  0.47940000  0.84700000  1.0 -0.1555692435
C  C909  1  0.65767000  0.81273000  0.18033000  1.0 -0.1555692435
C  C910  1  0.33444000  0.18247000  0.53566000  1.0 -0.1389708346
C  C911  1  0.00110000  0.51581000  0.86900000  1.0 -0.1389708346
C  C912  1  0.66777000  0.84914000  0.20233000  1.0 -0.1389708346
C  C913  1  0.31363000  0.18367000  0.55377000  1.0 -0.1389708346
C  C914  1  0.98030000  0.51700000  0.88710000  1.0 -0.1389708346
C  C915  1  0.64697000  0.85033000  0.22043000  1.0 -0.1389708346
C  C916  1  0.28383000  0.15127000  0.54857000  1.0 -0.0904253743
C  C917  1  0.95050000  0.48460000  0.88190000  1.0 -0.0904253743
C  C918  1  0.61717000  0.81793000  0.21523000  1.0 -0.0904253743
C  C919  1  0.36534000  0.21858000  0.54126000  1.0 -0.0904253743
C  C920  1  0.03201000  0.55191000  0.87459000  1.0 -0.0985845673
C  C921  1  0.69867000  0.88525000  0.20793000  1.0 -0.0904253743
C  C922  1  0.38953000  0.21566000  0.52817000  1.0 -0.1485797433
C  C923  1  0.05620000  0.54899000  0.86150000  1.0 -0.1555692435
C  C924  1  0.72286000  0.88233000  0.19484000  1.0 -0.1485797433
C  C925  1  0.42016000  0.24882000  0.53404000  1.0 -0.0985845673
C  C926  1  0.08683000  0.58215000  0.86737000  1.0 -0.0985845673
C  C927  1  0.75349000  0.91549000  0.20071000  1.0 -0.0985845673
C  C928  1  0.42843000  0.28750000  0.55162000  1.0 -0.0092100019
C  C929  1  0.09509000  0.62084000  0.88496000  1.0 -0.0092100019
C  C930  1  0.76176000  0.95417000  0.21829000  1.0 -0.0092100019
C  C931  1  0.40408000  0.29071000  0.56413000  1.0 -0.0092100019
C  C932  1  0.07074000  0.62405000  0.89747000  1.0 -0.0092100019
C  C933  1  0.73741000  0.95738000  0.23080000  1.0 -0.0092100019
C  C934  1  0.37332000  0.25734000  0.55888000  1.0 -0.0092100019
C  C935  1  0.03999000  0.59067000  0.89221000  1.0 -0.0092100019
C  C936  1  0.70665000  0.92401000  0.22555000  1.0 -0.0092100019
C  C937  1  0.58333000  0.66666667  0.41667000  1.0 0.0145869069
C  C938  1  0.25000000  0.00000000  0.75000000  1.0 0.0190146148
C  C939  1  0.91667000  0.33333333  0.08333000  1.0 0.0190146148
C  C940  1  0.08333000  0.66666667  0.41667000  1.0 0.0145869069
C  C941  1  0.75000000  0.00000000  0.75000000  1.0 0.0145869069
C  C942  1  0.41667000  0.33333333  0.08333000  1.0 0.0190146148
C  C943  1  0.91667000  0.83333000  0.58333000  1.0 0.0190146148
C  C944  1  0.58333000  0.16667000  0.91667000  1.0 0.0190146148
C  C945  1  0.25000000  0.50000000  0.25000000  1.0 0.0190146148
C  C946  1  0.75000000  0.00000000  0.25000000  1.0 0.0145869069
C  C947  1  0.41667000  0.33333333  0.58333000  1.0 0.0190146148
C  C948  1  0.08333000  0.66666667  0.91667000  1.0 0.0145869069
C  C949  1  0.25000000  0.00000000  0.25000000  1.0 0.0190146148
C  C950  1  0.91667000  0.33333333  0.58333000  1.0 0.0190146148
C  C951  1  0.58333000  0.66666667  0.91667000  1.0 0.0145869069
C  C952  1  0.08333000  0.16667000  0.41667000  1.0 0.0190146148
C  C953  1  0.75000000  0.50000000  0.75000000  1.0 0.0190146148
C  C954  1  0.41667000  0.83333000  0.08333000  1.0 0.0190146148
O  O1  1  0.62587000  0.64963000  0.60957000  1.0 0.0793826769
O  O2  1  0.29254000  0.98296000  0.94290000  1.0 0.0704122146
O  O3  1  0.95921000  0.31629000  0.27623000  1.0 0.0793826769
O  O4  1  0.66217000  0.63707000  0.59719000  1.0 0.1281290475
O  O5  1  0.32884000  0.97040000  0.93052000  1.0 0.1281290475
O  O6  1  0.99550000  0.30374000  0.26386000  1.0 0.1281290475
O  O7  1  0.69042000  0.74752000  0.70746000  1.0 0.1670571714
O  O8  1  0.35709000  0.08085000  0.04079000  1.0 0.1670571714
O  O9  1  0.02375000  0.41419000  0.37413000  1.0 0.1670571714
O  O10  1  0.64157000  0.71104000  0.67116000  1.0 0.1768192748
O  O11  1  0.30823000  0.04438000  0.00450000  1.0 0.1768192748
O  O12  1  0.97490000  0.37771000  0.33783000  1.0 0.1768192748
O  O13  1  0.72377000  0.68297000  0.64291000  1.0 0.1670571714
O  O14  1  0.39043000  0.01631000  0.97625000  1.0 0.1670571714
O  O15  1  0.05710000  0.34964000  0.30958000  1.0 0.1670571714
O  O16  1  0.73614000  0.73165000  0.69177000  1.0 0.1881857816
O  O17  1  0.40281000  0.06498000  0.02510000  1.0 0.1881857816
O  O18  1  0.06948000  0.39831000  0.35843000  1.0 0.1881857816
O  O19  1  0.06750000  0.73712000  0.69706000  1.0 0.0704122146
O  O20  1  0.73417000  0.07045000  0.03039000  1.0 0.0793826769
O  O21  1  0.40083000  0.40379000  0.36373000  1.0 0.0793826769
O  O22  1  0.03108000  0.74944000  0.70956000  1.0 0.1281290475
O  O23  1  0.69775000  0.08277000  0.04289000  1.0 0.1281290475
O  O24  1  0.36442000  0.41610000  0.37622000  1.0 0.1281290475
O  O25  1  0.00295000  0.63923000  0.59917000  1.0 0.1670571714
O  O26  1  0.66962000  0.97256000  0.93250000  1.0 0.1670571714
O  O27  1  0.33629000  0.30589000  0.26583000  1.0 0.1670571714
O  O28  1  0.05169000  0.67546000  0.63558000  1.0 0.1768192748
O  O29  1  0.71835000  0.00880000  0.96892000  1.0 0.1768192748
O  O30  1  0.38502000  0.34213000  0.30225000  1.0 0.1768192748
O  O31  1  0.96961000  0.70377000  0.66371000  1.0 0.1670571714
O  O32  1  0.63627000  0.03711000  0.99705000  1.0 0.1670571714
O  O33  1  0.30294000  0.37044000  0.33038000  1.0 0.1670571714
O  O34  1  0.95711000  0.65486000  0.61498000  1.0 0.1881857816
O  O35  1  0.62378000  0.98819000  0.94831000  1.0 0.1881857816
O  O36  1  0.29044000  0.32153000  0.28165000  1.0 0.1881857816
O  O37  1  0.09917000  0.96289000  0.50295000  1.0 0.1670571714
O  O38  1  0.76583000  0.29623000  0.83629000  1.0 0.1670571714
O  O39  1  0.43250000  0.62956000  0.16962000  1.0 0.1670571714
O  O40  1  0.13558000  0.01181000  0.55169000  1.0 0.1881857816
O  O41  1  0.80225000  0.34514000  0.88502000  1.0 0.1881857816
O  O42  1  0.46892000  0.67847000  0.21835000  1.0 0.1881857816
O  O43  1  0.16371000  0.92955000  0.46961000  1.0 0.0793826769
O  O44  1  0.83038000  0.26288000  0.80294000  1.0 0.0793826769
O  O45  1  0.49705000  0.59621000  0.13627000  1.0 0.0704122146
O  O46  1  0.11498000  0.91723000  0.45711000  1.0 0.1219284321
O  O47  1  0.78165000  0.25056000  0.79044000  1.0 0.1281290475
O  O48  1  0.44831000  0.58390000  0.12378000  1.0 0.1281290475
O  O49  1  0.19706000  0.02744000  0.56750000  1.0 0.1670571714
O  O50  1  0.86373000  0.36077000  0.90083000  1.0 0.1670571714
O  O51  1  0.53039000  0.69411000  0.23417000  1.0 0.1670571714
O  O52  1  0.20956000  0.99120000  0.53108000  1.0 0.1768192748
O  O53  1  0.87622000  0.32454000  0.86442000  1.0 0.1768192748
O  O54  1  0.54289000  0.65787000  0.19775000  1.0 0.1768192748
O  O55  1  0.87413000  0.98369000  0.52375000  1.0 0.1670571714
O  O56  1  0.54079000  0.31703000  0.85709000  1.0 0.1670571714
O  O57  1  0.20746000  0.65036000  0.19042000  1.0 0.1670571714
O  O58  1  0.83783000  0.93502000  0.47490000  1.0 0.1881857816
O  O59  1  0.50450000  0.26835000  0.80823000  1.0 0.1881857816
O  O60  1  0.17116000  0.60169000  0.14157000  1.0 0.1881857816
O  O61  1  0.80958000  0.01704000  0.55710000  1.0 0.0793826769
O  O62  1  0.47625000  0.35037000  0.89043000  1.0 0.0793826769
O  O63  1  0.14291000  0.68371000  0.22377000  1.0 0.0704122146
O  O64  1  0.85843000  0.02960000  0.56948000  1.0 0.1281290475
O  O65  1  0.52510000  0.36293000  0.90281000  1.0 0.1281290475
O  O66  1  0.19177000  0.69626000  0.23614000  1.0 0.1281290475
O  O67  1  0.77623000  0.91915000  0.45921000  1.0 0.1670571714
O  O68  1  0.44290000  0.25248000  0.79254000  1.0 0.1670571714
O  O69  1  0.10957000  0.58581000  0.12587000  1.0 0.1670571714
O  O70  1  0.76386000  0.95562000  0.49550000  1.0 0.1768192748
O  O71  1  0.43052000  0.28896000  0.82884000  1.0 0.1768192748
O  O72  1  0.09719000  0.62229000  0.16217000  1.0 0.1768192748
O  O73  1  0.37413000  0.35037000  0.39043000  1.0 0.0793826769
O  O74  1  0.04079000  0.68371000  0.72377000  1.0 0.0704122146
O  O75  1  0.70746000  0.01704000  0.05710000  1.0 0.0793826769
O  O76  1  0.33783000  0.36293000  0.40281000  1.0 0.1281290475
O  O77  1  0.00450000  0.69626000  0.73614000  1.0 0.1219284321
O  O78  1  0.67116000  0.02960000  0.06948000  1.0 0.1281290475
O  O79  1  0.30958000  0.25248000  0.29254000  1.0 0.1670571714
O  O80  1  0.97625000  0.58581000  0.62587000  1.0 0.1670571714
O  O81  1  0.64291000  0.91915000  0.95921000  1.0 0.1670571714
O  O82  1  0.35843000  0.28896000  0.32884000  1.0 0.1768192748
O  O83  1  0.02510000  0.62229000  0.66217000  1.0 0.1768192748
O  O84  1  0.69177000  0.95562000  0.99550000  1.0 0.1768192748
O  O85  1  0.27623000  0.31703000  0.35709000  1.0 0.1670571714
O  O86  1  0.94290000  0.65036000  0.69042000  1.0 0.1670571714
O  O87  1  0.60957000  0.98369000  0.02375000  1.0 0.1670571714
O  O88  1  0.26386000  0.26835000  0.30823000  1.0 0.1881857816
O  O89  1  0.93052000  0.60169000  0.64157000  1.0 0.1881857816
O  O90  1  0.59719000  0.93502000  0.97490000  1.0 0.1881857816
O  O91  1  0.93250000  0.26288000  0.30294000  1.0 0.0793826769
O  O92  1  0.59917000  0.59621000  0.63627000  1.0 0.0793826769
O  O93  1  0.26583000  0.92955000  0.96961000  1.0 0.0793826769
O  O94  1  0.96892000  0.25056000  0.29044000  1.0 0.1281290475
O  O95  1  0.63558000  0.58390000  0.62378000  1.0 0.1281290475
O  O96  1  0.30225000  0.91723000  0.95711000  1.0 0.1219284321
O  O97  1  0.99705000  0.36077000  0.40083000  1.0 0.1670571714
O  O98  1  0.66371000  0.69411000  0.73417000  1.0 0.1670571714
O  O99  1  0.33038000  0.02744000  0.06750000  1.0 0.1670571714
O  O100  1  0.94831000  0.32454000  0.36442000  1.0 0.1768192748
O  O101  1  0.61498000  0.65787000  0.69775000  1.0 0.1768192748
O  O102  1  0.28165000  0.99120000  0.03108000  1.0 0.1768192748
O  O103  1  0.03039000  0.29623000  0.33629000  1.0 0.1670571714
O  O104  1  0.69706000  0.62956000  0.66962000  1.0 0.1670571714
O  O105  1  0.36373000  0.96289000  0.00295000  1.0 0.1670571714
O  O106  1  0.04289000  0.34514000  0.38502000  1.0 0.1881857816
O  O107  1  0.70956000  0.67847000  0.71835000  1.0 0.1881857816
O  O108  1  0.37622000  0.01181000  0.05169000  1.0 0.1881857816
O  O109  1  0.90083000  0.03711000  0.49705000  1.0 0.1670571714
O  O110  1  0.56750000  0.37044000  0.83038000  1.0 0.1670571714
O  O111  1  0.23417000  0.70377000  0.16371000  1.0 0.1670571714
O  O112  1  0.86442000  0.98819000  0.44831000  1.0 0.1881857816
O  O113  1  0.53108000  0.32153000  0.78165000  1.0 0.1881857816
O  O114  1  0.19775000  0.65486000  0.11498000  1.0 0.1881857816
O  O115  1  0.83629000  0.07045000  0.53039000  1.0 0.0793826769
O  O116  1  0.50295000  0.40379000  0.86373000  1.0 0.0793826769
O  O117  1  0.16962000  0.73712000  0.19706000  1.0 0.0793826769
O  O118  1  0.88502000  0.08277000  0.54289000  1.0 0.1281290475
O  O119  1  0.55169000  0.41610000  0.87622000  1.0 0.1281290475
O  O120  1  0.21835000  0.74944000  0.20956000  1.0 0.1281290475
O  O121  1  0.80294000  0.97256000  0.43250000  1.0 0.1670571714
O  O122  1  0.46961000  0.30589000  0.76583000  1.0 0.1670571714
O  O123  1  0.13627000  0.63923000  0.09917000  1.0 0.1670571714
O  O124  1  0.79044000  0.00880000  0.46892000  1.0 0.1768192748
O  O125  1  0.45711000  0.34213000  0.80225000  1.0 0.1768192748
O  O126  1  0.12378000  0.67546000  0.13558000  1.0 0.1768192748
O  O127  1  0.12587000  0.01631000  0.47625000  1.0 0.1670571714
O  O128  1  0.79254000  0.34964000  0.80958000  1.0 0.1670571714
O  O129  1  0.45921000  0.68297000  0.14291000  1.0 0.1670571714
O  O130  1  0.16217000  0.06498000  0.52510000  1.0 0.1881857816
O  O131  1  0.82884000  0.39831000  0.85843000  1.0 0.1881857816
O  O132  1  0.49550000  0.73165000  0.19177000  1.0 0.1881857816
O  O133  1  0.19042000  0.98296000  0.44290000  1.0 0.0704122146
O  O134  1  0.85709000  0.31629000  0.77623000  1.0 0.0793826769
O  O135  1  0.52375000  0.64963000  0.10957000  1.0 0.0793826769
O  O136  1  0.14157000  0.97040000  0.43052000  1.0 0.1281290475
O  O137  1  0.80823000  0.30374000  0.76386000  1.0 0.1281290475
O  O138  1  0.47490000  0.63707000  0.09719000  1.0 0.1281290475
O  O139  1  0.22377000  0.08085000  0.54079000  1.0 0.1670571714
O  O140  1  0.89043000  0.41419000  0.87413000  1.0 0.1670571714
O  O141  1  0.55710000  0.74752000  0.20746000  1.0 0.1670571714
O  O142  1  0.23614000  0.04438000  0.50450000  1.0 0.1768192748
O  O143  1  0.90281000  0.37771000  0.83783000  1.0 0.1768192748
O  O144  1  0.56948000  0.71104000  0.17116000  1.0 0.1768192748
O  O145  1  0.91085000  0.30793000  0.30793000  1.0 -0.0904253743
O  O146  1  0.57752000  0.64126000  0.64126000  1.0 -0.0985845673
O  O147  1  0.24418000  0.97460000  0.97460000  1.0 -0.0985845673
O  O148  1  0.06375000  0.42248000  0.42248000  1.0 -0.0904253743
O  O149  1  0.73041000  0.75582000  0.75582000  1.0 -0.0904253743
O  O150  1  0.39708000  0.08915000  0.08915000  1.0 -0.0904253743
O  O151  1  0.02540000  0.26959000  0.26959000  1.0 -0.0904253743
O  O152  1  0.69207000  0.60292000  0.60292000  1.0 -0.0904253743
O  O153  1  0.35874000  0.93625000  0.93625000  1.0 -0.0904253743
O  O154  1  0.42248000  0.35874000  0.35874000  1.0 -0.0985845673
O  O155  1  0.08915000  0.69207000  0.69207000  1.0 -0.0985845673
O  O156  1  0.75582000  0.02540000  0.02540000  1.0 -0.0904253743
O  O157  1  0.26959000  0.24418000  0.24418000  1.0 -0.0904253743
O  O158  1  0.93625000  0.57752000  0.57752000  1.0 -0.0904253743
O  O159  1  0.60292000  0.91085000  0.91085000  1.0 -0.0904253743
O  O160  1  0.30793000  0.39708000  0.39708000  1.0 -0.0904253743
O  O161  1  0.97460000  0.73041000  0.73041000  1.0 -0.0904253743
O  O162  1  0.64126000  0.06375000  0.06375000  1.0 -0.0904253743
O  O163  1  0.07752000  0.93625000  0.43625000  1.0 -0.0904253743
O  O164  1  0.74418000  0.26959000  0.76959000  1.0 -0.0904253743
O  O165  1  0.41085000  0.60292000  0.10292000  1.0 -0.0904253743
O  O166  1  0.23041000  0.97460000  0.47460000  1.0 -0.0985845673
O  O167  1  0.89708000  0.30793000  0.80793000  1.0 -0.0985845673
O  O168  1  0.56375000  0.64126000  0.14126000  1.0 -0.0985845673
O  O169  1  0.19207000  0.08915000  0.58915000  1.0 -0.0904253743
O  O170  1  0.85874000  0.42248000  0.92248000  1.0 -0.0904253743
O  O171  1  0.52540000  0.75582000  0.25582000  1.0 -0.0904253743
O  O172  1  0.92248000  0.06375000  0.56375000  1.0 -0.0904253743
O  O173  1  0.58915000  0.39708000  0.89708000  1.0 -0.0904253743
O  O174  1  0.25582000  0.73041000  0.23041000  1.0 -0.0904253743
O  O175  1  0.76959000  0.02540000  0.52540000  1.0 -0.0904253743
O  O176  1  0.43625000  0.35874000  0.85874000  1.0 -0.0985845673
O  O177  1  0.10292000  0.69207000  0.19207000  1.0 -0.0904253743
O  O178  1  0.80793000  0.91085000  0.41085000  1.0 -0.0904253743
O  O179  1  0.47460000  0.24418000  0.74418000  1.0 -0.0904253743
O  O180  1  0.14126000  0.57752000  0.07752000  1.0 -0.0904253743
O  O181  1  0.00000000  0.33333333  0.33333333  1.0 0.1881857816
O  O182  1  0.66666667  0.66666667  0.66666667  1.0 0.1881857816
O  O183  1  0.33333333  0.00000000  0.00000000  1.0 0.1881857816
O  O184  1  0.33333333  0.33333333  0.33333333  1.0 0.1881857816
O  O185  1  0.00000000  0.66666667  0.66666667  1.0 0.1881857816
O  O186  1  0.66666667  0.00000000  0.00000000  1.0 0.1881857816
O  O187  1  0.16667000  0.00000000  0.50000000  1.0 0.1881857816
O  O188  1  0.83333000  0.33333333  0.83333000  1.0 0.1881857816
O  O189  1  0.50000000  0.66666667  0.16667000  1.0 0.1881857816
O  O190  1  0.83333000  0.00000000  0.50000000  1.0 0.1881857816
O  O191  1  0.50000000  0.33333333  0.83333000  1.0 0.1881857816
O  O192  1  0.16667000  0.66666667  0.16667000  1.0 0.1881857816
