# DDEC6 charges by PACMAN v1.1 (https://github.com/mtap-research/PACMAN-charge/)
data_QOTLOD03_FSR_pacman
_symmetry_space_group_name_H-M   'P 1'
_cell_length_a   14.14210000
_cell_length_b   14.14210000
_cell_length_c   17.32050000
_cell_angle_alpha   90.00000000
_cell_angle_beta   90.00000000
_cell_angle_gamma   120.00000000
_symmetry_Int_Tables_number   1
_chemical_formula_structural   Fe6H84C159O32
_chemical_formula_sum   'Fe36 H504 C954 O192'
_cell_volume   2999.98348741
_cell_formula_units_Z   6
loop_
 _symmetry_equiv_pos_site_id
 _symmetry_equiv_pos_as_xyz
  1  'x, y, z'
loop_
 _atom_site_type_symbol
 _atom_site_label
 _atom_site_symmetry_multiplicity
 _atom_site_fract_x
 _atom_site_fract_y
 _atom_site_fract_z
 _atom_site_occupancy
 _atom_site_charge
Fe  Fe1  1  0.29410000  0.30424000  0.30424000  1.0 0.1074247724
Fe  Fe2  1  0.96077000  0.63757000  0.63757000  1.0 0.1074247724
Fe  Fe3  1  0.62743000  0.97091000  0.97091000  1.0 0.1074247724
Fe  Fe4  1  0.34347000  0.37257000  0.37257000  1.0 0.1074247724
Fe  Fe5  1  0.01014000  0.70590000  0.70590000  1.0 0.1074247724
Fe  Fe6  1  0.67681000  0.03923000  0.03923000  1.0 0.1074247724
Fe  Fe7  1  0.36243000  0.32319000  0.32319000  1.0 0.0993731895
Fe  Fe8  1  0.02909000  0.65653000  0.65653000  1.0 0.0993731895
Fe  Fe9  1  0.69576000  0.98986000  0.98986000  1.0 0.0993731895
Fe  Fe10  1  0.03923000  0.36243000  0.36243000  1.0 0.1074247724
Fe  Fe11  1  0.70590000  0.69576000  0.69576000  1.0 0.1074247724
Fe  Fe12  1  0.37257000  0.02909000  0.02909000  1.0 0.1074247724
Fe  Fe13  1  0.98986000  0.29410000  0.29410000  1.0 0.1074247724
Fe  Fe14  1  0.65653000  0.62743000  0.62743000  1.0 0.1074247724
Fe  Fe15  1  0.32319000  0.96077000  0.96077000  1.0 0.1074247724
Fe  Fe16  1  0.97091000  0.34347000  0.34347000  1.0 0.0993731895
Fe  Fe17  1  0.63757000  0.67681000  0.67681000  1.0 0.0993731895
Fe  Fe18  1  0.30424000  0.01014000  0.01014000  1.0 0.0993731895
Fe  Fe19  1  0.79410000  0.98986000  0.48986000  1.0 0.0993731895
Fe  Fe20  1  0.46077000  0.32319000  0.82319000  1.0 0.0993731895
Fe  Fe21  1  0.12743000  0.65653000  0.15653000  1.0 0.0993731895
Fe  Fe22  1  0.84347000  0.97091000  0.47091000  1.0 0.1074247724
Fe  Fe23  1  0.51014000  0.30424000  0.80424000  1.0 0.1074247724
Fe  Fe24  1  0.17681000  0.63757000  0.13757000  1.0 0.1074247724
Fe  Fe25  1  0.86243000  0.03923000  0.53923000  1.0 0.1074247724
Fe  Fe26  1  0.52909000  0.37257000  0.87257000  1.0 0.1074247724
Fe  Fe27  1  0.19576000  0.70590000  0.20590000  1.0 0.1074247724
Fe  Fe28  1  0.20590000  0.01014000  0.51014000  1.0 0.0993731895
Fe  Fe29  1  0.87257000  0.34347000  0.84347000  1.0 0.0993731895
Fe  Fe30  1  0.53923000  0.67681000  0.17681000  1.0 0.0993731895
Fe  Fe31  1  0.15653000  0.02909000  0.52909000  1.0 0.1074247724
Fe  Fe32  1  0.82319000  0.36243000  0.86243000  1.0 0.1074247724
Fe  Fe33  1  0.48986000  0.69576000  0.19576000  1.0 0.1074247724
Fe  Fe34  1  0.13757000  0.96077000  0.46077000  1.0 0.1074247724
Fe  Fe35  1  0.80424000  0.29410000  0.79410000  1.0 0.1074247724
Fe  Fe36  1  0.47091000  0.62743000  0.12743000  1.0 0.1074247724
H  H1  1  0.13800000  0.20190000  0.39210000  1.0 0.0678586071
H  H2  1  0.80467000  0.53523000  0.72543000  1.0 0.0678586071
H  H3  1  0.47133000  0.86857000  0.05877000  1.0 0.0678586071
H  H4  1  0.19570000  0.29720000  0.47070000  1.0 0.0678586071
H  H5  1  0.86237000  0.63053000  0.80403000  1.0 0.0678586071
H  H6  1  0.52903000  0.96387000  0.13737000  1.0 0.0678586071
H  H7  1  0.21373000  0.25517000  0.34347000  1.0 0.1276162807
H  H8  1  0.88040000  0.58850000  0.67680000  1.0 0.1276162807
H  H9  1  0.54707000  0.92183000  0.01013000  1.0 0.1276162807
H  H10  1  0.17230000  0.23240000  0.36820000  1.0 0.0678586071
H  H11  1  0.83897000  0.56573000  0.70153000  1.0 0.0678586071
H  H12  1  0.50563000  0.89907000  0.03487000  1.0 0.0678586071
H  H13  1  0.27400000  0.32880000  0.42610000  1.0 0.1074247724
H  H14  1  0.94067000  0.66213000  0.75943000  1.0 0.1074247724
H  H15  1  0.60733000  0.99547000  0.09277000  1.0 0.1074247724
H  H16  1  0.15520000  0.27480000  0.49660000  1.0 0.0786728279
H  H17  1  0.82187000  0.60813000  0.82993000  1.0 0.0786728279
H  H18  1  0.48853000  0.94147000  0.16327000  1.0 0.0786728279
H  H19  1  0.23297000  0.30543000  0.45123000  1.0 0.0678586071
H  H20  1  0.89963000  0.63877000  0.78457000  1.0 0.0678586071
H  H21  1  0.56630000  0.97210000  0.11790000  1.0 0.0678586071
H  H22  1  0.39723000  0.33847000  0.52867000  1.0 0.0678586071
H  H23  1  0.06390000  0.67180000  0.86200000  1.0 0.0678586071
H  H24  1  0.73057000  0.00513000  0.19533000  1.0 0.0678586071
H  H25  1  0.43483000  0.29747000  0.47097000  1.0 0.0608234609
H  H26  1  0.10150000  0.63080000  0.80430000  1.0 0.0608234609
H  H27  1  0.76817000  0.96413000  0.13763000  1.0 0.0608234609
H  H28  1  0.37477000  0.36463000  0.45293000  1.0 0.087949204
H  H29  1  0.04143000  0.69797000  0.78627000  1.0 0.087949204
H  H30  1  0.70810000  0.03130000  0.11960000  1.0 0.087949204
H  H31  1  0.39343000  0.35857000  0.49437000  1.0 0.0678586071
H  H32  1  0.06010000  0.69190000  0.82770000  1.0 0.0678586071
H  H33  1  0.72677000  0.02523000  0.16103000  1.0 0.0678586071
H  H34  1  0.38813000  0.29537000  0.39267000  1.0 0.1276162807
H  H35  1  0.05480000  0.62870000  0.72600000  1.0 0.1276162807
H  H36  1  0.72147000  0.96203000  0.05933000  1.0 0.1276162807
H  H37  1  0.45293000  0.28967000  0.51147000  1.0 0.0786728279
H  H38  1  0.11960000  0.62300000  0.84480000  1.0 0.0786728279
H  H39  1  0.78627000  0.95633000  0.17813000  1.0 0.0786728279
H  H40  1  0.40580000  0.28790000  0.43370000  1.0 0.0608234609
H  H41  1  0.07247000  0.62123000  0.76703000  1.0 0.0608234609
H  H42  1  0.73913000  0.95457000  0.10037000  1.0 0.0608234609
H  H43  1  0.27457000  0.07923000  0.26943000  1.0 0.0608234609
H  H44  1  0.94123000  0.41257000  0.60277000  1.0 0.0608234609
H  H45  1  0.60790000  0.74590000  0.93610000  1.0 0.0608234609
H  H46  1  0.19597000  0.05833000  0.23183000  1.0 0.087949204
H  H47  1  0.86263000  0.39167000  0.56517000  1.0 0.087949204
H  H48  1  0.52930000  0.72500000  0.89850000  1.0 0.087949204
H  H49  1  0.32320000  0.20360000  0.29190000  1.0 0.1074247724
H  H50  1  0.98987000  0.53693000  0.62523000  1.0 0.1074247724
H  H51  1  0.65653000  0.87027000  0.95857000  1.0 0.1074247724
H  H52  1  0.29847000  0.13743000  0.27323000  1.0 0.0608234609
H  H53  1  0.96513000  0.47077000  0.60657000  1.0 0.0608234609
H  H54  1  0.63180000  0.80410000  0.93990000  1.0 0.0608234609
H  H55  1  0.24057000  0.18123000  0.27853000  1.0 0.0993731895
H  H56  1  0.90723000  0.51457000  0.61187000  1.0 0.0993731895
H  H57  1  0.57390000  0.84790000  0.94520000  1.0 0.0993731895
H  H58  1  0.17007000  0.99193000  0.21373000  1.0 0.0786728279
H  H59  1  0.83673000  0.32527000  0.54707000  1.0 0.0786728279
H  H60  1  0.50340000  0.65860000  0.88040000  1.0 0.0786728279
H  H61  1  0.21543000  0.11507000  0.26087000  1.0 0.0608234609
H  H62  1  0.88210000  0.44840000  0.59420000  1.0 0.0608234609
H  H63  1  0.54877000  0.78173000  0.92753000  1.0 0.0608234609
H  H64  1  0.06853000  0.21117000  0.40137000  1.0 0.0678586071
H  H65  1  0.73520000  0.54450000  0.73470000  1.0 0.0678586071
H  H66  1  0.40187000  0.87783000  0.06803000  1.0 0.0678586071
H  H67  1  0.02197000  0.13813000  0.31163000  1.0 0.0678586071
H  H68  1  0.68863000  0.47147000  0.64497000  1.0 0.0678586071
H  H69  1  0.35530000  0.80480000  0.97830000  1.0 0.0678586071
H  H70  1  0.06073000  0.29377000  0.38207000  1.0 0.1276162807
H  H71  1  0.72740000  0.62710000  0.71540000  1.0 0.1276162807
H  H72  1  0.39407000  0.96043000  0.04873000  1.0 0.1276162807
H  H73  1  0.07050000  0.25320000  0.38900000  1.0 0.0678586071
H  H74  1  0.73717000  0.58653000  0.72233000  1.0 0.0678586071
H  H75  1  0.40383000  0.91987000  0.05567000  1.0 0.0678586071
H  H76  1  0.99447000  0.20813000  0.30543000  1.0 0.1074247724
H  H77  1  0.66113000  0.54147000  0.63877000  1.0 0.1074247724
H  H78  1  0.32780000  0.87480000  0.97210000  1.0 0.1074247724
H  H79  1  0.03027000  0.09613000  0.31793000  1.0 0.0786728279
H  H80  1  0.69693000  0.42947000  0.65127000  1.0 0.0786728279
H  H81  1  0.36360000  0.76280000  0.98460000  1.0 0.0786728279
H  H82  1  0.00317000  0.16683000  0.31263000  1.0 0.0678586071
H  H83  1  0.66983000  0.50017000  0.64597000  1.0 0.0678586071
H  H84  1  0.33650000  0.83350000  0.97930000  1.0 0.0678586071
H  H85  1  0.80930000  0.07460000  0.26480000  1.0 0.0678586071
H  H86  1  0.47597000  0.40793000  0.59813000  1.0 0.0678586071
H  H87  1  0.14263000  0.74127000  0.93147000  1.0 0.0678586071
H  H88  1  0.78283000  0.13787000  0.31137000  1.0 0.0608234609
H  H89  1  0.44950000  0.47120000  0.64470000  1.0 0.0608234609
H  H90  1  0.11617000  0.80453000  0.97803000  1.0 0.0608234609
H  H91  1  0.89970000  0.18430000  0.27260000  1.0 0.087949204
H  H92  1  0.56637000  0.51763000  0.60593000  1.0 0.087949204
H  H93  1  0.23303000  0.85097000  0.93927000  1.0 0.087949204
H  H94  1  0.84937000  0.12703000  0.26283000  1.0 0.0678586071
H  H95  1  0.51603000  0.46037000  0.59617000  1.0 0.0678586071
H  H96  1  0.18270000  0.79370000  0.92950000  1.0 0.0678586071
H  H97  1  0.88033000  0.24157000  0.33887000  1.0 0.1276162807
H  H98  1  0.54700000  0.57490000  0.67220000  1.0 0.1276162807
H  H99  1  0.21367000  0.90823000  0.00553000  1.0 0.1276162807
H  H100  1  0.73253000  0.08127000  0.30307000  1.0 0.0786728279
H  H101  1  0.39920000  0.41460000  0.63640000  1.0 0.0786728279
H  H102  1  0.06587000  0.74793000  0.96973000  1.0 0.0786728279
H  H103  1  0.83033000  0.18437000  0.33017000  1.0 0.0608234609
H  H104  1  0.49700000  0.51770000  0.66350000  1.0 0.0608234609
H  H105  1  0.16367000  0.85103000  0.99683000  1.0 0.0608234609
H  H106  1  0.93197000  0.33383000  0.52403000  1.0 0.0608234609
H  H107  1  0.59863000  0.66717000  0.85737000  1.0 0.0608234609
H  H108  1  0.26530000  0.00050000  0.19070000  1.0 0.0608234609
H  H109  1  0.02170000  0.37700000  0.55050000  1.0 0.087949204
H  H110  1  0.68837000  0.71033000  0.88383000  1.0 0.087949204
H  H111  1  0.35503000  0.04367000  0.21717000  1.0 0.087949204
H  H112  1  0.95127000  0.34533000  0.43363000  1.0 0.1074247724
H  H113  1  0.61793000  0.67867000  0.76697000  1.0 0.1074247724
H  H114  1  0.28460000  0.01200000  0.10030000  1.0 0.1074247724
H  H115  1  0.94433000  0.34817000  0.48397000  1.0 0.0608234609
H  H116  1  0.61100000  0.68150000  0.81730000  1.0 0.0608234609
H  H117  1  0.27767000  0.01483000  0.15063000  1.0 0.0608234609
H  H118  1  0.02790000  0.35570000  0.45300000  1.0 0.0993731895
H  H119  1  0.69457000  0.68903000  0.78633000  1.0 0.0993731895
H  H120  1  0.36123000  0.02237000  0.11967000  1.0 0.0993731895
H  H121  1  0.01540000  0.37900000  0.60080000  1.0 0.0786728279
H  H122  1  0.68207000  0.71233000  0.93413000  1.0 0.0786728279
H  H123  1  0.34873000  0.04567000  0.26747000  1.0 0.0786728279
H  H124  1  0.02070000  0.35720000  0.50300000  1.0 0.0608234609
H  H125  1  0.68737000  0.69053000  0.83633000  1.0 0.0608234609
H  H126  1  0.35403000  0.02387000  0.16967000  1.0 0.0608234609
H  H127  1  0.76480000  0.99950000  0.30930000  1.0 0.0608234609
H  H128  1  0.43147000  0.33283000  0.64263000  1.0 0.0608234609
H  H129  1  0.09813000  0.66617000  0.97597000  1.0 0.0608234609
H  H130  1  0.81137000  0.95633000  0.28283000  1.0 0.087949204
H  H131  1  0.47803000  0.28967000  0.61617000  1.0 0.087949204
H  H132  1  0.14470000  0.62300000  0.94950000  1.0 0.087949204
H  H133  1  0.77260000  0.98800000  0.39970000  1.0 0.1074247724
H  H134  1  0.43927000  0.32133000  0.73303000  1.0 0.1074247724
H  H135  1  0.10593000  0.65467000  0.06637000  1.0 0.1074247724
H  H136  1  0.76283000  0.98517000  0.34937000  1.0 0.0608234609
H  H137  1  0.42950000  0.31850000  0.68270000  1.0 0.0608234609
H  H138  1  0.09617000  0.65183000  0.01603000  1.0 0.0608234609
H  H139  1  0.83887000  0.97763000  0.38033000  1.0 0.0993731895
H  H140  1  0.50553000  0.31097000  0.71367000  1.0 0.0993731895
H  H141  1  0.17220000  0.64430000  0.04700000  1.0 0.0993731895
H  H142  1  0.80307000  0.95433000  0.23253000  1.0 0.0786728279
H  H143  1  0.46973000  0.28767000  0.56587000  1.0 0.0786728279
H  H144  1  0.13640000  0.62100000  0.89920000  1.0 0.0786728279
H  H145  1  0.83017000  0.97613000  0.33033000  1.0 0.0608234609
H  H146  1  0.49683000  0.30947000  0.66367000  1.0 0.0608234609
H  H147  1  0.16350000  0.64280000  0.99700000  1.0 0.0608234609
H  H148  1  0.02403000  0.12217000  0.43197000  1.0 0.0678586071
H  H149  1  0.69070000  0.45550000  0.76530000  1.0 0.0678586071
H  H150  1  0.35737000  0.78883000  0.09863000  1.0 0.0678586071
H  H151  1  0.05050000  0.19520000  0.52170000  1.0 0.0678586071
H  H152  1  0.71717000  0.52853000  0.85503000  1.0 0.0678586071
H  H153  1  0.38383000  0.86187000  0.18837000  1.0 0.0678586071
H  H154  1  0.93363000  0.03957000  0.45127000  1.0 0.1276162807
H  H155  1  0.60030000  0.37290000  0.78460000  1.0 0.1276162807
H  H156  1  0.26697000  0.70623000  0.11793000  1.0 0.1276162807
H  H157  1  0.98397000  0.08013000  0.44433000  1.0 0.0678586071
H  H158  1  0.65063000  0.41347000  0.77767000  1.0 0.0678586071
H  H159  1  0.31730000  0.74680000  0.11100000  1.0 0.0678586071
H  H160  1  0.95300000  0.12520000  0.52790000  1.0 0.1074247724
H  H161  1  0.61967000  0.45853000  0.86123000  1.0 0.1074247724
H  H162  1  0.28633000  0.79187000  0.19457000  1.0 0.1074247724
H  H163  1  0.10080000  0.23720000  0.51540000  1.0 0.0786728279
H  H164  1  0.76747000  0.57053000  0.84873000  1.0 0.0786728279
H  H165  1  0.43413000  0.90387000  0.18207000  1.0 0.0786728279
H  H166  1  0.00300000  0.16650000  0.52070000  1.0 0.0678586071
H  H167  1  0.66967000  0.49983000  0.85403000  1.0 0.0678586071
H  H168  1  0.33633000  0.83317000  0.18737000  1.0 0.0678586071
H  H169  1  0.90137000  0.25873000  0.56853000  1.0 0.0678586071
H  H170  1  0.56803000  0.59207000  0.90187000  1.0 0.0678586071
H  H171  1  0.23470000  0.92540000  0.23520000  1.0 0.0678586071
H  H172  1  0.81163000  0.19547000  0.52197000  1.0 0.0608234609
H  H173  1  0.47830000  0.52880000  0.85530000  1.0 0.0608234609
H  H174  1  0.14497000  0.86213000  0.18863000  1.0 0.0608234609
H  H175  1  0.88207000  0.14903000  0.56073000  1.0 0.087949204
H  H176  1  0.54873000  0.48237000  0.89407000  1.0 0.087949204
H  H177  1  0.21540000  0.81570000  0.22740000  1.0 0.087949204
H  H178  1  0.88900000  0.20630000  0.57050000  1.0 0.0678586071
H  H179  1  0.55567000  0.53963000  0.90383000  1.0 0.0678586071
H  H180  1  0.22233000  0.87297000  0.23717000  1.0 0.0678586071
H  H181  1  0.80543000  0.09177000  0.49447000  1.0 0.1276162807
H  H182  1  0.47210000  0.42510000  0.82780000  1.0 0.1276162807
H  H183  1  0.13877000  0.75843000  0.16113000  1.0 0.1276162807
H  H184  1  0.81793000  0.25207000  0.53027000  1.0 0.0786728279
H  H185  1  0.48460000  0.58540000  0.86360000  1.0 0.0786728279
H  H186  1  0.15127000  0.91873000  0.19693000  1.0 0.0786728279
H  H187  1  0.81263000  0.14897000  0.50317000  1.0 0.0608234609
H  H188  1  0.47930000  0.48230000  0.83650000  1.0 0.0608234609
H  H189  1  0.14597000  0.81563000  0.16983000  1.0 0.0608234609
H  H190  1  0.36200000  0.25410000  0.56390000  1.0 0.0608234609
H  H191  1  0.02867000  0.58743000  0.89723000  1.0 0.0608234609
H  H192  1  0.69533000  0.92077000  0.23057000  1.0 0.0608234609
H  H193  1  0.30430000  0.27500000  0.60150000  1.0 0.087949204
H  H194  1  0.97097000  0.60833000  0.93483000  1.0 0.087949204
H  H195  1  0.63763000  0.94167000  0.26817000  1.0 0.087949204
H  H196  1  0.28627000  0.12973000  0.54143000  1.0 0.1074247724
H  H197  1  0.95293000  0.46307000  0.87477000  1.0 0.1074247724
H  H198  1  0.61960000  0.79640000  0.20810000  1.0 0.1074247724
H  H199  1  0.32770000  0.19590000  0.56010000  1.0 0.0608234609
H  H200  1  0.99437000  0.52923000  0.89343000  1.0 0.0608234609
H  H201  1  0.66103000  0.86257000  0.22677000  1.0 0.0608234609
H  H202  1  0.22600000  0.15210000  0.55480000  1.0 0.0993731895
H  H203  1  0.89267000  0.48543000  0.88813000  1.0 0.0993731895
H  H204  1  0.55933000  0.81877000  0.22147000  1.0 0.0993731895
H  H205  1  0.34480000  0.34140000  0.61960000  1.0 0.0786728279
H  H206  1  0.01147000  0.67473000  0.95293000  1.0 0.0786728279
H  H207  1  0.67813000  0.00807000  0.28627000  1.0 0.0786728279
H  H208  1  0.26703000  0.21827000  0.57247000  1.0 0.0608234609
H  H209  1  0.93370000  0.55160000  0.90580000  1.0 0.0608234609
H  H210  1  0.60037000  0.88493000  0.23913000  1.0 0.0608234609
H  H211  1  0.10277000  0.13143000  0.44123000  1.0 0.0678586071
H  H212  1  0.76943000  0.46477000  0.77457000  1.0 0.0678586071
H  H213  1  0.43610000  0.79810000  0.10790000  1.0 0.0678586071
H  H214  1  0.06517000  0.03613000  0.36263000  1.0 0.0678586071
H  H215  1  0.73183000  0.36947000  0.69597000  1.0 0.0678586071
H  H216  1  0.39850000  0.70280000  0.02930000  1.0 0.0678586071
H  H217  1  0.12523000  0.07817000  0.48987000  1.0 0.1276162807
H  H218  1  0.79190000  0.41150000  0.82320000  1.0 0.1276162807
H  H219  1  0.45857000  0.74483000  0.15653000  1.0 0.1276162807
H  H220  1  0.10657000  0.10093000  0.46513000  1.0 0.0678586071
H  H221  1  0.77323000  0.43427000  0.79847000  1.0 0.0678586071
H  H222  1  0.43990000  0.76760000  0.13180000  1.0 0.0678586071
H  H223  1  0.11187000  0.00453000  0.40723000  1.0 0.1074247724
H  H224  1  0.77853000  0.33787000  0.74057000  1.0 0.1074247724
H  H225  1  0.44520000  0.67120000  0.07390000  1.0 0.1074247724
H  H226  1  0.04707000  0.05853000  0.33673000  1.0 0.0786728279
H  H227  1  0.71373000  0.39187000  0.67007000  1.0 0.0786728279
H  H228  1  0.38040000  0.72520000  0.00340000  1.0 0.0786728279
H  H229  1  0.09420000  0.02790000  0.38210000  1.0 0.0678586071
H  H230  1  0.76087000  0.36123000  0.71543000  1.0 0.0678586071
H  H231  1  0.42753000  0.69457000  0.04877000  1.0 0.0678586071
H  H232  1  0.22543000  0.99487000  0.30467000  1.0 0.0678586071
H  H233  1  0.89210000  0.32820000  0.63800000  1.0 0.0678586071
H  H234  1  0.55877000  0.66153000  0.97133000  1.0 0.0678586071
H  H235  1  0.30403000  0.03587000  0.36237000  1.0 0.0608234609
H  H236  1  0.97070000  0.36920000  0.69570000  1.0 0.0608234609
H  H237  1  0.63737000  0.70253000  0.02903000  1.0 0.0608234609
H  H238  1  0.17680000  0.96870000  0.38040000  1.0 0.087949204
H  H239  1  0.84347000  0.30203000  0.71373000  1.0 0.087949204
H  H240  1  0.51013000  0.63537000  0.04707000  1.0 0.087949204
H  H241  1  0.20153000  0.97477000  0.33897000  1.0 0.0678586071
H  H242  1  0.86820000  0.30810000  0.67230000  1.0 0.0678586071
H  H243  1  0.53487000  0.64143000  0.00563000  1.0 0.0678586071
H  H244  1  0.25943000  0.03797000  0.44067000  1.0 0.1276162807
H  H245  1  0.92610000  0.37130000  0.77400000  1.0 0.1276162807
H  H246  1  0.59277000  0.70463000  0.10733000  1.0 0.1276162807
H  H247  1  0.32993000  0.04367000  0.32187000  1.0 0.0786728279
H  H248  1  0.99660000  0.37700000  0.65520000  1.0 0.0786728279
H  H249  1  0.66327000  0.71033000  0.98853000  1.0 0.0786728279
H  H250  1  0.28457000  0.04543000  0.39963000  1.0 0.0608234609
H  H251  1  0.95123000  0.37877000  0.73297000  1.0 0.0608234609
H  H252  1  0.61790000  0.71210000  0.06630000  1.0 0.0608234609
H  H253  1  0.86200000  0.79810000  0.60790000  1.0 0.0678586071
H  H254  1  0.52867000  0.13143000  0.94123000  1.0 0.0678586071
H  H255  1  0.19533000  0.46477000  0.27457000  1.0 0.0678586071
H  H256  1  0.80430000  0.70280000  0.52930000  1.0 0.0678586071
H  H257  1  0.47097000  0.03613000  0.86263000  1.0 0.0678586071
H  H258  1  0.13763000  0.36947000  0.19597000  1.0 0.0678586071
H  H259  1  0.78627000  0.74483000  0.65653000  1.0 0.1276162807
H  H260  1  0.45293000  0.07817000  0.98987000  1.0 0.1276162807
H  H261  1  0.11960000  0.41150000  0.32320000  1.0 0.1276162807
H  H262  1  0.82770000  0.76760000  0.63180000  1.0 0.0678586071
H  H263  1  0.49437000  0.10093000  0.96513000  1.0 0.0678586071
H  H264  1  0.16103000  0.43427000  0.29847000  1.0 0.0678586071
H  H265  1  0.72600000  0.67120000  0.57390000  1.0 0.1074247724
H  H266  1  0.39267000  0.00453000  0.90723000  1.0 0.1074247724
H  H267  1  0.05933000  0.33787000  0.24057000  1.0 0.1074247724
H  H268  1  0.84480000  0.72520000  0.50340000  1.0 0.0786728279
H  H269  1  0.51147000  0.05853000  0.83673000  1.0 0.0786728279
H  H270  1  0.17813000  0.39187000  0.17007000  1.0 0.0786728279
H  H271  1  0.76703000  0.69457000  0.54877000  1.0 0.0678586071
H  H272  1  0.43370000  0.02790000  0.88210000  1.0 0.0678586071
H  H273  1  0.10037000  0.36123000  0.21543000  1.0 0.0678586071
H  H274  1  0.60277000  0.66153000  0.47133000  1.0 0.0678586071
H  H275  1  0.26943000  0.99487000  0.80467000  1.0 0.0678586071
H  H276  1  0.93610000  0.32820000  0.13800000  1.0 0.0678586071
H  H277  1  0.56517000  0.70253000  0.52903000  1.0 0.0608234609
H  H278  1  0.23183000  0.03587000  0.86237000  1.0 0.0608234609
H  H279  1  0.89850000  0.36920000  0.19570000  1.0 0.0608234609
H  H280  1  0.62523000  0.63537000  0.54707000  1.0 0.087949204
H  H281  1  0.29190000  0.96870000  0.88040000  1.0 0.087949204
H  H282  1  0.95857000  0.30203000  0.21373000  1.0 0.087949204
H  H283  1  0.60657000  0.64143000  0.50563000  1.0 0.0678586071
H  H284  1  0.27323000  0.97477000  0.83897000  1.0 0.0678586071
H  H285  1  0.93990000  0.30810000  0.17230000  1.0 0.0678586071
H  H286  1  0.61187000  0.70463000  0.60733000  1.0 0.1276162807
H  H287  1  0.27853000  0.03797000  0.94067000  1.0 0.1276162807
H  H288  1  0.94520000  0.37130000  0.27400000  1.0 0.1276162807
H  H289  1  0.54707000  0.71033000  0.48853000  1.0 0.0786728279
H  H290  1  0.21373000  0.04367000  0.82187000  1.0 0.0786728279
H  H291  1  0.88040000  0.37700000  0.15520000  1.0 0.0786728279
H  H292  1  0.59420000  0.71210000  0.56630000  1.0 0.0608234609
H  H293  1  0.26087000  0.04543000  0.89963000  1.0 0.0608234609
H  H294  1  0.92753000  0.37877000  0.23297000  1.0 0.0608234609
H  H295  1  0.72543000  0.92077000  0.73057000  1.0 0.0608234609
H  H296  1  0.39210000  0.25410000  0.06390000  1.0 0.0608234609
H  H297  1  0.05877000  0.58743000  0.39723000  1.0 0.0608234609
H  H298  1  0.80403000  0.94167000  0.76817000  1.0 0.087949204
H  H299  1  0.47070000  0.27500000  0.10150000  1.0 0.087949204
H  H300  1  0.13737000  0.60833000  0.43483000  1.0 0.087949204
H  H301  1  0.67680000  0.79640000  0.70810000  1.0 0.1074247724
H  H302  1  0.34347000  0.12973000  0.04143000  1.0 0.1074247724
H  H303  1  0.01013000  0.46307000  0.37477000  1.0 0.1074247724
H  H304  1  0.70153000  0.86257000  0.72677000  1.0 0.0608234609
H  H305  1  0.36820000  0.19590000  0.06010000  1.0 0.0608234609
H  H306  1  0.03487000  0.52923000  0.39343000  1.0 0.0608234609
H  H307  1  0.75943000  0.81877000  0.72147000  1.0 0.0993731895
H  H308  1  0.42610000  0.15210000  0.05480000  1.0 0.0993731895
H  H309  1  0.09277000  0.48543000  0.38813000  1.0 0.0993731895
H  H310  1  0.82993000  0.00807000  0.78627000  1.0 0.0786728279
H  H311  1  0.49660000  0.34140000  0.11960000  1.0 0.0786728279
H  H312  1  0.16327000  0.67473000  0.45293000  1.0 0.0786728279
H  H313  1  0.78457000  0.88493000  0.73913000  1.0 0.0608234609
H  H314  1  0.45123000  0.21827000  0.07247000  1.0 0.0608234609
H  H315  1  0.11790000  0.55160000  0.40580000  1.0 0.0608234609
H  H316  1  0.93147000  0.78883000  0.59863000  1.0 0.0678586071
H  H317  1  0.59813000  0.12217000  0.93197000  1.0 0.0678586071
H  H318  1  0.26480000  0.45550000  0.26530000  1.0 0.0678586071
H  H319  1  0.97803000  0.86187000  0.68837000  1.0 0.0678586071
H  H320  1  0.64470000  0.19520000  0.02170000  1.0 0.0678586071
H  H321  1  0.31137000  0.52853000  0.35503000  1.0 0.0678586071
H  H322  1  0.93927000  0.70623000  0.61793000  1.0 0.1276162807
H  H323  1  0.60593000  0.03957000  0.95127000  1.0 0.1276162807
H  H324  1  0.27260000  0.37290000  0.28460000  1.0 0.1276162807
H  H325  1  0.92950000  0.74680000  0.61100000  1.0 0.0678586071
H  H326  1  0.59617000  0.08013000  0.94433000  1.0 0.0678586071
H  H327  1  0.26283000  0.41347000  0.27767000  1.0 0.0678586071
H  H328  1  0.00553000  0.79187000  0.69457000  1.0 0.1074247724
H  H329  1  0.67220000  0.12520000  0.02790000  1.0 0.1074247724
H  H330  1  0.33887000  0.45853000  0.36123000  1.0 0.1074247724
H  H331  1  0.96973000  0.90387000  0.68207000  1.0 0.0786728279
H  H332  1  0.63640000  0.23720000  0.01540000  1.0 0.0786728279
H  H333  1  0.30307000  0.57053000  0.34873000  1.0 0.0786728279
H  H334  1  0.99683000  0.83317000  0.68737000  1.0 0.0678586071
H  H335  1  0.66350000  0.16650000  0.02070000  1.0 0.0678586071
H  H336  1  0.33017000  0.49983000  0.35403000  1.0 0.0678586071
H  H337  1  0.19070000  0.92540000  0.73520000  1.0 0.0678586071
H  H338  1  0.85737000  0.25873000  0.06853000  1.0 0.0678586071
H  H339  1  0.52403000  0.59207000  0.40187000  1.0 0.0678586071
H  H340  1  0.21717000  0.86213000  0.68863000  1.0 0.0608234609
H  H341  1  0.88383000  0.19547000  0.02197000  1.0 0.0608234609
H  H342  1  0.55050000  0.52880000  0.35530000  1.0 0.0608234609
H  H343  1  0.10030000  0.81570000  0.72740000  1.0 0.087949204
H  H344  1  0.76697000  0.14903000  0.06073000  1.0 0.087949204
H  H345  1  0.43363000  0.48237000  0.39407000  1.0 0.087949204
H  H346  1  0.15063000  0.87297000  0.73717000  1.0 0.0678586071
H  H347  1  0.81730000  0.20630000  0.07050000  1.0 0.0678586071
H  H348  1  0.48397000  0.53963000  0.40383000  1.0 0.0678586071
H  H349  1  0.11967000  0.75843000  0.66113000  1.0 0.1276162807
H  H350  1  0.78633000  0.09177000  0.99447000  1.0 0.1276162807
H  H351  1  0.45300000  0.42510000  0.32780000  1.0 0.1276162807
H  H352  1  0.26747000  0.91873000  0.69693000  1.0 0.0786728279
H  H353  1  0.93413000  0.25207000  0.03027000  1.0 0.0786728279
H  H354  1  0.60080000  0.58540000  0.36360000  1.0 0.0786728279
H  H355  1  0.16967000  0.81563000  0.66983000  1.0 0.0608234609
H  H356  1  0.83633000  0.14897000  0.00317000  1.0 0.0608234609
H  H357  1  0.50300000  0.48230000  0.33650000  1.0 0.0608234609
H  H358  1  0.06803000  0.66617000  0.47597000  1.0 0.0608234609
H  H359  1  0.73470000  0.99950000  0.80930000  1.0 0.0608234609
H  H360  1  0.40137000  0.33283000  0.14263000  1.0 0.0608234609
H  H361  1  0.97830000  0.62300000  0.44950000  1.0 0.087949204
H  H362  1  0.64497000  0.95633000  0.78283000  1.0 0.087949204
H  H363  1  0.31163000  0.28967000  0.11617000  1.0 0.087949204
H  H364  1  0.04873000  0.65467000  0.56637000  1.0 0.1074247724
H  H365  1  0.71540000  0.98800000  0.89970000  1.0 0.1074247724
H  H366  1  0.38207000  0.32133000  0.23303000  1.0 0.1074247724
H  H367  1  0.05567000  0.65183000  0.51603000  1.0 0.0608234609
H  H368  1  0.72233000  0.98517000  0.84937000  1.0 0.0608234609
H  H369  1  0.38900000  0.31850000  0.18270000  1.0 0.0608234609
H  H370  1  0.97210000  0.64430000  0.54700000  1.0 0.0993731895
H  H371  1  0.63877000  0.97763000  0.88033000  1.0 0.0993731895
H  H372  1  0.30543000  0.31097000  0.21367000  1.0 0.0993731895
H  H373  1  0.98460000  0.62100000  0.39920000  1.0 0.0786728279
H  H374  1  0.65127000  0.95433000  0.73253000  1.0 0.0786728279
H  H375  1  0.31793000  0.28767000  0.06587000  1.0 0.0786728279
H  H376  1  0.97930000  0.64280000  0.49700000  1.0 0.0608234609
H  H377  1  0.64597000  0.97613000  0.83033000  1.0 0.0608234609
H  H378  1  0.31263000  0.30947000  0.16367000  1.0 0.0608234609
H  H379  1  0.23520000  0.00050000  0.69070000  1.0 0.0608234609
H  H380  1  0.90187000  0.33383000  0.02403000  1.0 0.0608234609
H  H381  1  0.56853000  0.66717000  0.35737000  1.0 0.0608234609
H  H382  1  0.18863000  0.04367000  0.71717000  1.0 0.087949204
H  H383  1  0.85530000  0.37700000  0.05050000  1.0 0.087949204
H  H384  1  0.52197000  0.71033000  0.38383000  1.0 0.087949204
H  H385  1  0.22740000  0.01200000  0.60030000  1.0 0.1074247724
H  H386  1  0.89407000  0.34533000  0.93363000  1.0 0.1074247724
H  H387  1  0.56073000  0.67867000  0.26697000  1.0 0.1074247724
H  H388  1  0.23717000  0.01483000  0.65063000  1.0 0.0608234609
H  H389  1  0.90383000  0.34817000  0.98397000  1.0 0.0608234609
H  H390  1  0.57050000  0.68150000  0.31730000  1.0 0.0608234609
H  H391  1  0.16113000  0.02237000  0.61967000  1.0 0.0993731895
H  H392  1  0.82780000  0.35570000  0.95300000  1.0 0.0993731895
H  H393  1  0.49447000  0.68903000  0.28633000  1.0 0.0993731895
H  H394  1  0.19693000  0.04567000  0.76747000  1.0 0.0786728279
H  H395  1  0.86360000  0.37900000  0.10080000  1.0 0.0786728279
H  H396  1  0.53027000  0.71233000  0.43413000  1.0 0.0786728279
H  H397  1  0.16983000  0.02387000  0.66967000  1.0 0.0608234609
H  H398  1  0.83650000  0.35720000  0.00300000  1.0 0.0608234609
H  H399  1  0.50317000  0.69053000  0.33633000  1.0 0.0608234609
H  H400  1  0.97597000  0.87783000  0.56803000  1.0 0.0678586071
H  H401  1  0.64263000  0.21117000  0.90137000  1.0 0.0678586071
H  H402  1  0.30930000  0.54450000  0.23470000  1.0 0.0678586071
H  H403  1  0.94950000  0.80480000  0.47830000  1.0 0.0678586071
H  H404  1  0.61617000  0.13813000  0.81163000  1.0 0.0678586071
H  H405  1  0.28283000  0.47147000  0.14497000  1.0 0.0678586071
H  H406  1  0.06637000  0.96043000  0.54873000  1.0 0.1276162807
H  H407  1  0.73303000  0.29377000  0.88207000  1.0 0.1276162807
H  H408  1  0.39970000  0.62710000  0.21540000  1.0 0.1276162807
H  H409  1  0.01603000  0.91987000  0.55567000  1.0 0.0678586071
H  H410  1  0.68270000  0.25320000  0.88900000  1.0 0.0678586071
H  H411  1  0.34937000  0.58653000  0.22233000  1.0 0.0678586071
H  H412  1  0.04700000  0.87480000  0.47210000  1.0 0.1074247724
H  H413  1  0.71367000  0.20813000  0.80543000  1.0 0.1074247724
H  H414  1  0.38033000  0.54147000  0.13877000  1.0 0.1074247724
H  H415  1  0.89920000  0.76280000  0.48460000  1.0 0.0786728279
H  H416  1  0.56587000  0.09613000  0.81793000  1.0 0.0786728279
H  H417  1  0.23253000  0.42947000  0.15127000  1.0 0.0786728279
H  H418  1  0.99700000  0.83350000  0.47930000  1.0 0.0678586071
H  H419  1  0.66367000  0.16683000  0.81263000  1.0 0.0678586071
H  H420  1  0.33033000  0.50017000  0.14597000  1.0 0.0678586071
H  H421  1  0.09863000  0.74127000  0.43147000  1.0 0.0678586071
H  H422  1  0.76530000  0.07460000  0.76480000  1.0 0.0678586071
H  H423  1  0.43197000  0.40793000  0.09813000  1.0 0.0678586071
H  H424  1  0.18837000  0.80453000  0.47803000  1.0 0.0608234609
H  H425  1  0.85503000  0.13787000  0.81137000  1.0 0.0608234609
H  H426  1  0.52170000  0.47120000  0.14470000  1.0 0.0608234609
H  H427  1  0.11793000  0.85097000  0.43927000  1.0 0.087949204
H  H428  1  0.78460000  0.18430000  0.77260000  1.0 0.087949204
H  H429  1  0.45127000  0.51763000  0.10593000  1.0 0.087949204
H  H430  1  0.11100000  0.79370000  0.42950000  1.0 0.0678586071
H  H431  1  0.77767000  0.12703000  0.76283000  1.0 0.0678586071
H  H432  1  0.44433000  0.46037000  0.09617000  1.0 0.0678586071
H  H433  1  0.19457000  0.90823000  0.50553000  1.0 0.1276162807
H  H434  1  0.86123000  0.24157000  0.83887000  1.0 0.1276162807
H  H435  1  0.52790000  0.57490000  0.17220000  1.0 0.1276162807
H  H436  1  0.18207000  0.74793000  0.46973000  1.0 0.0786728279
H  H437  1  0.84873000  0.08127000  0.80307000  1.0 0.0786728279
H  H438  1  0.51540000  0.41460000  0.13640000  1.0 0.0786728279
H  H439  1  0.18737000  0.85103000  0.49683000  1.0 0.0608234609
H  H440  1  0.85403000  0.18437000  0.83017000  1.0 0.0608234609
H  H441  1  0.52070000  0.51770000  0.16350000  1.0 0.0608234609
H  H442  1  0.63800000  0.74590000  0.43610000  1.0 0.0608234609
H  H443  1  0.30467000  0.07923000  0.76943000  1.0 0.0608234609
H  H444  1  0.97133000  0.41257000  0.10277000  1.0 0.0608234609
H  H445  1  0.69570000  0.72500000  0.39850000  1.0 0.087949204
H  H446  1  0.36237000  0.05833000  0.73183000  1.0 0.087949204
H  H447  1  0.02903000  0.39167000  0.06517000  1.0 0.087949204
H  H448  1  0.71373000  0.87027000  0.45857000  1.0 0.1074247724
H  H449  1  0.38040000  0.20360000  0.79190000  1.0 0.1074247724
H  H450  1  0.04707000  0.53693000  0.12523000  1.0 0.1074247724
H  H451  1  0.67230000  0.80410000  0.43990000  1.0 0.0608234609
H  H452  1  0.33897000  0.13743000  0.77323000  1.0 0.0608234609
H  H453  1  0.00563000  0.47077000  0.10657000  1.0 0.0608234609
H  H454  1  0.77400000  0.84790000  0.44520000  1.0 0.0993731895
H  H455  1  0.44067000  0.18123000  0.77853000  1.0 0.0993731895
H  H456  1  0.10733000  0.51457000  0.11187000  1.0 0.0993731895
H  H457  1  0.65520000  0.65860000  0.38040000  1.0 0.0786728279
H  H458  1  0.32187000  0.99193000  0.71373000  1.0 0.0786728279
H  H459  1  0.98853000  0.32527000  0.04707000  1.0 0.0786728279
H  H460  1  0.73297000  0.78173000  0.42753000  1.0 0.0608234609
H  H461  1  0.39963000  0.11507000  0.76087000  1.0 0.0608234609
H  H462  1  0.06630000  0.44840000  0.09420000  1.0 0.0608234609
H  H463  1  0.89723000  0.86857000  0.55877000  1.0 0.0678586071
H  H464  1  0.56390000  0.20190000  0.89210000  1.0 0.0678586071
H  H465  1  0.23057000  0.53523000  0.22543000  1.0 0.0678586071
H  H466  1  0.93483000  0.96387000  0.63737000  1.0 0.0678586071
H  H467  1  0.60150000  0.29720000  0.97070000  1.0 0.0678586071
H  H468  1  0.26817000  0.63053000  0.30403000  1.0 0.0678586071
H  H469  1  0.87477000  0.92183000  0.51013000  1.0 0.1276162807
H  H470  1  0.54143000  0.25517000  0.84347000  1.0 0.1276162807
H  H471  1  0.20810000  0.58850000  0.17680000  1.0 0.1276162807
H  H472  1  0.89343000  0.89907000  0.53487000  1.0 0.0678586071
H  H473  1  0.56010000  0.23240000  0.86820000  1.0 0.0678586071
H  H474  1  0.22677000  0.56573000  0.20153000  1.0 0.0678586071
H  H475  1  0.88813000  0.99547000  0.59277000  1.0 0.1074247724
H  H476  1  0.55480000  0.32880000  0.92610000  1.0 0.1074247724
H  H477  1  0.22147000  0.66213000  0.25943000  1.0 0.1074247724
H  H478  1  0.95293000  0.94147000  0.66327000  1.0 0.0786728279
H  H479  1  0.61960000  0.27480000  0.99660000  1.0 0.0786728279
H  H480  1  0.28627000  0.60813000  0.32993000  1.0 0.0786728279
H  H481  1  0.90580000  0.97210000  0.61790000  1.0 0.0678586071
H  H482  1  0.57247000  0.30543000  0.95123000  1.0 0.0678586071
H  H483  1  0.23913000  0.63877000  0.28457000  1.0 0.0678586071
H  H484  1  0.77457000  0.00513000  0.69533000  1.0 0.0678586071
H  H485  1  0.44123000  0.33847000  0.02867000  1.0 0.0678586071
H  H486  1  0.10790000  0.67180000  0.36200000  1.0 0.0678586071
H  H487  1  0.69597000  0.96413000  0.63763000  1.0 0.0608234609
H  H488  1  0.36263000  0.29747000  0.97097000  1.0 0.0608234609
H  H489  1  0.02930000  0.63080000  0.30430000  1.0 0.0608234609
H  H490  1  0.82320000  0.03130000  0.61960000  1.0 0.087949204
H  H491  1  0.48987000  0.36463000  0.95293000  1.0 0.087949204
H  H492  1  0.15653000  0.69797000  0.28627000  1.0 0.087949204
H  H493  1  0.79847000  0.02523000  0.66103000  1.0 0.0678586071
H  H494  1  0.46513000  0.35857000  0.99437000  1.0 0.0678586071
H  H495  1  0.13180000  0.69190000  0.32770000  1.0 0.0678586071
H  H496  1  0.74057000  0.96203000  0.55933000  1.0 0.1276162807
H  H497  1  0.40723000  0.29537000  0.89267000  1.0 0.1276162807
H  H498  1  0.07390000  0.62870000  0.22600000  1.0 0.1276162807
H  H499  1  0.67007000  0.95633000  0.67813000  1.0 0.0786728279
H  H500  1  0.33673000  0.28967000  0.01147000  1.0 0.0786728279
H  H501  1  0.00340000  0.62300000  0.34480000  1.0 0.0786728279
H  H502  1  0.71543000  0.95457000  0.60037000  1.0 0.0608234609
H  H503  1  0.38210000  0.28790000  0.93370000  1.0 0.0608234609
H  H504  1  0.04877000  0.62123000  0.26703000  1.0 0.0608234609
C  C1  1  0.11719000  0.20377000  0.42879000  1.0 0.0118846382
C  C2  1  0.78385000  0.53711000  0.76213000  1.0 0.0118846382
C  C3  1  0.45052000  0.87044000  0.09546000  1.0 0.0118846382
C  C4  1  0.17155000  0.25179000  0.42943000  1.0 -0.0916645392
C  C5  1  0.83822000  0.58512000  0.76276000  1.0 -0.0916645392
C  C6  1  0.50489000  0.91845000  0.09609000  1.0 -0.0916645392
C  C7  1  0.24822000  0.29449000  0.38230000  1.0 -0.0493944602
C  C8  1  0.91489000  0.62782000  0.71563000  1.0 -0.0493944602
C  C9  1  0.58156000  0.96115000  0.04896000  1.0 -0.0493944602
C  C10  1  0.19769000  0.26589000  0.41231000  1.0 -0.1503169013
C  C11  1  0.86435000  0.59923000  0.74565000  1.0 -0.1503169013
C  C12  1  0.53102000  0.93256000  0.07898000  1.0 -0.1503169013
C  C13  1  0.27430000  0.31021000  0.36599000  1.0 0.0412389417
C  C14  1  0.94097000  0.64354000  0.69932000  1.0 0.0412389417
C  C15  1  0.60763000  0.97688000  0.03266000  1.0 0.0412389417
C  C16  1  0.12223000  0.22514000  0.45979000  1.0 -0.0798898389
C  C17  1  0.78890000  0.55847000  0.79312000  1.0 -0.0798898389
C  C18  1  0.45557000  0.89180000  0.12645000  1.0 -0.0798898389
C  C19  1  0.14153000  0.21654000  0.41319000  1.0 -0.018619649
C  C20  1  0.80819000  0.54988000  0.74653000  1.0 -0.018619649
C  C21  1  0.47486000  0.88321000  0.07986000  1.0 -0.018619649
C  C22  1  0.17585000  0.27316000  0.46006000  1.0 -0.1393514107
C  C23  1  0.84252000  0.60649000  0.79339000  1.0 -0.134386192
C  C24  1  0.50919000  0.93982000  0.12672000  1.0 -0.1393514107
C  C25  1  0.21787000  0.26578000  0.36553000  1.0 -0.0798898389
C  C26  1  0.88453000  0.59912000  0.69887000  1.0 -0.0798898389
C  C27  1  0.55120000  0.93245000  0.03220000  1.0 -0.0798898389
C  C28  1  0.19294000  0.25190000  0.38043000  1.0 -0.1209210055
C  C29  1  0.85961000  0.58523000  0.71376000  1.0 -0.1209210055
C  C30  1  0.52627000  0.91857000  0.04710000  1.0 -0.1209210055
C  C31  1  0.25329000  0.30891000  0.41405000  1.0 -0.1090674802
C  C32  1  0.91996000  0.64224000  0.74738000  1.0 -0.1090674802
C  C33  1  0.58663000  0.97557000  0.08071000  1.0 -0.1090674802
C  C34  1  0.15171000  0.26009000  0.47549000  1.0 -0.134386192
C  C35  1  0.81838000  0.59342000  0.80882000  1.0 -0.134386192
C  C36  1  0.48505000  0.92675000  0.14215000  1.0 -0.134386192
C  C37  1  0.22864000  0.29500000  0.42918000  1.0 -0.1503169013
C  C38  1  0.89531000  0.62833000  0.76251000  1.0 -0.1503169013
C  C39  1  0.56198000  0.96166000  0.09584000  1.0 -0.1503169013
C  C40  1  0.41992000  0.32446000  0.54948000  1.0 -0.0098664975
C  C41  1  0.08659000  0.65779000  0.88281000  1.0 -0.0098664975
C  C42  1  0.75325000  0.99113000  0.21615000  1.0 -0.0098664975
C  C43  1  0.41357000  0.31747000  0.49511000  1.0 -0.1090674802
C  C44  1  0.08023000  0.65081000  0.82845000  1.0 -0.1090674802
C  C45  1  0.74690000  0.98414000  0.16178000  1.0 -0.1090674802
C  C46  1  0.37960000  0.33063000  0.41844000  1.0 -0.0606446056
C  C47  1  0.04626000  0.66397000  0.75178000  1.0 -0.0606446056
C  C48  1  0.71293000  0.99730000  0.08511000  1.0 -0.0606446056
C  C49  1  0.40154000  0.32256000  0.46898000  1.0 -0.1393514107
C  C50  1  0.06821000  0.65589000  0.80231000  1.0 -0.1503169013
C  C51  1  0.73487000  0.98923000  0.13565000  1.0 -0.1393514107
C  C52  1  0.36924000  0.33659000  0.39237000  1.0 0.0183179736
C  C53  1  0.03591000  0.66992000  0.72570000  1.0 0.0183179736
C  C54  1  0.70258000  0.00325000  0.05903000  1.0 0.0183179736
C  C55  1  0.43624000  0.30978000  0.54443000  1.0 -0.0098664975
C  C56  1  0.10290000  0.64312000  0.87777000  1.0 -0.0098664975
C  C57  1  0.76957000  0.97645000  0.21110000  1.0 -0.0098664975
C  C58  1  0.40835000  0.32849000  0.52514000  1.0 -0.0098664975
C  C59  1  0.07502000  0.66182000  0.85847000  1.0 -0.0098664975
C  C60  1  0.74168000  0.99516000  0.19181000  1.0 -0.0098664975
C  C61  1  0.43064000  0.30391000  0.49081000  1.0 -0.1503169013
C  C62  1  0.09730000  0.63725000  0.82415000  1.0 -0.1503169013
C  C63  1  0.76397000  0.97058000  0.15748000  1.0 -0.1503169013
C  C64  1  0.38125000  0.34905000  0.44880000  1.0 -0.0916645392
C  C65  1  0.04792000  0.68238000  0.78213000  1.0 -0.0916645392
C  C66  1  0.71458000  0.01572000  0.11547000  1.0 -0.0916645392
C  C67  1  0.39229000  0.34520000  0.47373000  1.0 -0.1503169013
C  C68  1  0.05896000  0.67853000  0.80706000  1.0 -0.1503169013
C  C69  1  0.72563000  0.01186000  0.14039000  1.0 -0.1503169013
C  C70  1  0.38895000  0.30823000  0.41337000  1.0 -0.1001624104
C  C71  1  0.05561000  0.64157000  0.74671000  1.0 -0.1001624104
C  C72  1  0.72228000  0.97490000  0.08004000  1.0 -0.1001624104
C  C73  1  0.44171000  0.29955000  0.51495000  1.0 -0.0916645392
C  C74  1  0.10837000  0.63289000  0.84829000  1.0 -0.0916645392
C  C75  1  0.77504000  0.96622000  0.18162000  1.0 -0.0916645392
C  C76  1  0.39969000  0.30384000  0.43802000  1.0 -0.1692223378
C  C77  1  0.06635000  0.63718000  0.77136000  1.0 -0.1692223378
C  C78  1  0.73302000  0.97051000  0.10469000  1.0 -0.1692223378
C  C79  1  0.23787000  0.02173000  0.24675000  1.0 0.0042514511
C  C80  1  0.90454000  0.35506000  0.58008000  1.0 0.0042514511
C  C81  1  0.57121000  0.68839000  0.91341000  1.0 0.0042514511
C  C82  1  0.23724000  0.07546000  0.25310000  1.0 -0.018619649
C  C83  1  0.90391000  0.40879000  0.58643000  1.0 -0.018619649
C  C84  1  0.57057000  0.74213000  0.91977000  1.0 -0.018619649
C  C85  1  0.28437000  0.19926000  0.28707000  1.0 -0.0403349168
C  C86  1  0.95104000  0.53259000  0.62040000  1.0 -0.0403349168
C  C87  1  0.61770000  0.86593000  0.95374000  1.0 -0.0403349168
C  C88  1  0.25435000  0.11871000  0.26513000  1.0 -0.1001624104
C  C89  1  0.92102000  0.45204000  0.59846000  1.0 -0.1001624104
C  C90  1  0.58769000  0.78537000  0.93179000  1.0 -0.1001624104
C  C91  1  0.30068000  0.24164000  0.29742000  1.0 -0.0347746318
C  C92  1  0.96734000  0.57498000  0.63076000  1.0 -0.0403349168
C  C93  1  0.63401000  0.90831000  0.96409000  1.0 -0.0347746318
C  C94  1  0.20688000  0.99578000  0.23043000  1.0 -0.018619649
C  C95  1  0.87355000  0.32911000  0.56376000  1.0 -0.018619649
C  C96  1  0.54021000  0.66245000  0.89710000  1.0 -0.018619649
C  C97  1  0.25347000  0.06167000  0.25832000  1.0 0.0118846382
C  C98  1  0.92014000  0.39500000  0.59165000  1.0 0.0118846382
C  C99  1  0.58681000  0.72833000  0.92498000  1.0 0.0118846382
C  C100  1  0.20661000  0.04913000  0.23603000  1.0 -0.0493944602
C  C101  1  0.87328000  0.38246000  0.56936000  1.0 -0.0493944602
C  C102  1  0.53994000  0.71580000  0.90270000  1.0 -0.0493944602
C  C103  1  0.30113000  0.18567000  0.28542000  1.0 -0.0606446056
C  C104  1  0.96780000  0.51900000  0.61875000  1.0 -0.0606446056
C  C105  1  0.63447000  0.85233000  0.95208000  1.0 -0.0606446056
C  C106  1  0.28624000  0.14584000  0.27437000  1.0 -0.1393514107
C  C107  1  0.95290000  0.47918000  0.60771000  1.0 -0.134386192
C  C108  1  0.61957000  0.81251000  0.94104000  1.0 -0.134386192
C  C109  1  0.25262000  0.17258000  0.27772000  1.0 -0.0798898389
C  C110  1  0.91929000  0.50591000  0.61105000  1.0 -0.0798898389
C  C111  1  0.58595000  0.83925000  0.94439000  1.0 -0.0798898389
C  C112  1  0.19118000  0.00956000  0.22496000  1.0 -0.0403349168
C  C113  1  0.85785000  0.34289000  0.55829000  1.0 -0.0403349168
C  C114  1  0.52451000  0.67623000  0.89163000  1.0 -0.0403349168
C  C115  1  0.23749000  0.13280000  0.26698000  1.0 -0.134386192
C  C116  1  0.90416000  0.46613000  0.60031000  1.0 -0.134386192
C  C117  1  0.57082000  0.79947000  0.93365000  1.0 -0.134386192
C  C118  1  0.06613000  0.16287000  0.38789000  1.0 0.0118846382
C  C119  1  0.73280000  0.49620000  0.72122000  1.0 0.0118846382
C  C120  1  0.39947000  0.82953000  0.05455000  1.0 0.0118846382
C  C121  1  0.04335000  0.17803000  0.35567000  1.0 -0.0916645392
C  C122  1  0.71002000  0.51136000  0.68900000  1.0 -0.0916645392
C  C123  1  0.37669000  0.84469000  0.02233000  1.0 -0.0916645392
C  C124  1  0.02657000  0.25510000  0.34291000  1.0 -0.0493944602
C  C125  1  0.69324000  0.58843000  0.67624000  1.0 -0.0493944602
C  C126  1  0.35990000  0.92177000  0.00958000  1.0 -0.0493944602
C  C127  1  0.03803000  0.20555000  0.35197000  1.0 -0.1503169013
C  C128  1  0.70470000  0.53888000  0.68530000  1.0 -0.1503169013
C  C129  1  0.37137000  0.87221000  0.01863000  1.0 -0.1503169013
C  C130  1  0.02185000  0.28208000  0.33786000  1.0 0.0412389417
C  C131  1  0.68851000  0.61542000  0.67120000  1.0 0.0412389417
C  C132  1  0.35518000  0.94875000  0.00453000  1.0 0.0412389417
C  C133  1  0.05467000  0.12866000  0.36331000  1.0 -0.0798898389
C  C134  1  0.72133000  0.46200000  0.69665000  1.0 -0.0798898389
C  C135  1  0.38800000  0.79533000  0.02998000  1.0 -0.0798898389
C  C136  1  0.06071000  0.18792000  0.38457000  1.0 -0.018619649
C  C137  1  0.72737000  0.52126000  0.71791000  1.0 -0.018619649
C  C138  1  0.39404000  0.85459000  0.05124000  1.0 -0.018619649
C  C139  1  0.03288000  0.14431000  0.33121000  1.0 -0.1393514107
C  C140  1  0.69955000  0.47764000  0.66454000  1.0 -0.1393514107
C  C141  1  0.36621000  0.81098000  0.99788000  1.0 -0.1393514107
C  C142  1  0.04897000  0.26788000  0.36763000  1.0 -0.0798898389
C  C143  1  0.71563000  0.60122000  0.70097000  1.0 -0.0798898389
C  C144  1  0.38230000  0.93455000  0.03430000  1.0 -0.0798898389
C  C145  1  0.05471000  0.24339000  0.37192000  1.0 -0.1209210055
C  C146  1  0.72137000  0.57673000  0.70526000  1.0 -0.1209210055
C  C147  1  0.38804000  0.91006000  0.03859000  1.0 -0.1209210055
C  C148  1  0.00995000  0.21757000  0.32271000  1.0 -0.1090674802
C  C149  1  0.67661000  0.55091000  0.65605000  1.0 -0.1090674802
C  C150  1  0.34328000  0.88424000  0.98938000  1.0 -0.1090674802
C  C151  1  0.03802000  0.11938000  0.33478000  1.0 -0.134386192
C  C152  1  0.70469000  0.45271000  0.66811000  1.0 -0.134386192
C  C153  1  0.37135000  0.78605000  0.00145000  1.0 -0.134386192
C  C154  1  0.01524000  0.19276000  0.32694000  1.0 -0.1503169013
C  C155  1  0.68190000  0.52610000  0.66028000  1.0 -0.1503169013
C  C156  1  0.34857000  0.85943000  0.99361000  1.0 -0.1503169013
C  C157  1  0.76340000  0.04218000  0.26720000  1.0 -0.0098664975
C  C158  1  0.43007000  0.37551000  0.60053000  1.0 -0.0098664975
C  C159  1  0.09673000  0.70885000  0.93387000  1.0 -0.0098664975
C  C160  1  0.80134000  0.11234000  0.28998000  1.0 -0.1090674802
C  C161  1  0.46801000  0.44567000  0.62331000  1.0 -0.1090674802
C  C162  1  0.13467000  0.77901000  0.95665000  1.0 -0.1090674802
C  C163  1  0.89520000  0.21895000  0.30676000  1.0 -0.0606446056
C  C164  1  0.56186000  0.55229000  0.64010000  1.0 -0.0606446056
C  C165  1  0.22853000  0.88562000  0.97343000  1.0 -0.0606446056
C  C166  1  0.83418000  0.14888000  0.29530000  1.0 -0.1393514107
C  C167  1  0.50085000  0.48221000  0.62863000  1.0 -0.1393514107
C  C168  1  0.16751000  0.81555000  0.96197000  1.0 -0.1503169013
C  C169  1  0.92690000  0.25571000  0.31149000  1.0 0.0183179736
C  C170  1  0.59357000  0.58904000  0.64482000  1.0 0.0183179736
C  C171  1  0.26024000  0.92237000  0.97815000  1.0 0.0183179736
C  C172  1  0.74066000  0.04402000  0.27867000  1.0 -0.0098664975
C  C173  1  0.40733000  0.37735000  0.61200000  1.0 -0.0098664975
C  C174  1  0.07400000  0.71068000  0.94533000  1.0 -0.0098664975
C  C175  1  0.79388000  0.07598000  0.27263000  1.0 -0.0098664975
C  C176  1  0.46055000  0.40931000  0.60596000  1.0 -0.0098664975
C  C177  1  0.12722000  0.74264000  0.93929000  1.0 -0.0098664975
C  C178  1  0.77810000  0.11355000  0.30045000  1.0 -0.1503169013
C  C179  1  0.44476000  0.44689000  0.63379000  1.0 -0.1503169013
C  C180  1  0.11143000  0.78022000  0.96712000  1.0 -0.1503169013
C  C181  1  0.88558000  0.18462000  0.28437000  1.0 -0.0916645392
C  C182  1  0.55225000  0.51795000  0.61770000  1.0 -0.0916645392
C  C183  1  0.21892000  0.85128000  0.95103000  1.0 -0.0916645392
C  C184  1  0.85535000  0.15010000  0.27863000  1.0 -0.1503169013
C  C185  1  0.52202000  0.48343000  0.61196000  1.0 -0.1503169013
C  C186  1  0.18869000  0.81676000  0.94529000  1.0 -0.1503169013
C  C187  1  0.87429000  0.21825000  0.32339000  1.0 -0.1001624104
C  C188  1  0.54096000  0.55158000  0.65672000  1.0 -0.1001624104
C  C189  1  0.20763000  0.88491000  0.99005000  1.0 -0.1001624104
C  C190  1  0.74803000  0.07991000  0.29531000  1.0 -0.0916645392
C  C191  1  0.41469000  0.41325000  0.62865000  1.0 -0.0916645392
C  C192  1  0.08136000  0.74658000  0.96198000  1.0 -0.0916645392
C  C193  1  0.84419000  0.18392000  0.31810000  1.0 -0.1692223378
C  C194  1  0.51086000  0.51725000  0.65143000  1.0 -0.1692223378
C  C195  1  0.17753000  0.85058000  0.98476000  1.0 -0.1692223378
C  C196  1  0.94545000  0.34491000  0.56993000  1.0 0.0042514511
C  C197  1  0.61211000  0.67825000  0.90327000  1.0 0.0042514511
C  C198  1  0.27878000  0.01158000  0.23660000  1.0 0.0042514511
C  C199  1  0.97767000  0.35435000  0.53199000  1.0 -0.018619649
C  C200  1  0.64433000  0.68769000  0.86533000  1.0 -0.018619649
C  C201  1  0.31100000  0.02102000  0.19866000  1.0 -0.018619649
C  C202  1  0.99042000  0.35033000  0.43814000  1.0 -0.0403349168
C  C203  1  0.65709000  0.68366000  0.77147000  1.0 -0.0403349168
C  C204  1  0.32376000  0.01699000  0.10480000  1.0 -0.0403349168
C  C205  1  0.98137000  0.35273000  0.49915000  1.0 -0.1001624104
C  C206  1  0.64803000  0.68607000  0.83249000  1.0 -0.1001624104
C  C207  1  0.31470000  0.01940000  0.16582000  1.0 -0.1001624104
C  C208  1  0.99547000  0.35065000  0.40643000  1.0 -0.0403349168
C  C209  1  0.66214000  0.68398000  0.73976000  1.0 -0.0403349168
C  C210  1  0.32880000  0.01732000  0.07310000  1.0 -0.0403349168
C  C211  1  0.97002000  0.35802000  0.59267000  1.0 -0.018619649
C  C212  1  0.63669000  0.69135000  0.92600000  1.0 -0.018619649
C  C213  1  0.30335000  0.02469000  0.25934000  1.0 -0.018619649
C  C214  1  0.94876000  0.34280000  0.53945000  1.0 0.0118846382
C  C215  1  0.61543000  0.67613000  0.87278000  1.0 0.0118846382
C  C216  1  0.28209000  0.00947000  0.20612000  1.0 0.0118846382
C  C217  1  0.00212000  0.36834000  0.55524000  1.0 -0.0493944602
C  C218  1  0.66879000  0.70167000  0.88857000  1.0 -0.0493944602
C  C219  1  0.33546000  0.03500000  0.22190000  1.0 -0.0493944602
C  C220  1  0.96570000  0.34800000  0.44775000  1.0 -0.0606446056
C  C221  1  0.63237000  0.68133000  0.78108000  1.0 -0.0606446056
C  C222  1  0.29903000  0.01467000  0.11442000  1.0 -0.0606446056
C  C223  1  0.96141000  0.34945000  0.47798000  1.0 -0.134386192
C  C224  1  0.62808000  0.68278000  0.81131000  1.0 -0.134386192
C  C225  1  0.29474000  0.01612000  0.14465000  1.0 -0.1393514107
C  C226  1  0.01062000  0.35390000  0.45904000  1.0 -0.0798898389
C  C227  1  0.67729000  0.68723000  0.79237000  1.0 -0.0798898389
C  C228  1  0.34395000  0.02057000  0.12571000  1.0 -0.0798898389
C  C229  1  0.99855000  0.36991000  0.58531000  1.0 -0.0403349168
C  C230  1  0.66522000  0.70324000  0.91864000  1.0 -0.0403349168
C  C231  1  0.33189000  0.03657000  0.25197000  1.0 -0.0403349168
C  C232  1  0.00639000  0.35496000  0.48914000  1.0 -0.134386192
C  C233  1  0.67306000  0.68829000  0.82247000  1.0 -0.134386192
C  C234  1  0.33972000  0.02163000  0.15581000  1.0 -0.134386192
C  C235  1  0.76720000  0.98842000  0.26340000  1.0 0.0042514511
C  C236  1  0.43387000  0.32175000  0.59673000  1.0 0.0042514511
C  C237  1  0.10053000  0.65509000  0.93007000  1.0 0.0042514511
C  C238  1  0.78998000  0.97898000  0.30134000  1.0 -0.018619649
C  C239  1  0.45665000  0.31231000  0.63467000  1.0 -0.018619649
C  C240  1  0.12331000  0.64565000  0.96801000  1.0 -0.018619649
C  C241  1  0.80676000  0.98301000  0.39520000  1.0 -0.0403349168
C  C242  1  0.47343000  0.31634000  0.72853000  1.0 -0.0403349168
C  C243  1  0.14010000  0.64967000  0.06186000  1.0 -0.0403349168
C  C244  1  0.79530000  0.98060000  0.33418000  1.0 -0.1001624104
C  C245  1  0.46197000  0.31393000  0.66751000  1.0 -0.1001624104
C  C246  1  0.12863000  0.64727000  0.00085000  1.0 -0.1001624104
C  C247  1  0.81149000  0.98268000  0.42690000  1.0 -0.0403349168
C  C248  1  0.47815000  0.31602000  0.76024000  1.0 -0.0403349168
C  C249  1  0.14482000  0.64935000  0.09357000  1.0 -0.0403349168
C  C250  1  0.77867000  0.97531000  0.24066000  1.0 -0.018619649
C  C251  1  0.44533000  0.30865000  0.57400000  1.0 -0.018619649
C  C252  1  0.11200000  0.64198000  0.90733000  1.0 -0.018619649
C  C253  1  0.77263000  0.99053000  0.29388000  1.0 0.0118846382
C  C254  1  0.43929000  0.32387000  0.62722000  1.0 0.0118846382
C  C255  1  0.10596000  0.65720000  0.96055000  1.0 0.0118846382
C  C256  1  0.80045000  0.96500000  0.27810000  1.0 -0.0493944602
C  C257  1  0.46712000  0.29833000  0.61143000  1.0 -0.0493944602
C  C258  1  0.13379000  0.63166000  0.94476000  1.0 -0.0493944602
C  C259  1  0.78437000  0.98533000  0.38558000  1.0 -0.0606446056
C  C260  1  0.45103000  0.31867000  0.71892000  1.0 -0.0606446056
C  C261  1  0.11770000  0.65200000  0.05225000  1.0 -0.0606446056
C  C262  1  0.77863000  0.98388000  0.35535000  1.0 -0.134386192
C  C263  1  0.44529000  0.31722000  0.68869000  1.0 -0.134386192
C  C264  1  0.11196000  0.65055000  0.02202000  1.0 -0.1393514107
C  C265  1  0.82339000  0.97943000  0.37429000  1.0 -0.0798898389
C  C266  1  0.49005000  0.31277000  0.70763000  1.0 -0.0798898389
C  C267  1  0.15672000  0.64610000  0.04096000  1.0 -0.0798898389
C  C268  1  0.79531000  0.96343000  0.24803000  1.0 -0.0403349168
C  C269  1  0.46198000  0.29676000  0.58136000  1.0 -0.0403349168
C  C270  1  0.12865000  0.63009000  0.91469000  1.0 -0.0403349168
C  C271  1  0.81810000  0.97837000  0.34419000  1.0 -0.134386192
C  C272  1  0.48476000  0.31171000  0.67753000  1.0 -0.134386192
C  C273  1  0.15143000  0.64504000  0.01086000  1.0 -0.134386192
C  C274  1  0.06993000  0.17047000  0.44545000  1.0 0.0118846382
C  C275  1  0.73660000  0.50380000  0.77878000  1.0 0.0118846382
C  C276  1  0.40327000  0.83713000  0.11211000  1.0 0.0118846382
C  C277  1  0.03199000  0.15531000  0.47767000  1.0 -0.0916645392
C  C278  1  0.69866000  0.48864000  0.81100000  1.0 -0.0916645392
C  C279  1  0.36533000  0.82197000  0.14433000  1.0 -0.0916645392
C  C280  1  0.93814000  0.07823000  0.49042000  1.0 -0.0493944602
C  C281  1  0.60480000  0.41157000  0.82376000  1.0 -0.0493944602
C  C282  1  0.27147000  0.74490000  0.15709000  1.0 -0.0493944602
C  C283  1  0.99915000  0.12779000  0.48137000  1.0 -0.1503169013
C  C284  1  0.66582000  0.46112000  0.81470000  1.0 -0.1503169013
C  C285  1  0.33249000  0.79445000  0.14803000  1.0 -0.1503169013
C  C286  1  0.90643000  0.05125000  0.49547000  1.0 0.0412389417
C  C287  1  0.57310000  0.38458000  0.82880000  1.0 0.0412389417
C  C288  1  0.23976000  0.71792000  0.16214000  1.0 0.0412389417
C  C289  1  0.09267000  0.20467000  0.47002000  1.0 -0.0798898389
C  C290  1  0.75934000  0.53800000  0.80335000  1.0 -0.0798898389
C  C291  1  0.42600000  0.87134000  0.13669000  1.0 -0.0798898389
C  C292  1  0.03945000  0.14541000  0.44876000  1.0 -0.018619649
C  C293  1  0.70612000  0.47874000  0.78209000  1.0 -0.018619649
C  C294  1  0.37278000  0.81208000  0.11543000  1.0 -0.018619649
C  C295  1  0.05524000  0.18902000  0.50212000  1.0 -0.1393514107
C  C296  1  0.72190000  0.52236000  0.83546000  1.0 -0.134386192
C  C297  1  0.38857000  0.85569000  0.16879000  1.0 -0.1393514107
C  C298  1  0.94775000  0.06545000  0.46570000  1.0 -0.0798898389
C  C299  1  0.61442000  0.39878000  0.79903000  1.0 -0.0798898389
C  C300  1  0.28108000  0.73212000  0.13237000  1.0 -0.0798898389
C  C301  1  0.97798000  0.08994000  0.46141000  1.0 -0.1209210055
C  C302  1  0.64465000  0.42327000  0.79474000  1.0 -0.1209210055
C  C303  1  0.31131000  0.75661000  0.12808000  1.0 -0.1209210055
C  C304  1  0.95904000  0.11576000  0.51062000  1.0 -0.1090674802
C  C305  1  0.62571000  0.44909000  0.84395000  1.0 -0.1090674802
C  C306  1  0.29237000  0.78243000  0.17729000  1.0 -0.1090674802
C  C307  1  0.08531000  0.21395000  0.49855000  1.0 -0.134386192
C  C308  1  0.75197000  0.54729000  0.83189000  1.0 -0.134386192
C  C309  1  0.41864000  0.88062000  0.16522000  1.0 -0.134386192
C  C310  1  0.98914000  0.14057000  0.50639000  1.0 -0.1503169013
C  C311  1  0.65581000  0.47390000  0.83972000  1.0 -0.1503169013
C  C312  1  0.32247000  0.80724000  0.17306000  1.0 -0.1503169013
C  C313  1  0.88789000  0.29115000  0.56613000  1.0 -0.0098664975
C  C314  1  0.55455000  0.62449000  0.89947000  1.0 -0.0098664975
C  C315  1  0.22122000  0.95782000  0.23280000  1.0 -0.0098664975
C  C316  1  0.85567000  0.22099000  0.54335000  1.0 -0.1090674802
C  C317  1  0.52233000  0.55433000  0.87669000  1.0 -0.1090674802
C  C318  1  0.18900000  0.88766000  0.21002000  1.0 -0.1090674802
C  C319  1  0.84291000  0.11438000  0.52657000  1.0 -0.0606446056
C  C320  1  0.50958000  0.44771000  0.85990000  1.0 -0.0606446056
C  C321  1  0.17624000  0.78105000  0.19324000  1.0 -0.0606446056
C  C322  1  0.85197000  0.18445000  0.53803000  1.0 -0.1393514107
C  C323  1  0.51863000  0.51779000  0.87137000  1.0 -0.1393514107
C  C324  1  0.18530000  0.85112000  0.20470000  1.0 -0.1503169013
C  C325  1  0.83786000  0.07763000  0.52185000  1.0 0.0183179736
C  C326  1  0.50453000  0.41096000  0.85518000  1.0 0.0183179736
C  C327  1  0.17120000  0.74429000  0.18851000  1.0 0.0183179736
C  C328  1  0.86331000  0.28932000  0.55467000  1.0 -0.0098664975
C  C329  1  0.52998000  0.62265000  0.88800000  1.0 -0.0098664975
C  C330  1  0.19665000  0.95598000  0.22133000  1.0 -0.0098664975
C  C331  1  0.88457000  0.25736000  0.56071000  1.0 -0.0098664975
C  C332  1  0.55124000  0.59069000  0.89404000  1.0 -0.0098664975
C  C333  1  0.21791000  0.92402000  0.22737000  1.0 -0.0098664975
C  C334  1  0.83121000  0.21978000  0.53288000  1.0 -0.1503169013
C  C335  1  0.49788000  0.55311000  0.86621000  1.0 -0.1503169013
C  C336  1  0.16454000  0.88645000  0.19955000  1.0 -0.1503169013
C  C337  1  0.86763000  0.14872000  0.54897000  1.0 -0.0916645392
C  C338  1  0.53430000  0.48205000  0.88230000  1.0 -0.0916645392
C  C339  1  0.20097000  0.81538000  0.21563000  1.0 -0.0916645392
C  C340  1  0.87192000  0.18324000  0.55471000  1.0 -0.1503169013
C  C341  1  0.53859000  0.51657000  0.88804000  1.0 -0.1503169013
C  C342  1  0.20526000  0.84990000  0.22137000  1.0 -0.1503169013
C  C343  1  0.82271000  0.11509000  0.50995000  1.0 -0.1001624104
C  C344  1  0.48938000  0.44842000  0.84328000  1.0 -0.1001624104
C  C345  1  0.15605000  0.78175000  0.17661000  1.0 -0.1001624104
C  C346  1  0.83478000  0.25342000  0.53802000  1.0 -0.0916645392
C  C347  1  0.50145000  0.58675000  0.87135000  1.0 -0.0916645392
C  C348  1  0.16811000  0.92009000  0.20469000  1.0 -0.0916645392
C  C349  1  0.82694000  0.14942000  0.51524000  1.0 -0.1692223378
C  C350  1  0.49361000  0.48275000  0.84857000  1.0 -0.1692223378
C  C351  1  0.16028000  0.81608000  0.18190000  1.0 -0.1692223378
C  C352  1  0.38281000  0.31161000  0.58659000  1.0 0.0042514511
C  C353  1  0.04948000  0.64494000  0.91992000  1.0 0.0042514511
C  C354  1  0.71615000  0.97827000  0.25325000  1.0 0.0042514511
C  C355  1  0.32845000  0.25787000  0.58023000  1.0 -0.018619649
C  C356  1  0.99511000  0.59121000  0.91357000  1.0 -0.018619649
C  C357  1  0.66178000  0.92454000  0.24690000  1.0 -0.018619649
C  C358  1  0.25178000  0.13407000  0.54626000  1.0 -0.0403349168
C  C359  1  0.91844000  0.46741000  0.87960000  1.0 -0.0403349168
C  C360  1  0.58511000  0.80074000  0.21293000  1.0 -0.0403349168
C  C361  1  0.30231000  0.21463000  0.56821000  1.0 -0.1001624104
C  C362  1  0.96898000  0.54796000  0.90154000  1.0 -0.1001624104
C  C363  1  0.63565000  0.88129000  0.23487000  1.0 -0.1001624104
C  C364  1  0.22570000  0.09169000  0.53591000  1.0 -0.0347746318
C  C365  1  0.89237000  0.42502000  0.86924000  1.0 -0.0347746318
C  C366  1  0.55903000  0.75836000  0.20258000  1.0 -0.0403349168
C  C367  1  0.37777000  0.33755000  0.60290000  1.0 -0.018619649
C  C368  1  0.04443000  0.67089000  0.93624000  1.0 -0.018619649
C  C369  1  0.71110000  0.00422000  0.26957000  1.0 -0.018619649
C  C370  1  0.35847000  0.27167000  0.57502000  1.0 0.0118846382
C  C371  1  0.02514000  0.60500000  0.90835000  1.0 0.0118846382
C  C372  1  0.69181000  0.93833000  0.24168000  1.0 0.0118846382
C  C373  1  0.32415000  0.28420000  0.59730000  1.0 -0.0493944602
C  C374  1  0.99081000  0.61754000  0.93064000  1.0 -0.0493944602
C  C375  1  0.65748000  0.95087000  0.26397000  1.0 -0.0493944602
C  C376  1  0.28213000  0.14767000  0.54792000  1.0 -0.0606446056
C  C377  1  0.94880000  0.48100000  0.88125000  1.0 -0.0606446056
C  C378  1  0.61547000  0.81433000  0.21458000  1.0 -0.0606446056
C  C379  1  0.30706000  0.18749000  0.55896000  1.0 -0.134386192
C  C380  1  0.97373000  0.52082000  0.89229000  1.0 -0.134386192
C  C381  1  0.64039000  0.85416000  0.22563000  1.0 -0.1393514107
C  C382  1  0.24671000  0.16075000  0.55561000  1.0 -0.0798898389
C  C383  1  0.91337000  0.49409000  0.88895000  1.0 -0.0798898389
C  C384  1  0.58004000  0.82742000  0.22228000  1.0 -0.0798898389
C  C385  1  0.34829000  0.32377000  0.60837000  1.0 -0.0403349168
C  C386  1  0.01495000  0.65711000  0.94171000  1.0 -0.0403349168
C  C387  1  0.68162000  0.99044000  0.27504000  1.0 -0.0403349168
C  C388  1  0.27136000  0.20053000  0.56635000  1.0 -0.134386192
C  C389  1  0.93802000  0.53387000  0.89969000  1.0 -0.134386192
C  C390  1  0.60469000  0.86720000  0.23302000  1.0 -0.134386192
C  C391  1  0.08008000  0.12956000  0.40454000  1.0 0.0118846382
C  C392  1  0.74675000  0.46289000  0.73787000  1.0 0.0118846382
C  C393  1  0.41341000  0.79623000  0.07121000  1.0 0.0118846382
C  C394  1  0.08643000  0.08155000  0.40391000  1.0 -0.0916645392
C  C395  1  0.75310000  0.41488000  0.73724000  1.0 -0.0916645392
C  C396  1  0.41977000  0.74821000  0.07057000  1.0 -0.0916645392
C  C397  1  0.12040000  0.03885000  0.45104000  1.0 -0.0493944602
C  C398  1  0.78707000  0.37218000  0.78437000  1.0 -0.0493944602
C  C399  1  0.45374000  0.70551000  0.11770000  1.0 -0.0493944602
C  C400  1  0.09846000  0.06744000  0.42102000  1.0 -0.1503169013
C  C401  1  0.76513000  0.40077000  0.75435000  1.0 -0.1503169013
C  C402  1  0.43179000  0.73411000  0.08769000  1.0 -0.1503169013
C  C403  1  0.13076000  0.02312000  0.46734000  1.0 0.0412389417
C  C404  1  0.79742000  0.35646000  0.80068000  1.0 0.0412389417
C  C405  1  0.46409000  0.68979000  0.13401000  1.0 0.0412389417
C  C406  1  0.06376000  0.10820000  0.37355000  1.0 -0.0798898389
C  C407  1  0.73043000  0.44153000  0.70688000  1.0 -0.0798898389
C  C408  1  0.39710000  0.77486000  0.04021000  1.0 -0.0798898389
C  C409  1  0.09165000  0.11679000  0.42014000  1.0 -0.018619649
C  C410  1  0.75832000  0.45012000  0.75347000  1.0 -0.018619649
C  C411  1  0.42498000  0.78346000  0.08681000  1.0 -0.018619649
C  C412  1  0.06936000  0.06018000  0.37328000  1.0 -0.1393514107
C  C413  1  0.73603000  0.39351000  0.70661000  1.0 -0.1393514107
C  C414  1  0.40270000  0.72684000  0.03994000  1.0 -0.1393514107
C  C415  1  0.11875000  0.06755000  0.46780000  1.0 -0.0798898389
C  C416  1  0.78542000  0.40088000  0.80113000  1.0 -0.0798898389
C  C417  1  0.45208000  0.73422000  0.13447000  1.0 -0.0798898389
C  C418  1  0.10771000  0.08143000  0.45290000  1.0 -0.1209210055
C  C419  1  0.77437000  0.41477000  0.78624000  1.0 -0.1209210055
C  C420  1  0.44104000  0.74810000  0.11957000  1.0 -0.1209210055
C  C421  1  0.11105000  0.02443000  0.41929000  1.0 -0.1090674802
C  C422  1  0.77772000  0.35776000  0.75262000  1.0 -0.1090674802
C  C423  1  0.44439000  0.69109000  0.08595000  1.0 -0.1090674802
C  C424  1  0.05829000  0.07325000  0.35785000  1.0 -0.1393514107
C  C425  1  0.72496000  0.40658000  0.69118000  1.0 -0.134386192
C  C426  1  0.39163000  0.73991000  0.02451000  1.0 -0.134386192
C  C427  1  0.10031000  0.03834000  0.40416000  1.0 -0.1503169013
C  C428  1  0.76698000  0.37167000  0.73749000  1.0 -0.1503169013
C  C429  1  0.43365000  0.70500000  0.07082000  1.0 -0.1503169013
C  C430  1  0.26213000  0.00887000  0.28385000  1.0 -0.0098664975
C  C431  1  0.92879000  0.34221000  0.61719000  1.0 -0.0098664975
C  C432  1  0.59546000  0.67554000  0.95052000  1.0 -0.0098664975
C  C433  1  0.26276000  0.01586000  0.33822000  1.0 -0.1090674802
C  C434  1  0.92943000  0.34919000  0.67155000  1.0 -0.1090674802
C  C435  1  0.59609000  0.68253000  0.00489000  1.0 -0.1090674802
C  C436  1  0.21563000  0.00270000  0.41489000  1.0 -0.0606446056
C  C437  1  0.88230000  0.33603000  0.74822000  1.0 -0.0606446056
C  C438  1  0.54896000  0.66937000  0.08156000  1.0 -0.0606446056
C  C439  1  0.24565000  0.01077000  0.36435000  1.0 -0.1503169013
C  C440  1  0.91231000  0.34411000  0.69769000  1.0 -0.1393514107
C  C441  1  0.57898000  0.67744000  0.03102000  1.0 -0.1393514107
C  C442  1  0.19932000  0.99675000  0.44097000  1.0 0.0183179736
C  C443  1  0.86599000  0.33008000  0.77430000  1.0 0.0183179736
C  C444  1  0.53266000  0.66341000  0.10763000  1.0 0.0183179736
C  C445  1  0.29312000  0.02355000  0.28890000  1.0 -0.0098664975
C  C446  1  0.95979000  0.35688000  0.62223000  1.0 -0.0098664975
C  C447  1  0.62645000  0.69022000  0.95557000  1.0 -0.0098664975
C  C448  1  0.24653000  0.00484000  0.30819000  1.0 -0.0098664975
C  C449  1  0.91319000  0.33818000  0.64153000  1.0 -0.0098664975
C  C450  1  0.57986000  0.67151000  0.97486000  1.0 -0.0098664975
C  C451  1  0.29339000  0.02942000  0.34252000  1.0 -0.1503169013
C  C452  1  0.96006000  0.36275000  0.67585000  1.0 -0.1503169013
C  C453  1  0.62672000  0.69609000  0.00919000  1.0 -0.1503169013
C  C454  1  0.19887000  0.98428000  0.38453000  1.0 -0.0916645392
C  C455  1  0.86553000  0.31762000  0.71787000  1.0 -0.0916645392
C  C456  1  0.53220000  0.65095000  0.05120000  1.0 -0.0916645392
C  C457  1  0.21376000  0.98814000  0.35961000  1.0 -0.1503169013
C  C458  1  0.88043000  0.32147000  0.69294000  1.0 -0.1503169013
C  C459  1  0.54710000  0.65480000  0.02627000  1.0 -0.1503169013
C  C460  1  0.24738000  0.02510000  0.41996000  1.0 -0.1001624104
C  C461  1  0.91405000  0.35843000  0.75329000  1.0 -0.1001624104
C  C462  1  0.58071000  0.69177000  0.08663000  1.0 -0.1001624104
C  C463  1  0.30882000  0.03378000  0.31838000  1.0 -0.0916645392
C  C464  1  0.97549000  0.36711000  0.65171000  1.0 -0.0916645392
C  C465  1  0.64215000  0.70045000  0.98505000  1.0 -0.0916645392
C  C466  1  0.26251000  0.02949000  0.39531000  1.0 -0.1692223378
C  C467  1  0.92918000  0.36282000  0.72864000  1.0 -0.1692223378
C  C468  1  0.59584000  0.69616000  0.06198000  1.0 -0.1692223378
C  C469  1  0.88281000  0.79623000  0.57121000  1.0 0.0118846382
C  C470  1  0.54948000  0.12956000  0.90454000  1.0 0.0118846382
C  C471  1  0.21615000  0.46289000  0.23787000  1.0 0.0118846382
C  C472  1  0.82845000  0.74821000  0.57057000  1.0 -0.0916645392
C  C473  1  0.49511000  0.08155000  0.90391000  1.0 -0.0916645392
C  C474  1  0.16178000  0.41488000  0.23724000  1.0 -0.0916645392
C  C475  1  0.75178000  0.70551000  0.61770000  1.0 -0.0493944602
C  C476  1  0.41844000  0.03885000  0.95104000  1.0 -0.0493944602
C  C477  1  0.08511000  0.37218000  0.28437000  1.0 -0.0493944602
C  C478  1  0.80231000  0.73411000  0.58769000  1.0 -0.1503169013
C  C479  1  0.46898000  0.06744000  0.92102000  1.0 -0.1503169013
C  C480  1  0.13565000  0.40077000  0.25435000  1.0 -0.1503169013
C  C481  1  0.72570000  0.68979000  0.63401000  1.0 0.0412389417
C  C482  1  0.39237000  0.02312000  0.96734000  1.0 0.0412389417
C  C483  1  0.05903000  0.35646000  0.30068000  1.0 0.0412389417
C  C484  1  0.87777000  0.77486000  0.54021000  1.0 -0.0798898389
C  C485  1  0.54443000  0.10820000  0.87355000  1.0 -0.0798898389
C  C486  1  0.21110000  0.44153000  0.20688000  1.0 -0.0798898389
C  C487  1  0.85847000  0.78346000  0.58681000  1.0 -0.018619649
C  C488  1  0.52514000  0.11679000  0.92014000  1.0 -0.018619649
C  C489  1  0.19181000  0.45012000  0.25347000  1.0 -0.018619649
C  C490  1  0.82415000  0.72684000  0.53994000  1.0 -0.1393514107
C  C491  1  0.49081000  0.06018000  0.87328000  1.0 -0.1393514107
C  C492  1  0.15748000  0.39351000  0.20661000  1.0 -0.1393514107
C  C493  1  0.78213000  0.73422000  0.63447000  1.0 -0.0798898389
C  C494  1  0.44880000  0.06755000  0.96780000  1.0 -0.0798898389
C  C495  1  0.11547000  0.40088000  0.30113000  1.0 -0.0798898389
C  C496  1  0.80706000  0.74810000  0.61957000  1.0 -0.1209210055
C  C497  1  0.47373000  0.08143000  0.95290000  1.0 -0.1209210055
C  C498  1  0.14039000  0.41477000  0.28624000  1.0 -0.1209210055
C  C499  1  0.74671000  0.69109000  0.58595000  1.0 -0.1090674802
C  C500  1  0.41337000  0.02443000  0.91929000  1.0 -0.1090674802
C  C501  1  0.08004000  0.35776000  0.25262000  1.0 -0.1090674802
C  C502  1  0.84829000  0.73991000  0.52451000  1.0 -0.134386192
C  C503  1  0.51495000  0.07325000  0.85785000  1.0 -0.134386192
C  C504  1  0.18162000  0.40658000  0.19118000  1.0 -0.134386192
C  C505  1  0.77136000  0.70500000  0.57082000  1.0 -0.1503169013
C  C506  1  0.43802000  0.03834000  0.90416000  1.0 -0.1503169013
C  C507  1  0.10469000  0.37167000  0.23749000  1.0 -0.1503169013
C  C508  1  0.58008000  0.67554000  0.45052000  1.0 -0.0098664975
C  C509  1  0.24675000  0.00887000  0.78385000  1.0 -0.0098664975
C  C510  1  0.91341000  0.34221000  0.11719000  1.0 -0.0098664975
C  C511  1  0.58643000  0.68253000  0.50489000  1.0 -0.1090674802
C  C512  1  0.25310000  0.01586000  0.83822000  1.0 -0.1090674802
C  C513  1  0.91977000  0.34919000  0.17155000  1.0 -0.1090674802
C  C514  1  0.62040000  0.66937000  0.58156000  1.0 -0.0606446056
C  C515  1  0.28707000  0.00270000  0.91489000  1.0 -0.0606446056
C  C516  1  0.95374000  0.33603000  0.24822000  1.0 -0.0606446056
C  C517  1  0.59846000  0.67744000  0.53102000  1.0 -0.1393514107
C  C518  1  0.26513000  0.01077000  0.86435000  1.0 -0.1503169013
C  C519  1  0.93179000  0.34411000  0.19769000  1.0 -0.1393514107
C  C520  1  0.63076000  0.66341000  0.60763000  1.0 0.0183179736
C  C521  1  0.29742000  0.99675000  0.94097000  1.0 0.0183179736
C  C522  1  0.96409000  0.33008000  0.27430000  1.0 0.0183179736
C  C523  1  0.56376000  0.69022000  0.45557000  1.0 -0.0098664975
C  C524  1  0.23043000  0.02355000  0.78890000  1.0 -0.0098664975
C  C525  1  0.89710000  0.35688000  0.12223000  1.0 -0.0098664975
C  C526  1  0.59165000  0.67151000  0.47486000  1.0 -0.0098664975
C  C527  1  0.25832000  0.00484000  0.80819000  1.0 -0.0098664975
C  C528  1  0.92498000  0.33818000  0.14153000  1.0 -0.0098664975
C  C529  1  0.56936000  0.69609000  0.50919000  1.0 -0.1503169013
C  C530  1  0.23603000  0.02942000  0.84252000  1.0 -0.1503169013
C  C531  1  0.90270000  0.36275000  0.17585000  1.0 -0.1503169013
C  C532  1  0.61875000  0.65095000  0.55120000  1.0 -0.0916645392
C  C533  1  0.28542000  0.98428000  0.88453000  1.0 -0.0916645392
C  C534  1  0.95208000  0.31762000  0.21787000  1.0 -0.0916645392
C  C535  1  0.60771000  0.65480000  0.52627000  1.0 -0.1503169013
C  C536  1  0.27437000  0.98814000  0.85961000  1.0 -0.1503169013
C  C537  1  0.94104000  0.32147000  0.19294000  1.0 -0.1503169013
C  C538  1  0.61105000  0.69177000  0.58663000  1.0 -0.1001624104
C  C539  1  0.27772000  0.02510000  0.91996000  1.0 -0.1001624104
C  C540  1  0.94439000  0.35843000  0.25329000  1.0 -0.1001624104
C  C541  1  0.55829000  0.70045000  0.48505000  1.0 -0.0916645392
C  C542  1  0.22496000  0.03378000  0.81838000  1.0 -0.0916645392
C  C543  1  0.89163000  0.36711000  0.15171000  1.0 -0.0916645392
C  C544  1  0.60031000  0.69616000  0.56198000  1.0 -0.1692223378
C  C545  1  0.26698000  0.02949000  0.89531000  1.0 -0.1692223378
C  C546  1  0.93365000  0.36282000  0.22864000  1.0 -0.1692223378
C  C547  1  0.76213000  0.97827000  0.75325000  1.0 0.0042514511
C  C548  1  0.42879000  0.31161000  0.08659000  1.0 0.0042514511
C  C549  1  0.09546000  0.64494000  0.41992000  1.0 0.0042514511
C  C550  1  0.76276000  0.92454000  0.74690000  1.0 -0.018619649
C  C551  1  0.42943000  0.25787000  0.08023000  1.0 -0.018619649
C  C552  1  0.09609000  0.59121000  0.41357000  1.0 -0.018619649
C  C553  1  0.71563000  0.80074000  0.71293000  1.0 -0.0403349168
C  C554  1  0.38230000  0.13407000  0.04626000  1.0 -0.0403349168
C  C555  1  0.04896000  0.46741000  0.37960000  1.0 -0.0493944602
C  C556  1  0.74565000  0.88129000  0.73487000  1.0 -0.1001624104
C  C557  1  0.41231000  0.21463000  0.06821000  1.0 -0.1001624104
C  C558  1  0.07898000  0.54796000  0.40154000  1.0 -0.1001624104
C  C559  1  0.69932000  0.75836000  0.70258000  1.0 -0.0403349168
C  C560  1  0.36599000  0.09169000  0.03591000  1.0 -0.0403349168
C  C561  1  0.03266000  0.42502000  0.36924000  1.0 -0.0403349168
C  C562  1  0.79312000  0.00422000  0.76957000  1.0 -0.018619649
C  C563  1  0.45979000  0.33755000  0.10290000  1.0 -0.018619649
C  C564  1  0.12645000  0.67089000  0.43624000  1.0 -0.018619649
C  C565  1  0.74653000  0.93833000  0.74168000  1.0 0.0118846382
C  C566  1  0.41319000  0.27167000  0.07502000  1.0 0.0118846382
C  C567  1  0.07986000  0.60500000  0.40835000  1.0 0.0118846382
C  C568  1  0.79339000  0.95087000  0.76397000  1.0 -0.0493944602
C  C569  1  0.46006000  0.28420000  0.09730000  1.0 -0.0493944602
C  C570  1  0.12672000  0.61754000  0.43064000  1.0 -0.0493944602
C  C571  1  0.69887000  0.81433000  0.71458000  1.0 -0.0606446056
C  C572  1  0.36553000  0.14767000  0.04792000  1.0 -0.0606446056
C  C573  1  0.03220000  0.48100000  0.38125000  1.0 -0.0606446056
C  C574  1  0.71376000  0.85416000  0.72563000  1.0 -0.134386192
C  C575  1  0.38043000  0.18749000  0.05896000  1.0 -0.134386192
C  C576  1  0.04710000  0.52082000  0.39229000  1.0 -0.1393514107
C  C577  1  0.74738000  0.82742000  0.72228000  1.0 -0.0798898389
C  C578  1  0.41405000  0.16075000  0.05561000  1.0 -0.0798898389
C  C579  1  0.08071000  0.49409000  0.38895000  1.0 -0.0798898389
C  C580  1  0.80882000  0.99044000  0.77504000  1.0 -0.0403349168
C  C581  1  0.47549000  0.32377000  0.10837000  1.0 -0.0403349168
C  C582  1  0.14215000  0.65711000  0.44171000  1.0 -0.0403349168
C  C583  1  0.76251000  0.86720000  0.73302000  1.0 -0.134386192
C  C584  1  0.42918000  0.20053000  0.06635000  1.0 -0.134386192
C  C585  1  0.09584000  0.53387000  0.39969000  1.0 -0.134386192
C  C586  1  0.93387000  0.83713000  0.61211000  1.0 0.0118846382
C  C587  1  0.60053000  0.17047000  0.94545000  1.0 0.0118846382
C  C588  1  0.26720000  0.50380000  0.27878000  1.0 0.0118846382
C  C589  1  0.95665000  0.82197000  0.64433000  1.0 -0.0916645392
C  C590  1  0.62331000  0.15531000  0.97767000  1.0 -0.0916645392
C  C591  1  0.28998000  0.48864000  0.31100000  1.0 -0.0916645392
C  C592  1  0.97343000  0.74490000  0.65709000  1.0 -0.0493944602
C  C593  1  0.64010000  0.07823000  0.99042000  1.0 -0.0493944602
C  C594  1  0.30676000  0.41157000  0.32376000  1.0 -0.0493944602
C  C595  1  0.96197000  0.79445000  0.64803000  1.0 -0.1503169013
C  C596  1  0.62863000  0.12779000  0.98137000  1.0 -0.1503169013
C  C597  1  0.29530000  0.46112000  0.31470000  1.0 -0.1503169013
C  C598  1  0.97815000  0.71792000  0.66214000  1.0 0.0412389417
C  C599  1  0.64482000  0.05125000  0.99547000  1.0 0.0412389417
C  C600  1  0.31149000  0.38458000  0.32880000  1.0 0.0412389417
C  C601  1  0.94533000  0.87134000  0.63669000  1.0 -0.0798898389
C  C602  1  0.61200000  0.20467000  0.97002000  1.0 -0.0798898389
C  C603  1  0.27867000  0.53800000  0.30335000  1.0 -0.0798898389
C  C604  1  0.93929000  0.81208000  0.61543000  1.0 -0.018619649
C  C605  1  0.60596000  0.14541000  0.94876000  1.0 -0.018619649
C  C606  1  0.27263000  0.47874000  0.28209000  1.0 -0.018619649
C  C607  1  0.96712000  0.85569000  0.66879000  1.0 -0.134386192
C  C608  1  0.63379000  0.18902000  0.00212000  1.0 -0.1393514107
C  C609  1  0.30045000  0.52236000  0.33546000  1.0 -0.1393514107
C  C610  1  0.95103000  0.73212000  0.63237000  1.0 -0.0798898389
C  C611  1  0.61770000  0.06545000  0.96570000  1.0 -0.0798898389
C  C612  1  0.28437000  0.39878000  0.29903000  1.0 -0.0798898389
C  C613  1  0.94529000  0.75661000  0.62808000  1.0 -0.1209210055
C  C614  1  0.61196000  0.08994000  0.96141000  1.0 -0.1209210055
C  C615  1  0.27863000  0.42327000  0.29474000  1.0 -0.1209210055
C  C616  1  0.99005000  0.78243000  0.67729000  1.0 -0.1090674802
C  C617  1  0.65672000  0.11576000  0.01062000  1.0 -0.1090674802
C  C618  1  0.32339000  0.44909000  0.34395000  1.0 -0.1090674802
C  C619  1  0.96198000  0.88062000  0.66522000  1.0 -0.134386192
C  C620  1  0.62865000  0.21395000  0.99855000  1.0 -0.134386192
C  C621  1  0.29531000  0.54729000  0.33189000  1.0 -0.134386192
C  C622  1  0.98476000  0.80724000  0.67306000  1.0 -0.1503169013
C  C623  1  0.65143000  0.14057000  0.00639000  1.0 -0.1503169013
C  C624  1  0.31810000  0.47390000  0.33972000  1.0 -0.1503169013
C  C625  1  0.23660000  0.95782000  0.73280000  1.0 -0.0098664975
C  C626  1  0.90327000  0.29115000  0.06613000  1.0 -0.0098664975
C  C627  1  0.56993000  0.62449000  0.39947000  1.0 -0.0098664975
C  C628  1  0.19866000  0.88766000  0.71002000  1.0 -0.1090674802
C  C629  1  0.86533000  0.22099000  0.04335000  1.0 -0.1090674802
C  C630  1  0.53199000  0.55433000  0.37669000  1.0 -0.1090674802
C  C631  1  0.10480000  0.78105000  0.69324000  1.0 -0.0606446056
C  C632  1  0.77147000  0.11438000  0.02657000  1.0 -0.0606446056
C  C633  1  0.43814000  0.44771000  0.35990000  1.0 -0.0606446056
C  C634  1  0.16582000  0.85112000  0.70470000  1.0 -0.1503169013
C  C635  1  0.83249000  0.18445000  0.03803000  1.0 -0.1393514107
C  C636  1  0.49915000  0.51779000  0.37137000  1.0 -0.1393514107
C  C637  1  0.07310000  0.74429000  0.68851000  1.0 0.0183179736
C  C638  1  0.73976000  0.07763000  0.02185000  1.0 0.0183179736
C  C639  1  0.40643000  0.41096000  0.35518000  1.0 0.0183179736
C  C640  1  0.25934000  0.95598000  0.72133000  1.0 -0.0098664975
C  C641  1  0.92600000  0.28932000  0.05467000  1.0 -0.0098664975
C  C642  1  0.59267000  0.62265000  0.38800000  1.0 -0.0098664975
C  C643  1  0.20612000  0.92402000  0.72737000  1.0 -0.0098664975
C  C644  1  0.87278000  0.25736000  0.06071000  1.0 -0.0098664975
C  C645  1  0.53945000  0.59069000  0.39404000  1.0 -0.0098664975
C  C646  1  0.22190000  0.88645000  0.69955000  1.0 -0.1503169013
C  C647  1  0.88857000  0.21978000  0.03288000  1.0 -0.1503169013
C  C648  1  0.55524000  0.55311000  0.36621000  1.0 -0.1503169013
C  C649  1  0.11442000  0.81538000  0.71563000  1.0 -0.0916645392
C  C650  1  0.78108000  0.14872000  0.04897000  1.0 -0.0916645392
C  C651  1  0.44775000  0.48205000  0.38230000  1.0 -0.0916645392
C  C652  1  0.14465000  0.84990000  0.72137000  1.0 -0.1503169013
C  C653  1  0.81131000  0.18324000  0.05471000  1.0 -0.1503169013
C  C654  1  0.47798000  0.51657000  0.38804000  1.0 -0.1503169013
C  C655  1  0.12571000  0.78175000  0.67661000  1.0 -0.1001624104
C  C656  1  0.79237000  0.11509000  0.00995000  1.0 -0.1001624104
C  C657  1  0.45904000  0.44842000  0.34328000  1.0 -0.1001624104
C  C658  1  0.25197000  0.92009000  0.70469000  1.0 -0.0916645392
C  C659  1  0.91864000  0.25342000  0.03802000  1.0 -0.0916645392
C  C660  1  0.58531000  0.58675000  0.37135000  1.0 -0.0916645392
C  C661  1  0.15581000  0.81608000  0.68190000  1.0 -0.1692223378
C  C662  1  0.82247000  0.14942000  0.01524000  1.0 -0.1692223378
C  C663  1  0.48914000  0.48275000  0.34857000  1.0 -0.1692223378
C  C664  1  0.05455000  0.65509000  0.43007000  1.0 0.0042514511
C  C665  1  0.72122000  0.98842000  0.76340000  1.0 0.0042514511
C  C666  1  0.38789000  0.32175000  0.09673000  1.0 0.0042514511
C  C667  1  0.02233000  0.64565000  0.46801000  1.0 -0.018619649
C  C668  1  0.68900000  0.97898000  0.80134000  1.0 -0.018619649
C  C669  1  0.35567000  0.31231000  0.13467000  1.0 -0.018619649
C  C670  1  0.00958000  0.64967000  0.56186000  1.0 -0.0493944602
C  C671  1  0.67624000  0.98301000  0.89520000  1.0 -0.0403349168
C  C672  1  0.34291000  0.31634000  0.22853000  1.0 -0.0403349168
C  C673  1  0.01863000  0.64727000  0.50085000  1.0 -0.1001624104
C  C674  1  0.68530000  0.98060000  0.83418000  1.0 -0.1001624104
C  C675  1  0.35197000  0.31393000  0.16751000  1.0 -0.1001624104
C  C676  1  0.00453000  0.64935000  0.59357000  1.0 -0.0347746318
C  C677  1  0.67120000  0.98268000  0.92690000  1.0 -0.0347746318
C  C678  1  0.33786000  0.31602000  0.26024000  1.0 -0.0403349168
C  C679  1  0.02998000  0.64198000  0.40733000  1.0 -0.018619649
C  C680  1  0.69665000  0.97531000  0.74066000  1.0 -0.018619649
C  C681  1  0.36331000  0.30865000  0.07400000  1.0 -0.018619649
C  C682  1  0.05124000  0.65720000  0.46055000  1.0 0.0118846382
C  C683  1  0.71791000  0.99053000  0.79388000  1.0 0.0118846382
C  C684  1  0.38457000  0.32387000  0.12722000  1.0 0.0118846382
C  C685  1  0.99788000  0.63166000  0.44476000  1.0 -0.0493944602
C  C686  1  0.66454000  0.96500000  0.77810000  1.0 -0.0493944602
C  C687  1  0.33121000  0.29833000  0.11143000  1.0 -0.0493944602
C  C688  1  0.03430000  0.65200000  0.55225000  1.0 -0.0606446056
C  C689  1  0.70097000  0.98533000  0.88558000  1.0 -0.0606446056
C  C690  1  0.36763000  0.31867000  0.21892000  1.0 -0.0606446056
C  C691  1  0.03859000  0.65055000  0.52202000  1.0 -0.1393514107
C  C692  1  0.70526000  0.98388000  0.85535000  1.0 -0.134386192
C  C693  1  0.37192000  0.31722000  0.18869000  1.0 -0.1393514107
C  C694  1  0.98938000  0.64610000  0.54096000  1.0 -0.0798898389
C  C695  1  0.65605000  0.97943000  0.87429000  1.0 -0.0798898389
C  C696  1  0.32271000  0.31277000  0.20763000  1.0 -0.0798898389
C  C697  1  0.00145000  0.63009000  0.41469000  1.0 -0.0403349168
C  C698  1  0.66811000  0.96343000  0.74803000  1.0 -0.0403349168
C  C699  1  0.33478000  0.29676000  0.08136000  1.0 -0.0403349168
C  C700  1  0.99361000  0.64504000  0.51086000  1.0 -0.134386192
C  C701  1  0.66028000  0.97837000  0.84419000  1.0 -0.134386192
C  C702  1  0.32694000  0.31171000  0.17753000  1.0 -0.134386192
C  C703  1  0.23280000  0.01158000  0.73660000  1.0 0.0042514511
C  C704  1  0.89947000  0.34491000  0.06993000  1.0 0.0042514511
C  C705  1  0.56613000  0.67825000  0.40327000  1.0 0.0042514511
C  C706  1  0.21002000  0.02102000  0.69866000  1.0 -0.018619649
C  C707  1  0.87669000  0.35435000  0.03199000  1.0 -0.018619649
C  C708  1  0.54335000  0.68769000  0.36533000  1.0 -0.018619649
C  C709  1  0.19324000  0.01699000  0.60480000  1.0 -0.0403349168
C  C710  1  0.85990000  0.35033000  0.93814000  1.0 -0.0403349168
C  C711  1  0.52657000  0.68366000  0.27147000  1.0 -0.0403349168
C  C712  1  0.20470000  0.01940000  0.66582000  1.0 -0.1001624104
C  C713  1  0.87137000  0.35273000  0.99915000  1.0 -0.1001624104
C  C714  1  0.53803000  0.68607000  0.33249000  1.0 -0.1001624104
C  C715  1  0.18851000  0.01732000  0.57310000  1.0 -0.0403349168
C  C716  1  0.85518000  0.35065000  0.90643000  1.0 -0.0403349168
C  C717  1  0.52185000  0.68398000  0.23976000  1.0 -0.0347746318
C  C718  1  0.22133000  0.02469000  0.75934000  1.0 -0.018619649
C  C719  1  0.88800000  0.35802000  0.09267000  1.0 -0.018619649
C  C720  1  0.55467000  0.69135000  0.42600000  1.0 -0.018619649
C  C721  1  0.22737000  0.00947000  0.70612000  1.0 0.0118846382
C  C722  1  0.89404000  0.34280000  0.03945000  1.0 0.0118846382
C  C723  1  0.56071000  0.67613000  0.37278000  1.0 0.0118846382
C  C724  1  0.19955000  0.03500000  0.72190000  1.0 -0.0493944602
C  C725  1  0.86621000  0.36834000  0.05524000  1.0 -0.0493944602
C  C726  1  0.53288000  0.70167000  0.38857000  1.0 -0.0493944602
C  C727  1  0.21563000  0.01467000  0.61442000  1.0 -0.0606446056
C  C728  1  0.88230000  0.34800000  0.94775000  1.0 -0.0606446056
C  C729  1  0.54897000  0.68133000  0.28108000  1.0 -0.0606446056
C  C730  1  0.22137000  0.01612000  0.64465000  1.0 -0.134386192
C  C731  1  0.88804000  0.34945000  0.97798000  1.0 -0.134386192
C  C732  1  0.55471000  0.68278000  0.31131000  1.0 -0.134386192
C  C733  1  0.17661000  0.02057000  0.62571000  1.0 -0.0798898389
C  C734  1  0.84328000  0.35390000  0.95904000  1.0 -0.0798898389
C  C735  1  0.50995000  0.68723000  0.29237000  1.0 -0.0798898389
C  C736  1  0.20469000  0.03657000  0.75197000  1.0 -0.0403349168
C  C737  1  0.87135000  0.36991000  0.08531000  1.0 -0.0403349168
C  C738  1  0.53802000  0.70324000  0.41864000  1.0 -0.0403349168
C  C739  1  0.18190000  0.02163000  0.65581000  1.0 -0.134386192
C  C740  1  0.84857000  0.35496000  0.98914000  1.0 -0.134386192
C  C741  1  0.51524000  0.68829000  0.32247000  1.0 -0.134386192
C  C742  1  0.93007000  0.82953000  0.55455000  1.0 0.0118846382
C  C743  1  0.59673000  0.16287000  0.88789000  1.0 0.0118846382
C  C744  1  0.26340000  0.49620000  0.22122000  1.0 0.0118846382
C  C745  1  0.96801000  0.84469000  0.52233000  1.0 -0.0916645392
C  C746  1  0.63467000  0.17803000  0.85567000  1.0 -0.0916645392
C  C747  1  0.30134000  0.51136000  0.18900000  1.0 -0.0916645392
C  C748  1  0.06186000  0.92177000  0.50958000  1.0 -0.0493944602
C  C749  1  0.72853000  0.25510000  0.84291000  1.0 -0.0493944602
C  C750  1  0.39520000  0.58843000  0.17624000  1.0 -0.0493944602
C  C751  1  0.00085000  0.87221000  0.51863000  1.0 -0.1503169013
C  C752  1  0.66751000  0.20555000  0.85197000  1.0 -0.1503169013
C  C753  1  0.33418000  0.53888000  0.18530000  1.0 -0.1503169013
C  C754  1  0.09357000  0.94875000  0.50453000  1.0 0.0412389417
C  C755  1  0.76024000  0.28208000  0.83786000  1.0 0.0412389417
C  C756  1  0.42690000  0.61542000  0.17120000  1.0 0.0412389417
C  C757  1  0.90733000  0.79533000  0.52998000  1.0 -0.0798898389
C  C758  1  0.57400000  0.12866000  0.86331000  1.0 -0.0798898389
C  C759  1  0.24066000  0.46200000  0.19665000  1.0 -0.0798898389
C  C760  1  0.96055000  0.85459000  0.55124000  1.0 -0.018619649
C  C761  1  0.62722000  0.18792000  0.88457000  1.0 -0.018619649
C  C762  1  0.29388000  0.52126000  0.21791000  1.0 -0.018619649
C  C763  1  0.94476000  0.81098000  0.49788000  1.0 -0.1393514107
C  C764  1  0.61143000  0.14431000  0.83121000  1.0 -0.1393514107
C  C765  1  0.27810000  0.47764000  0.16454000  1.0 -0.1393514107
C  C766  1  0.05225000  0.93455000  0.53430000  1.0 -0.0798898389
C  C767  1  0.71892000  0.26788000  0.86763000  1.0 -0.0798898389
C  C768  1  0.38558000  0.60122000  0.20097000  1.0 -0.0798898389
C  C769  1  0.02202000  0.91006000  0.53859000  1.0 -0.1209210055
C  C770  1  0.68869000  0.24339000  0.87192000  1.0 -0.1209210055
C  C771  1  0.35535000  0.57673000  0.20526000  1.0 -0.1209210055
C  C772  1  0.04096000  0.88424000  0.48938000  1.0 -0.1090674802
C  C773  1  0.70763000  0.21757000  0.82271000  1.0 -0.1090674802
C  C774  1  0.37429000  0.55091000  0.15605000  1.0 -0.1090674802
C  C775  1  0.91469000  0.78605000  0.50145000  1.0 -0.134386192
C  C776  1  0.58136000  0.11938000  0.83478000  1.0 -0.134386192
C  C777  1  0.24803000  0.45271000  0.16811000  1.0 -0.134386192
C  C778  1  0.01086000  0.85943000  0.49361000  1.0 -0.1503169013
C  C779  1  0.67753000  0.19276000  0.82694000  1.0 -0.1503169013
C  C780  1  0.34419000  0.52610000  0.16028000  1.0 -0.1503169013
C  C781  1  0.11211000  0.70885000  0.43387000  1.0 -0.0098664975
C  C782  1  0.77878000  0.04218000  0.76720000  1.0 -0.0098664975
C  C783  1  0.44545000  0.37551000  0.10053000  1.0 -0.0098664975
C  C784  1  0.14433000  0.77901000  0.45665000  1.0 -0.1090674802
C  C785  1  0.81100000  0.11234000  0.78998000  1.0 -0.1090674802
C  C786  1  0.47767000  0.44567000  0.12331000  1.0 -0.1090674802
C  C787  1  0.15709000  0.88562000  0.47343000  1.0 -0.0606446056
C  C788  1  0.82376000  0.21895000  0.80676000  1.0 -0.0606446056
C  C789  1  0.49042000  0.55229000  0.14010000  1.0 -0.0606446056
C  C790  1  0.14803000  0.81555000  0.46197000  1.0 -0.1503169013
C  C791  1  0.81470000  0.14888000  0.79530000  1.0 -0.1393514107
C  C792  1  0.48137000  0.48221000  0.12863000  1.0 -0.1393514107
C  C793  1  0.16214000  0.92237000  0.47815000  1.0 0.0183179736
C  C794  1  0.82880000  0.25571000  0.81149000  1.0 0.0183179736
C  C795  1  0.49547000  0.58904000  0.14482000  1.0 0.0183179736
C  C796  1  0.13669000  0.71068000  0.44533000  1.0 -0.0098664975
C  C797  1  0.80335000  0.04402000  0.77867000  1.0 -0.0098664975
C  C798  1  0.47002000  0.37735000  0.11200000  1.0 -0.0098664975
C  C799  1  0.11543000  0.74264000  0.43929000  1.0 -0.0098664975
C  C800  1  0.78209000  0.07598000  0.77263000  1.0 -0.0098664975
C  C801  1  0.44876000  0.40931000  0.10596000  1.0 -0.0098664975
C  C802  1  0.16879000  0.78022000  0.46712000  1.0 -0.1503169013
C  C803  1  0.83546000  0.11355000  0.80045000  1.0 -0.1503169013
C  C804  1  0.50212000  0.44689000  0.13379000  1.0 -0.1503169013
C  C805  1  0.13237000  0.85128000  0.45103000  1.0 -0.0916645392
C  C806  1  0.79903000  0.18462000  0.78437000  1.0 -0.0916645392
C  C807  1  0.46570000  0.51795000  0.11770000  1.0 -0.0916645392
C  C808  1  0.12808000  0.81676000  0.44529000  1.0 -0.1503169013
C  C809  1  0.79474000  0.15010000  0.77863000  1.0 -0.1503169013
C  C810  1  0.46141000  0.48343000  0.11196000  1.0 -0.1503169013
C  C811  1  0.17729000  0.88491000  0.49005000  1.0 -0.1001624104
C  C812  1  0.84395000  0.21825000  0.82339000  1.0 -0.1001624104
C  C813  1  0.51062000  0.55158000  0.15672000  1.0 -0.1001624104
C  C814  1  0.16522000  0.74658000  0.46198000  1.0 -0.0916645392
C  C815  1  0.83189000  0.07991000  0.79531000  1.0 -0.0916645392
C  C816  1  0.49855000  0.41325000  0.12865000  1.0 -0.0916645392
C  C817  1  0.17306000  0.85058000  0.48476000  1.0 -0.1692223378
C  C818  1  0.83972000  0.18392000  0.81810000  1.0 -0.1692223378
C  C819  1  0.50639000  0.51725000  0.15143000  1.0 -0.1692223378
C  C820  1  0.61719000  0.68839000  0.41341000  1.0 0.0042514511
C  C821  1  0.28385000  0.02173000  0.74675000  1.0 0.0042514511
C  C822  1  0.95052000  0.35506000  0.08008000  1.0 0.0042514511
C  C823  1  0.67155000  0.74213000  0.41977000  1.0 -0.018619649
C  C824  1  0.33822000  0.07546000  0.75310000  1.0 -0.018619649
C  C825  1  0.00489000  0.40879000  0.08643000  1.0 -0.018619649
C  C826  1  0.74822000  0.86593000  0.45374000  1.0 -0.0403349168
C  C827  1  0.41489000  0.19926000  0.78707000  1.0 -0.0403349168
C  C828  1  0.08156000  0.53259000  0.12040000  1.0 -0.0403349168
C  C829  1  0.69769000  0.78537000  0.43179000  1.0 -0.1001624104
C  C830  1  0.36435000  0.11871000  0.76513000  1.0 -0.1001624104
C  C831  1  0.03102000  0.45204000  0.09846000  1.0 -0.1001624104
C  C832  1  0.77430000  0.90831000  0.46409000  1.0 -0.0347746318
C  C833  1  0.44097000  0.24164000  0.79742000  1.0 -0.0403349168
C  C834  1  0.10763000  0.57498000  0.13076000  1.0 -0.0403349168
C  C835  1  0.62223000  0.66245000  0.39710000  1.0 -0.018619649
C  C836  1  0.28890000  0.99578000  0.73043000  1.0 -0.018619649
C  C837  1  0.95557000  0.32911000  0.06376000  1.0 -0.018619649
C  C838  1  0.64153000  0.72833000  0.42498000  1.0 0.0118846382
C  C839  1  0.30819000  0.06167000  0.75832000  1.0 0.0118846382
C  C840  1  0.97486000  0.39500000  0.09165000  1.0 0.0118846382
C  C841  1  0.67585000  0.71580000  0.40270000  1.0 -0.0493944602
C  C842  1  0.34252000  0.04913000  0.73603000  1.0 -0.0493944602
C  C843  1  0.00919000  0.38246000  0.06936000  1.0 -0.0493944602
C  C844  1  0.71787000  0.85233000  0.45208000  1.0 -0.0606446056
C  C845  1  0.38453000  0.18567000  0.78542000  1.0 -0.0606446056
C  C846  1  0.05120000  0.51900000  0.11875000  1.0 -0.0606446056
C  C847  1  0.69294000  0.81251000  0.44104000  1.0 -0.134386192
C  C848  1  0.35961000  0.14584000  0.77437000  1.0 -0.134386192
C  C849  1  0.02627000  0.47918000  0.10771000  1.0 -0.1393514107
C  C850  1  0.75329000  0.83925000  0.44439000  1.0 -0.0798898389
C  C851  1  0.41996000  0.17258000  0.77772000  1.0 -0.0798898389
C  C852  1  0.08663000  0.50591000  0.11105000  1.0 -0.0798898389
C  C853  1  0.65171000  0.67623000  0.39163000  1.0 -0.0403349168
C  C854  1  0.31838000  0.00956000  0.72496000  1.0 -0.0403349168
C  C855  1  0.98505000  0.34289000  0.05829000  1.0 -0.0403349168
C  C856  1  0.72864000  0.79947000  0.43365000  1.0 -0.134386192
C  C857  1  0.39531000  0.13280000  0.76698000  1.0 -0.134386192
C  C858  1  0.06198000  0.46613000  0.10031000  1.0 -0.134386192
C  C859  1  0.91992000  0.87044000  0.59546000  1.0 0.0118846382
C  C860  1  0.58659000  0.20377000  0.92879000  1.0 0.0118846382
C  C861  1  0.25325000  0.53711000  0.26213000  1.0 0.0118846382
C  C862  1  0.91357000  0.91845000  0.59609000  1.0 -0.0916645392
C  C863  1  0.58023000  0.25179000  0.92943000  1.0 -0.0916645392
C  C864  1  0.24690000  0.58512000  0.26276000  1.0 -0.0916645392
C  C865  1  0.87960000  0.96115000  0.54896000  1.0 -0.0493944602
C  C866  1  0.54626000  0.29449000  0.88230000  1.0 -0.0493944602
C  C867  1  0.21293000  0.62782000  0.21563000  1.0 -0.0493944602
C  C868  1  0.90154000  0.93256000  0.57898000  1.0 -0.1503169013
C  C869  1  0.56821000  0.26589000  0.91231000  1.0 -0.1503169013
C  C870  1  0.23487000  0.59923000  0.24565000  1.0 -0.1503169013
C  C871  1  0.86924000  0.97688000  0.53266000  1.0 0.0412389417
C  C872  1  0.53591000  0.31021000  0.86599000  1.0 0.0412389417
C  C873  1  0.20258000  0.64354000  0.19932000  1.0 0.0412389417
C  C874  1  0.93624000  0.89180000  0.62645000  1.0 -0.0798898389
C  C875  1  0.60290000  0.22514000  0.95979000  1.0 -0.0798898389
C  C876  1  0.26957000  0.55847000  0.29312000  1.0 -0.0798898389
C  C877  1  0.90835000  0.88321000  0.57986000  1.0 -0.018619649
C  C878  1  0.57502000  0.21654000  0.91319000  1.0 -0.018619649
C  C879  1  0.24168000  0.54988000  0.24653000  1.0 -0.018619649
C  C880  1  0.93064000  0.93982000  0.62672000  1.0 -0.1393514107
C  C881  1  0.59730000  0.27316000  0.96006000  1.0 -0.134386192
C  C882  1  0.26397000  0.60649000  0.29339000  1.0 -0.1393514107
C  C883  1  0.88125000  0.93245000  0.53220000  1.0 -0.0798898389
C  C884  1  0.54792000  0.26578000  0.86553000  1.0 -0.0798898389
C  C885  1  0.21458000  0.59912000  0.19887000  1.0 -0.0798898389
C  C886  1  0.89229000  0.91857000  0.54710000  1.0 -0.1209210055
C  C887  1  0.55896000  0.25190000  0.88043000  1.0 -0.1209210055
C  C888  1  0.22563000  0.58523000  0.21376000  1.0 -0.1209210055
C  C889  1  0.88895000  0.97557000  0.58071000  1.0 -0.1090674802
C  C890  1  0.55561000  0.30891000  0.91405000  1.0 -0.1090674802
C  C891  1  0.22228000  0.64224000  0.24738000  1.0 -0.1090674802
C  C892  1  0.94171000  0.92675000  0.64215000  1.0 -0.134386192
C  C893  1  0.60837000  0.26009000  0.97549000  1.0 -0.134386192
C  C894  1  0.27504000  0.59342000  0.30882000  1.0 -0.134386192
C  C895  1  0.89969000  0.96166000  0.59584000  1.0 -0.1503169013
C  C896  1  0.56635000  0.29500000  0.92918000  1.0 -0.1503169013
C  C897  1  0.23302000  0.62833000  0.26251000  1.0 -0.1503169013
C  C898  1  0.73787000  0.99113000  0.71615000  1.0 -0.0098664975
C  C899  1  0.40454000  0.32446000  0.04948000  1.0 -0.0098664975
C  C900  1  0.07121000  0.65779000  0.38281000  1.0 -0.0098664975
C  C901  1  0.73724000  0.98414000  0.66178000  1.0 -0.1090674802
C  C902  1  0.40391000  0.31747000  0.99511000  1.0 -0.1090674802
C  C903  1  0.07057000  0.65081000  0.32845000  1.0 -0.1090674802
C  C904  1  0.78437000  0.99730000  0.58511000  1.0 -0.0606446056
C  C905  1  0.45104000  0.33063000  0.91844000  1.0 -0.0606446056
C  C906  1  0.11770000  0.66397000  0.25178000  1.0 -0.0606446056
C  C907  1  0.75435000  0.98923000  0.63565000  1.0 -0.1393514107
C  C908  1  0.42102000  0.32256000  0.96898000  1.0 -0.1503169013
C  C909  1  0.08769000  0.65589000  0.30231000  1.0 -0.1503169013
C  C910  1  0.80068000  0.00325000  0.55903000  1.0 0.0183179736
C  C911  1  0.46734000  0.33659000  0.89237000  1.0 0.0183179736
C  C912  1  0.13401000  0.66992000  0.22570000  1.0 0.0183179736
C  C913  1  0.70688000  0.97645000  0.71110000  1.0 -0.0098664975
C  C914  1  0.37355000  0.30978000  0.04443000  1.0 -0.0098664975
C  C915  1  0.04021000  0.64312000  0.37777000  1.0 -0.0098664975
C  C916  1  0.75347000  0.99516000  0.69181000  1.0 -0.0098664975
C  C917  1  0.42014000  0.32849000  0.02514000  1.0 -0.0098664975
C  C918  1  0.08681000  0.66182000  0.35847000  1.0 -0.0098664975
C  C919  1  0.70661000  0.97058000  0.65748000  1.0 -0.1503169013
C  C920  1  0.37328000  0.30391000  0.99081000  1.0 -0.1503169013
C  C921  1  0.03994000  0.63725000  0.32415000  1.0 -0.1503169013
C  C922  1  0.80113000  0.01572000  0.61547000  1.0 -0.0916645392
C  C923  1  0.46780000  0.34905000  0.94880000  1.0 -0.0916645392
C  C924  1  0.13447000  0.68238000  0.28213000  1.0 -0.0916645392
C  C925  1  0.78624000  0.01186000  0.64039000  1.0 -0.1503169013
C  C926  1  0.45290000  0.34520000  0.97373000  1.0 -0.1503169013
C  C927  1  0.11957000  0.67853000  0.30706000  1.0 -0.1503169013
C  C928  1  0.75262000  0.97490000  0.58004000  1.0 -0.1001624104
C  C929  1  0.41929000  0.30823000  0.91337000  1.0 -0.1001624104
C  C930  1  0.08595000  0.64157000  0.24671000  1.0 -0.1001624104
C  C931  1  0.69118000  0.96622000  0.68162000  1.0 -0.0916645392
C  C932  1  0.35785000  0.29955000  0.01495000  1.0 -0.0916645392
C  C933  1  0.02451000  0.63289000  0.34829000  1.0 -0.0916645392
C  C934  1  0.73749000  0.97051000  0.60469000  1.0 -0.1692223378
C  C935  1  0.40416000  0.30384000  0.93802000  1.0 -0.1692223378
C  C936  1  0.07082000  0.63718000  0.27136000  1.0 -0.1692223378
C  C937  1  0.08333000  0.16667000  0.41667000  1.0 0.0412389417
C  C938  1  0.75000000  0.50000000  0.75000000  1.0 0.0412389417
C  C939  1  0.41667000  0.83333000  0.08333000  1.0 0.0412389417
C  C940  1  0.75000000  0.00000000  0.25000000  1.0 0.0118846382
C  C941  1  0.41667000  0.33333333  0.58333000  1.0 0.0118846382
C  C942  1  0.08333000  0.66666667  0.91667000  1.0 0.0118846382
C  C943  1  0.25000000  0.00000000  0.25000000  1.0 0.0118846382
C  C944  1  0.91667000  0.33333333  0.58333000  1.0 0.0118846382
C  C945  1  0.58333000  0.66666667  0.91667000  1.0 0.0118846382
C  C946  1  0.91667000  0.83333000  0.58333000  1.0 0.0412389417
C  C947  1  0.58333000  0.16667000  0.91667000  1.0 0.0412389417
C  C948  1  0.25000000  0.50000000  0.25000000  1.0 0.0412389417
C  C949  1  0.58333000  0.66666667  0.41667000  1.0 0.0118846382
C  C950  1  0.25000000  0.00000000  0.75000000  1.0 0.0118846382
C  C951  1  0.91667000  0.33333333  0.08333000  1.0 0.0118846382
C  C952  1  0.08333000  0.66666667  0.41667000  1.0 0.0118846382
C  C953  1  0.75000000  0.00000000  0.75000000  1.0 0.0118846382
C  C954  1  0.41667000  0.33333333  0.08333000  1.0 0.0118846382
O  O1  1  0.26828000  0.29395000  0.33682000  1.0 0.1704140421
O  O2  1  0.93494000  0.62729000  0.67016000  1.0 0.1704140421
O  O3  1  0.60161000  0.96062000  0.00349000  1.0 0.1704140421
O  O4  1  0.30118000  0.33904000  0.38232000  1.0 0.1869801539
O  O5  1  0.96785000  0.67237000  0.71565000  1.0 0.1869801539
O  O6  1  0.63451000  0.00571000  0.04899000  1.0 0.1869801539
O  O7  1  0.35901000  0.35552000  0.39839000  1.0 0.1704140421
O  O8  1  0.02568000  0.68885000  0.73172000  1.0 0.1704140421
O  O9  1  0.69234000  0.02219000  0.06506000  1.0 0.1704140421
O  O10  1  0.37119000  0.32221000  0.36549000  1.0 0.1839366211
O  O11  1  0.03786000  0.65554000  0.69882000  1.0 0.1839366211
O  O12  1  0.70453000  0.98887000  0.03215000  1.0 0.1839366211
O  O13  1  0.32984000  0.26479000  0.30766000  1.0 0.1216292249
O  O14  1  0.99651000  0.59812000  0.64099000  1.0 0.1216292249
O  O15  1  0.66318000  0.93145000  0.97432000  1.0 0.1216292249
O  O16  1  0.28435000  0.25219000  0.29547000  1.0 0.137121928
O  O17  1  0.95101000  0.58553000  0.62881000  1.0 0.137121928
O  O18  1  0.61768000  0.91886000  0.96214000  1.0 0.137121928
O  O19  1  0.03648000  0.31555000  0.35842000  1.0 0.1704140421
O  O20  1  0.70314000  0.64889000  0.69176000  1.0 0.1704140421
O  O21  1  0.36981000  0.98222000  0.02509000  1.0 0.1704140421
O  O22  1  0.00330000  0.26992000  0.31320000  1.0 0.1869801539
O  O23  1  0.66997000  0.60325000  0.64653000  1.0 0.1869801539
O  O24  1  0.33663000  0.93659000  0.97987000  1.0 0.1869801539
O  O25  1  0.94574000  0.25399000  0.29686000  1.0 0.1704140421
O  O26  1  0.61241000  0.58732000  0.63019000  1.0 0.1704140421
O  O27  1  0.27908000  0.92065000  0.96352000  1.0 0.1704140421
O  O28  1  0.93329000  0.28675000  0.33003000  1.0 0.1839366211
O  O29  1  0.59995000  0.62009000  0.66337000  1.0 0.1839366211
O  O30  1  0.26662000  0.95342000  0.99670000  1.0 0.1839366211
O  O31  1  0.97491000  0.34472000  0.38759000  1.0 0.1216292249
O  O32  1  0.64158000  0.67805000  0.72092000  1.0 0.1216292249
O  O33  1  0.30824000  0.01139000  0.05426000  1.0 0.1216292249
O  O34  1  0.02013000  0.35677000  0.40005000  1.0 0.137121928
O  O35  1  0.68680000  0.69010000  0.73338000  1.0 0.137121928
O  O36  1  0.35347000  0.02343000  0.06671000  1.0 0.137121928
O  O37  1  0.79686000  0.98861000  0.44574000  1.0 0.1216292249
O  O38  1  0.46352000  0.32195000  0.77908000  1.0 0.1216292249
O  O39  1  0.13019000  0.65528000  0.11241000  1.0 0.1216292249
O  O40  1  0.83003000  0.97657000  0.43329000  1.0 0.137121928
O  O41  1  0.49670000  0.30990000  0.76662000  1.0 0.137121928
O  O42  1  0.16337000  0.64323000  0.09995000  1.0 0.137121928
O  O43  1  0.88759000  0.01778000  0.47491000  1.0 0.1704140421
O  O44  1  0.55426000  0.35111000  0.80824000  1.0 0.1704140421
O  O45  1  0.22092000  0.68445000  0.14158000  1.0 0.1704140421
O  O46  1  0.90005000  0.06341000  0.52013000  1.0 0.1869801539
O  O47  1  0.56671000  0.39675000  0.85347000  1.0 0.1869801539
O  O48  1  0.23338000  0.73008000  0.18680000  1.0 0.1869801539
O  O49  1  0.85842000  0.07935000  0.53648000  1.0 0.1704140421
O  O50  1  0.52509000  0.41268000  0.86981000  1.0 0.1704140421
O  O51  1  0.19176000  0.74601000  0.20314000  1.0 0.1704140421
O  O52  1  0.81320000  0.04658000  0.50330000  1.0 0.1839366211
O  O53  1  0.47987000  0.37991000  0.83663000  1.0 0.1839366211
O  O54  1  0.14653000  0.71325000  0.16997000  1.0 0.1839366211
O  O55  1  0.23172000  0.06855000  0.52568000  1.0 0.1216292249
O  O56  1  0.89839000  0.40188000  0.85901000  1.0 0.1216292249
O  O57  1  0.56506000  0.73521000  0.19234000  1.0 0.1216292249
O  O58  1  0.19882000  0.08114000  0.53786000  1.0 0.137121928
O  O59  1  0.86549000  0.41447000  0.87119000  1.0 0.137121928
O  O60  1  0.53215000  0.74781000  0.20453000  1.0 0.137121928
O  O61  1  0.14099000  0.03938000  0.49651000  1.0 0.1704140421
O  O62  1  0.80766000  0.37271000  0.82984000  1.0 0.1704140421
O  O63  1  0.47432000  0.70605000  0.16318000  1.0 0.1704140421
O  O64  1  0.12881000  0.99429000  0.45101000  1.0 0.1869801539
O  O65  1  0.79547000  0.32763000  0.78435000  1.0 0.1869801539
O  O66  1  0.46214000  0.66096000  0.11768000  1.0 0.1869801539
O  O67  1  0.17016000  0.97781000  0.43494000  1.0 0.1704140421
O  O68  1  0.83682000  0.31115000  0.76828000  1.0 0.1704140421
O  O69  1  0.50349000  0.64448000  0.10161000  1.0 0.1704140421
O  O70  1  0.21565000  0.01113000  0.46785000  1.0 0.1839366211
O  O71  1  0.88232000  0.34446000  0.80118000  1.0 0.1839366211
O  O72  1  0.54899000  0.67779000  0.13451000  1.0 0.1839366211
O  O73  1  0.73172000  0.70605000  0.66318000  1.0 0.1704140421
O  O74  1  0.39839000  0.03938000  0.99651000  1.0 0.1704140421
O  O75  1  0.06506000  0.37271000  0.32984000  1.0 0.1704140421
O  O76  1  0.69882000  0.66096000  0.61768000  1.0 0.1869801539
O  O77  1  0.36549000  0.99429000  0.95101000  1.0 0.1869801539
O  O78  1  0.03215000  0.32763000  0.28435000  1.0 0.1869801539
O  O79  1  0.64099000  0.64448000  0.60161000  1.0 0.1704140421
O  O80  1  0.30766000  0.97781000  0.93494000  1.0 0.1704140421
O  O81  1  0.97432000  0.31115000  0.26828000  1.0 0.1704140421
O  O82  1  0.62881000  0.67779000  0.63451000  1.0 0.1839366211
O  O83  1  0.29547000  0.01113000  0.96785000  1.0 0.1839366211
O  O84  1  0.96214000  0.34446000  0.30118000  1.0 0.1839366211
O  O85  1  0.67016000  0.73521000  0.69234000  1.0 0.1216292249
O  O86  1  0.33682000  0.06855000  0.02568000  1.0 0.1216292249
O  O87  1  0.00349000  0.40188000  0.35901000  1.0 0.1216292249
O  O88  1  0.71565000  0.74781000  0.70453000  1.0 0.137121928
O  O89  1  0.38232000  0.08114000  0.03786000  1.0 0.137121928
O  O90  1  0.04899000  0.41447000  0.37119000  1.0 0.137121928
O  O91  1  0.96352000  0.68445000  0.64158000  1.0 0.1704140421
O  O92  1  0.63019000  0.01778000  0.97491000  1.0 0.1704140421
O  O93  1  0.29686000  0.35111000  0.30824000  1.0 0.1704140421
O  O94  1  0.99670000  0.73008000  0.68680000  1.0 0.1869801539
O  O95  1  0.66337000  0.06341000  0.02013000  1.0 0.1869801539
O  O96  1  0.33003000  0.39675000  0.35347000  1.0 0.1869801539
O  O97  1  0.05426000  0.74601000  0.70314000  1.0 0.1704140421
O  O98  1  0.72092000  0.07935000  0.03648000  1.0 0.1704140421
O  O99  1  0.38759000  0.41268000  0.36981000  1.0 0.1704140421
O  O100  1  0.06671000  0.71325000  0.66997000  1.0 0.1839366211
O  O101  1  0.73338000  0.04658000  0.00330000  1.0 0.1839366211
O  O102  1  0.40005000  0.37991000  0.33663000  1.0 0.1839366211
O  O103  1  0.02509000  0.65528000  0.61241000  1.0 0.1216292249
O  O104  1  0.69176000  0.98861000  0.94574000  1.0 0.1216292249
O  O105  1  0.35842000  0.32195000  0.27908000  1.0 0.1216292249
O  O106  1  0.97987000  0.64323000  0.59995000  1.0 0.137121928
O  O107  1  0.64653000  0.97657000  0.93329000  1.0 0.137121928
O  O108  1  0.31320000  0.30990000  0.26662000  1.0 0.137121928
O  O109  1  0.20314000  0.01139000  0.55426000  1.0 0.1216292249
O  O110  1  0.86981000  0.34472000  0.88759000  1.0 0.1216292249
O  O111  1  0.53648000  0.67805000  0.22092000  1.0 0.1216292249
O  O112  1  0.16997000  0.02343000  0.56671000  1.0 0.137121928
O  O113  1  0.83663000  0.35677000  0.90005000  1.0 0.137121928
O  O114  1  0.50330000  0.69010000  0.23338000  1.0 0.137121928
O  O115  1  0.11241000  0.98222000  0.52509000  1.0 0.1704140421
O  O116  1  0.77908000  0.31555000  0.85842000  1.0 0.1704140421
O  O117  1  0.44574000  0.64889000  0.19176000  1.0 0.1704140421
O  O118  1  0.09995000  0.93659000  0.47987000  1.0 0.1869801539
O  O119  1  0.76662000  0.26992000  0.81320000  1.0 0.1869801539
O  O120  1  0.43329000  0.60325000  0.14653000  1.0 0.1869801539
O  O121  1  0.14158000  0.92065000  0.46352000  1.0 0.1704140421
O  O122  1  0.80824000  0.25399000  0.79686000  1.0 0.1704140421
O  O123  1  0.47491000  0.58732000  0.13019000  1.0 0.1704140421
O  O124  1  0.18680000  0.95342000  0.49670000  1.0 0.1839366211
O  O125  1  0.85347000  0.28675000  0.83003000  1.0 0.1839366211
O  O126  1  0.52013000  0.62009000  0.16337000  1.0 0.1839366211
O  O127  1  0.76828000  0.93145000  0.47432000  1.0 0.1216292249
O  O128  1  0.43494000  0.26479000  0.80766000  1.0 0.1216292249
O  O129  1  0.10161000  0.59812000  0.14099000  1.0 0.1216292249
O  O130  1  0.80118000  0.91886000  0.46214000  1.0 0.137121928
O  O131  1  0.46785000  0.25219000  0.79547000  1.0 0.137121928
O  O132  1  0.13451000  0.58553000  0.12881000  1.0 0.137121928
O  O133  1  0.85901000  0.96062000  0.50349000  1.0 0.1704140421
O  O134  1  0.52568000  0.29395000  0.83682000  1.0 0.1704140421
O  O135  1  0.19234000  0.62729000  0.17016000  1.0 0.1704140421
O  O136  1  0.87119000  0.00571000  0.54899000  1.0 0.1869801539
O  O137  1  0.53786000  0.33904000  0.88232000  1.0 0.1869801539
O  O138  1  0.20453000  0.67237000  0.21565000  1.0 0.1869801539
O  O139  1  0.82984000  0.02219000  0.56506000  1.0 0.1704140421
O  O140  1  0.49651000  0.35552000  0.89839000  1.0 0.1704140421
O  O141  1  0.16318000  0.68885000  0.23172000  1.0 0.1704140421
O  O142  1  0.78435000  0.98887000  0.53215000  1.0 0.1839366211
O  O143  1  0.45101000  0.32221000  0.86549000  1.0 0.1839366211
O  O144  1  0.11768000  0.65554000  0.19882000  1.0 0.1839366211
O  O145  1  0.25231000  0.27307000  0.27307000  1.0 -0.0493944602
O  O146  1  0.91897000  0.60641000  0.60641000  1.0 -0.0493944602
O  O147  1  0.58564000  0.93974000  0.93974000  1.0 -0.0493944602
O  O148  1  0.35410000  0.41436000  0.41436000  1.0 -0.0493944602
O  O149  1  0.02077000  0.74769000  0.74769000  1.0 -0.0493944602
O  O150  1  0.68743000  0.08103000  0.08103000  1.0 -0.0493944602
O  O151  1  0.39359000  0.31257000  0.31257000  1.0 -0.0658461808
O  O152  1  0.06026000  0.64590000  0.64590000  1.0 -0.0658461808
O  O153  1  0.72693000  0.97923000  0.97923000  1.0 -0.0658461808
O  O154  1  0.08103000  0.39359000  0.39359000  1.0 -0.0493944602
O  O155  1  0.74769000  0.72693000  0.72693000  1.0 -0.0493944602
O  O156  1  0.41436000  0.06026000  0.06026000  1.0 -0.0493944602
O  O157  1  0.97923000  0.25231000  0.25231000  1.0 -0.0493944602
O  O158  1  0.64590000  0.58564000  0.58564000  1.0 -0.0493944602
O  O159  1  0.31257000  0.91897000  0.91897000  1.0 -0.0493944602
O  O160  1  0.93974000  0.35410000  0.35410000  1.0 -0.0606446056
O  O161  1  0.60641000  0.68743000  0.68743000  1.0 -0.0606446056
O  O162  1  0.27307000  0.02077000  0.02077000  1.0 -0.0606446056
O  O163  1  0.75231000  0.97923000  0.47923000  1.0 -0.0606446056
O  O164  1  0.41897000  0.31257000  0.81257000  1.0 -0.0606446056
O  O165  1  0.08564000  0.64590000  0.14590000  1.0 -0.0658461808
O  O166  1  0.85410000  0.93974000  0.43974000  1.0 -0.0493944602
O  O167  1  0.52077000  0.27307000  0.77307000  1.0 -0.0493944602
O  O168  1  0.18743000  0.60641000  0.10641000  1.0 -0.0493944602
O  O169  1  0.89359000  0.08103000  0.58103000  1.0 -0.0493944602
O  O170  1  0.56026000  0.41436000  0.91436000  1.0 -0.0493944602
O  O171  1  0.22693000  0.74769000  0.24769000  1.0 -0.0493944602
O  O172  1  0.24769000  0.02077000  0.52077000  1.0 -0.0606446056
O  O173  1  0.91436000  0.35410000  0.85410000  1.0 -0.0606446056
O  O174  1  0.58103000  0.68743000  0.18743000  1.0 -0.0606446056
O  O175  1  0.14590000  0.06026000  0.56026000  1.0 -0.0493944602
O  O176  1  0.81257000  0.39359000  0.89359000  1.0 -0.0493944602
O  O177  1  0.47923000  0.72693000  0.22693000  1.0 -0.0493944602
O  O178  1  0.10641000  0.91897000  0.41897000  1.0 -0.0493944602
O  O179  1  0.77307000  0.25231000  0.75231000  1.0 -0.0493944602
O  O180  1  0.43974000  0.58564000  0.08564000  1.0 -0.0493944602
O  O181  1  0.33333333  0.33333333  0.33333333  1.0 0.1869801539
O  O182  1  0.00000000  0.66666667  0.66666667  1.0 0.1869801539
O  O183  1  0.66666667  0.00000000  0.00000000  1.0 0.1869801539
O  O184  1  0.00000000  0.33333333  0.33333333  1.0 0.1869801539
O  O185  1  0.66666667  0.66666667  0.66666667  1.0 0.1869801539
O  O186  1  0.33333333  0.00000000  0.00000000  1.0 0.1869801539
O  O187  1  0.83333000  0.00000000  0.50000000  1.0 0.1869801539
O  O188  1  0.50000000  0.33333333  0.83333000  1.0 0.1869801539
O  O189  1  0.16667000  0.66666667  0.16667000  1.0 0.1869801539
O  O190  1  0.16667000  0.00000000  0.50000000  1.0 0.1869801539
O  O191  1  0.83333000  0.33333333  0.83333000  1.0 0.1869801539
O  O192  1  0.50000000  0.66666667  0.16667000  1.0 0.1869801539
