# DDEC6 charges by PACMAN v1.1 (https://github.com/mtap-research/PACMAN-charge/)
data_QOVDEL_ASR_pacman
_symmetry_space_group_name_H-M   'P 1'
_cell_length_a   16.24690000
_cell_length_b   16.24690000
_cell_length_c   16.24690000
_cell_angle_alpha   118.42400000
_cell_angle_beta   118.42400000
_cell_angle_gamma   118.42400000
_symmetry_Int_Tables_number   1
_chemical_formula_structural   NiPC3NO3
_chemical_formula_sum   'Ni6 P6 C18 N6 O18'
_cell_volume   1387.02078694
_cell_formula_units_Z   6
loop_
 _symmetry_equiv_pos_site_id
 _symmetry_equiv_pos_as_xyz
  1  'x, y, z'
loop_
 _atom_site_type_symbol
 _atom_site_label
 _atom_site_symmetry_multiplicity
 _atom_site_fract_x
 _atom_site_fract_y
 _atom_site_fract_z
 _atom_site_occupancy
 _atom_site_charge
Ni  Ni1  1  0.44294000  0.02401000  0.69053000  1.0 0.9053456972
Ni  Ni2  1  0.02401000  0.69053000  0.44294000  1.0 0.9041615914
Ni  Ni3  1  0.69053000  0.44294000  0.02401000  1.0 0.9053456972
Ni  Ni4  1  0.55706000  0.97599000  0.30947000  1.0 0.9053456972
Ni  Ni5  1  0.97599000  0.30947000  0.55706000  1.0 0.9053456972
Ni  Ni6  1  0.30947000  0.55706000  0.97599000  1.0 0.9053456972
P  P1  1  0.18503000  0.99397000  0.53100000  1.0 1.3141892543
P  P2  1  0.99397000  0.53100000  0.18503000  1.0 1.3141892543
P  P3  1  0.53100000  0.18503000  0.99397000  1.0 1.3141892543
P  P4  1  0.81497000  0.00603000  0.46900000  1.0 1.3141892543
P  P5  1  0.00603000  0.46900000  0.81497000  1.0 1.3141892543
P  P6  1  0.46900000  0.81497000  0.00603000  1.0 1.3141892543
C  C1  1  0.60900000  0.54370000  0.13920000  1.0 0.0793657367
C  C2  1  0.54370000  0.13920000  0.60900000  1.0 0.0793657367
C  C3  1  0.13920000  0.60900000  0.54370000  1.0 0.0793657367
C  C4  1  0.39100000  0.45630000  0.86080000  1.0 0.0793657367
C  C5  1  0.45630000  0.86080000  0.39100000  1.0 0.0793657367
C  C6  1  0.86080000  0.39100000  0.45630000  1.0 0.0793657367
C  C7  1  0.53010000  0.49570000  0.92860000  1.0 0.1491492828
C  C8  1  0.49570000  0.92860000  0.53010000  1.0 0.1491492828
C  C9  1  0.92860000  0.53010000  0.49570000  1.0 0.1491492828
C  C10  1  0.46990000  0.50430000  0.07140000  1.0 0.1491492828
C  C11  1  0.50430000  0.07140000  0.46990000  1.0 0.1491492828
C  C12  1  0.07140000  0.46990000  0.50430000  1.0 0.1491492828
C  C13  1  0.26300000  0.15360000  0.73170000  1.0 -0.3426979889
C  C14  1  0.15360000  0.73170000  0.26300000  1.0 -0.3426979889
C  C15  1  0.73170000  0.26300000  0.15360000  1.0 -0.3426979889
C  C16  1  0.73700000  0.84640000  0.26830000  1.0 -0.3426979889
C  C17  1  0.84640000  0.26830000  0.73700000  1.0 -0.3426979889
C  C18  1  0.26830000  0.73700000  0.84640000  1.0 -0.3426979889
N  N1  1  0.49900000  0.40140000  0.93910000  1.0 0.0508381081
N  N2  1  0.40140000  0.93910000  0.49900000  1.0 0.0508381081
N  N3  1  0.93910000  0.49900000  0.40140000  1.0 0.0508381081
N  N4  1  0.50100000  0.59860000  0.06090000  1.0 0.0508381081
N  N5  1  0.59860000  0.06090000  0.50100000  1.0 0.0508381081
N  N6  1  0.06090000  0.50100000  0.59860000  1.0 0.0508381081
O  O1  1  0.11650000  0.98058000  0.40832000  1.0 -0.6403920064
O  O2  1  0.98058000  0.40832000  0.11650000  1.0 -0.6403920064
O  O3  1  0.40832000  0.11650000  0.98058000  1.0 -0.6403920064
O  O4  1  0.88350000  0.01942000  0.59168000  1.0 -0.6403920064
O  O5  1  0.01942000  0.59168000  0.88350000  1.0 -0.6403920064
O  O6  1  0.59168000  0.88350000  0.01942000  1.0 -0.6403920064
O  O7  1  0.39937000  0.12144000  0.68089000  1.0 -0.7800230791
O  O8  1  0.12144000  0.68089000  0.39937000  1.0 -0.7800230791
O  O9  1  0.68089000  0.39937000  0.12144000  1.0 -0.7800230791
O  O10  1  0.60063000  0.87856000  0.31911000  1.0 -0.7800230791
O  O11  1  0.87856000  0.31911000  0.60063000  1.0 -0.7800230791
O  O12  1  0.31911000  0.60063000  0.87856000  1.0 -0.7800230791
O  O13  1  0.99609000  0.76465000  0.36306000  1.0 -0.7355776538
O  O14  1  0.76465000  0.36306000  0.99609000  1.0 -0.7355776538
O  O15  1  0.36306000  0.99609000  0.76465000  1.0 -0.7355776538
O  O16  1  0.00391000  0.23535000  0.63694000  1.0 -0.7355776538
O  O17  1  0.23535000  0.63694000  0.00391000  1.0 -0.7355776538
O  O18  1  0.63694000  0.00391000  0.23535000  1.0 -0.7355776538
