# DDEC6 charges by PACMAN v1.1 (https://github.com/mtap-research/PACMAN-charge/)
data_QOVDAH_FSR_pacman
_symmetry_space_group_name_H-M   'P 1'
_cell_length_a   16.20420000
_cell_length_b   16.20420000
_cell_length_c   16.20420000
_cell_angle_alpha   118.37700000
_cell_angle_beta   118.37700000
_cell_angle_gamma   118.37700000
_symmetry_Int_Tables_number   1
_chemical_formula_structural   NiPC3NO4
_chemical_formula_sum   'Ni6 P6 C18 N6 O24'
_cell_volume   1395.95808897
_cell_formula_units_Z   6
loop_
 _symmetry_equiv_pos_site_id
 _symmetry_equiv_pos_as_xyz
  1  'x, y, z'
loop_
 _atom_site_type_symbol
 _atom_site_label
 _atom_site_symmetry_multiplicity
 _atom_site_fract_x
 _atom_site_fract_y
 _atom_site_fract_z
 _atom_site_occupancy
 _atom_site_charge
Ni  Ni1  1  0.44281000  0.02267000  0.69215000  1.0 1.0032252119
Ni  Ni2  1  0.02267000  0.69215000  0.44281000  1.0 1.0032252119
Ni  Ni3  1  0.69215000  0.44281000  0.02267000  1.0 1.0032252119
Ni  Ni4  1  0.55719000  0.97733000  0.30785000  1.0 1.0032252119
Ni  Ni5  1  0.97733000  0.30785000  0.55719000  1.0 1.0032252119
Ni  Ni6  1  0.30785000  0.55719000  0.97733000  1.0 1.0032252119
P  P1  1  0.99443000  0.53152000  0.18655000  1.0 1.3285953051
P  P2  1  0.53152000  0.18655000  0.99443000  1.0 1.3285953051
P  P3  1  0.18655000  0.99443000  0.53152000  1.0 1.3285953051
P  P4  1  0.00557000  0.46848000  0.81345000  1.0 1.3285953051
P  P5  1  0.46848000  0.81345000  0.00557000  1.0 1.3285953051
P  P6  1  0.81345000  0.00557000  0.46848000  1.0 1.3285953051
C  C1  1  0.48670000  0.92310000  0.52520000  1.0 0.1804845304
C  C2  1  0.92310000  0.52520000  0.48670000  1.0 0.1804845304
C  C3  1  0.52520000  0.48670000  0.92310000  1.0 0.1804845304
C  C4  1  0.51330000  0.07690000  0.47480000  1.0 0.1804845304
C  C5  1  0.07690000  0.47480000  0.51330000  1.0 0.1804845304
C  C6  1  0.47480000  0.51330000  0.07690000  1.0 0.1804845304
C  C7  1  0.52477000  0.12233000  0.58760000  1.0 0.1285882638
C  C8  1  0.12233000  0.58760000  0.52477000  1.0 0.1285882638
C  C9  1  0.58760000  0.52477000  0.12233000  1.0 0.1285882638
C  C10  1  0.47523000  0.87767000  0.41240000  1.0 0.1285882638
C  C11  1  0.87767000  0.41240000  0.47523000  1.0 0.1285882638
C  C12  1  0.41240000  0.47523000  0.87767000  1.0 0.1285882638
C  C13  1  0.16520000  0.74160000  0.27790000  1.0 -0.2347821845
C  C14  1  0.74160000  0.27790000  0.16520000  1.0 -0.2369421824
C  C15  1  0.27790000  0.16520000  0.74160000  1.0 -0.2369421824
C  C16  1  0.83480000  0.25840000  0.72210000  1.0 -0.2369421824
C  C17  1  0.25840000  0.72210000  0.83480000  1.0 -0.2369421824
C  C18  1  0.72210000  0.83480000  0.25840000  1.0 -0.2369421824
N  N1  1  0.40934000  0.94791000  0.51175000  1.0 -0.006826005
N  N2  1  0.94791000  0.51175000  0.40934000  1.0 -0.006826005
N  N3  1  0.51175000  0.40934000  0.94791000  1.0 -0.006826005
N  N4  1  0.59066000  0.05209000  0.48825000  1.0 -0.006826005
N  N5  1  0.05209000  0.48825000  0.59066000  1.0 -0.006826005
N  N6  1  0.48825000  0.59066000  0.05209000  1.0 -0.006826005
O  O1  1  0.99306000  0.42377000  0.13247000  1.0 -0.5494012787
O  O2  1  0.42377000  0.13247000  0.99306000  1.0 -0.5494012787
O  O3  1  0.13247000  0.99306000  0.42377000  1.0 -0.5494012787
O  O4  1  0.00694000  0.57623000  0.86753000  1.0 -0.5494012787
O  O5  1  0.57623000  0.86753000  0.00694000  1.0 -0.5494012787
O  O6  1  0.86753000  0.00694000  0.57623000  1.0 -0.5494012787
O  O7  1  0.56263000  0.00286000  0.77391000  1.0 -0.3996427311
O  O8  1  0.00286000  0.77391000  0.56263000  1.0 -0.3996427311
O  O9  1  0.77391000  0.56263000  0.00286000  1.0 -0.4125216557
O  O10  1  0.43737000  0.99714000  0.22609000  1.0 -0.3996427311
O  O11  1  0.99714000  0.22609000  0.43737000  1.0 -0.3996427311
O  O12  1  0.22609000  0.43737000  0.99714000  1.0 -0.3996427311
O  O13  1  0.77144000  0.37354000  0.00382000  1.0 -0.7021488203
O  O14  1  0.37354000  0.00382000  0.77144000  1.0 -0.7021488203
O  O15  1  0.00382000  0.77144000  0.37354000  1.0 -0.7021488203
O  O16  1  0.22856000  0.62646000  0.99618000  1.0 -0.7021488203
O  O17  1  0.62646000  0.99618000  0.22856000  1.0 -0.7021488203
O  O18  1  0.99618000  0.22856000  0.62646000  1.0 -0.7021488203
O  O19  1  0.11776000  0.68066000  0.39528000  1.0 -0.7452568962
O  O20  1  0.68066000  0.39528000  0.11776000  1.0 -0.7435902609
O  O21  1  0.39528000  0.11776000  0.68066000  1.0 -0.7435902609
O  O22  1  0.88224000  0.31934000  0.60472000  1.0 -0.7435902609
O  O23  1  0.31934000  0.60472000  0.88224000  1.0 -0.7435902609
O  O24  1  0.60472000  0.88224000  0.31934000  1.0 -0.7452568962
