# DDEC6 charges by PACMAN v1.1 (https://github.com/mtap-research/PACMAN-charge/)
data_QOVZEJ_ASR_pacman
_symmetry_space_group_name_H-M   'P 1'
_cell_length_a   21.01050000
_cell_length_b   25.21250000
_cell_length_c   25.45960000
_cell_angle_alpha   90.00000000
_cell_angle_beta   90.00000000
_cell_angle_gamma   90.00000000
_symmetry_Int_Tables_number   1
_chemical_formula_structural   MnH13C14S4NO5
_chemical_formula_sum   'Mn16 H208 C224 S64 N16 O80'
_cell_volume   13486.64341673
_cell_formula_units_Z   16
loop_
 _symmetry_equiv_pos_site_id
 _symmetry_equiv_pos_as_xyz
  1  'x, y, z'
loop_
 _atom_site_type_symbol
 _atom_site_label
 _atom_site_symmetry_multiplicity
 _atom_site_fract_x
 _atom_site_fract_y
 _atom_site_fract_z
 _atom_site_occupancy
 _atom_site_charge
Mn  Mn1  1  0.58005000  0.23109000  0.26480000  1.0 1.0217429863
Mn  Mn2  1  0.43157000  0.24458000  0.26503000  1.0 1.0217429863
Mn  Mn3  1  0.41995000  0.73109000  0.23520000  1.0 1.0217429863
Mn  Mn4  1  0.56843000  0.74458000  0.23497000  1.0 1.0217429863
Mn  Mn5  1  0.41995000  0.76891000  0.73520000  1.0 1.0217429863
Mn  Mn6  1  0.56843000  0.75542000  0.73497000  1.0 1.0217429863
Mn  Mn7  1  0.58005000  0.26891000  0.76480000  1.0 1.0217429863
Mn  Mn8  1  0.43157000  0.25542000  0.76503000  1.0 1.0217429863
Mn  Mn9  1  0.91995000  0.76891000  0.76480000  1.0 1.0217429863
Mn  Mn10  1  0.06843000  0.75542000  0.76503000  1.0 1.0217429863
Mn  Mn11  1  0.08005000  0.26891000  0.73520000  1.0 1.0217429863
Mn  Mn12  1  0.93157000  0.25542000  0.73497000  1.0 1.0217429863
Mn  Mn13  1  0.08005000  0.23109000  0.23520000  1.0 1.0217429863
Mn  Mn14  1  0.93157000  0.24458000  0.23497000  1.0 1.0217429863
Mn  Mn15  1  0.91995000  0.73109000  0.26480000  1.0 1.0217429863
Mn  Mn16  1  0.06843000  0.74458000  0.26503000  1.0 1.0217429863
H  H1  1  0.62574000  0.42253000  0.25444000  1.0 0.1113724677
H  H2  1  0.43052000  0.55308000  0.23777000  1.0 0.1113724677
H  H3  1  0.41155000  0.24093000  0.44780000  1.0 0.1113724677
H  H4  1  0.60276000  0.25759000  0.58151000  1.0 0.1113724677
H  H5  1  0.75445000  0.28926000  0.32407000  1.0 0.1408582148
H  H6  1  0.71341000  0.26159000  0.36938000  1.0 0.1408582148
H  H7  1  0.67837000  0.28993000  0.32114000  1.0 0.1506102325
H  H8  1  0.85331000  0.17556000  0.33575000  1.0 0.1279401349
H  H9  1  0.80271000  0.18251000  0.38223000  1.0 0.118277493
H  H10  1  0.82410000  0.23282000  0.34820000  1.0 0.118277493
H  H11  1  0.80565000  0.13323000  0.26014000  1.0 0.1113724677
H  H12  1  0.72956000  0.13140000  0.25795000  1.0 0.1279401349
H  H13  1  0.76658000  0.10448000  0.30598000  1.0 0.118277493
H  H14  1  0.25321000  0.19950000  0.32867000  1.0 0.1506102325
H  H15  1  0.29375000  0.22827000  0.37362000  1.0 0.1408582148
H  H16  1  0.32924000  0.19568000  0.32831000  1.0 0.1556428837
H  H17  1  0.20461000  0.32529000  0.37552000  1.0 0.118277493
H  H18  1  0.19700000  0.26402000  0.36034000  1.0 0.1113724677
H  H19  1  0.15927000  0.30835000  0.32787000  1.0 0.1279401349
H  H20  1  0.25245000  0.38429000  0.30295000  1.0 0.118277493
H  H21  1  0.21811000  0.35453000  0.25521000  1.0 0.1113724677
H  H22  1  0.29413000  0.35489000  0.25913000  1.0 0.1279401349
H  H23  1  0.43655000  0.41814000  0.25221000  1.0 0.1113724677
H  H24  1  0.62178000  0.55719000  0.23755000  1.0 0.118277493
H  H25  1  0.60444000  0.24336000  0.44749000  1.0 0.1113724677
H  H26  1  0.41359000  0.25155000  0.58242000  1.0 0.1113724677
H  H27  1  0.37426000  0.92253000  0.24556000  1.0 0.1113724677
H  H28  1  0.56948000  0.05308000  0.26223000  1.0 0.1113724677
H  H29  1  0.58845000  0.74093000  0.05220000  1.0 0.1113724677
H  H30  1  0.39724000  0.75759000  0.91849000  1.0 0.1113724677
H  H31  1  0.24555000  0.78926000  0.17593000  1.0 0.1408582148
H  H32  1  0.28659000  0.76159000  0.13062000  1.0 0.1408582148
H  H33  1  0.32163000  0.78993000  0.17886000  1.0 0.1506102325
H  H34  1  0.14669000  0.67556000  0.16425000  1.0 0.1279401349
H  H35  1  0.19729000  0.68251000  0.11777000  1.0 0.118277493
H  H36  1  0.17590000  0.73282000  0.15180000  1.0 0.118277493
H  H37  1  0.19435000  0.63323000  0.23986000  1.0 0.1113724677
H  H38  1  0.27044000  0.63140000  0.24205000  1.0 0.1279401349
H  H39  1  0.23342000  0.60448000  0.19402000  1.0 0.118277493
H  H40  1  0.74679000  0.69950000  0.17133000  1.0 0.1506102325
H  H41  1  0.70625000  0.72827000  0.12638000  1.0 0.1408582148
H  H42  1  0.67076000  0.69568000  0.17169000  1.0 0.1556428837
H  H43  1  0.79539000  0.82529000  0.12448000  1.0 0.118277493
H  H44  1  0.80300000  0.76402000  0.13966000  1.0 0.1113724677
H  H45  1  0.84073000  0.80835000  0.17213000  1.0 0.1279401349
H  H46  1  0.74755000  0.88429000  0.19705000  1.0 0.118277493
H  H47  1  0.78189000  0.85453000  0.24479000  1.0 0.1113724677
H  H48  1  0.70587000  0.85489000  0.24087000  1.0 0.1279401349
H  H49  1  0.56345000  0.91814000  0.24779000  1.0 0.1113724677
H  H50  1  0.37822000  0.05719000  0.26245000  1.0 0.118277493
H  H51  1  0.39556000  0.74336000  0.05251000  1.0 0.1113724677
H  H52  1  0.58641000  0.75155000  0.91758000  1.0 0.1113724677
H  H53  1  0.37426000  0.57747000  0.74556000  1.0 0.1113724677
H  H54  1  0.56948000  0.44692000  0.76223000  1.0 0.1113724677
H  H55  1  0.58845000  0.75907000  0.55220000  1.0 0.1113724677
H  H56  1  0.39724000  0.74241000  0.41849000  1.0 0.1113724677
H  H57  1  0.24555000  0.71074000  0.67593000  1.0 0.1408582148
H  H58  1  0.28659000  0.73841000  0.63062000  1.0 0.1408582148
H  H59  1  0.32163000  0.71007000  0.67886000  1.0 0.1506102325
H  H60  1  0.14669000  0.82444000  0.66425000  1.0 0.1279401349
H  H61  1  0.19729000  0.81749000  0.61777000  1.0 0.118277493
H  H62  1  0.17590000  0.76718000  0.65180000  1.0 0.118277493
H  H63  1  0.19435000  0.86677000  0.73986000  1.0 0.1113724677
H  H64  1  0.27044000  0.86860000  0.74205000  1.0 0.1279401349
H  H65  1  0.23342000  0.89552000  0.69402000  1.0 0.118277493
H  H66  1  0.74679000  0.80050000  0.67133000  1.0 0.1506102325
H  H67  1  0.70625000  0.77173000  0.62638000  1.0 0.1408582148
H  H68  1  0.67076000  0.80432000  0.67169000  1.0 0.1556428837
H  H69  1  0.79539000  0.67471000  0.62448000  1.0 0.118277493
H  H70  1  0.80300000  0.73598000  0.63966000  1.0 0.1113724677
H  H71  1  0.84073000  0.69165000  0.67213000  1.0 0.1279401349
H  H72  1  0.74755000  0.61571000  0.69705000  1.0 0.118277493
H  H73  1  0.78189000  0.64547000  0.74479000  1.0 0.1113724677
H  H74  1  0.70587000  0.64511000  0.74087000  1.0 0.1279401349
H  H75  1  0.56345000  0.58186000  0.74779000  1.0 0.1113724677
H  H76  1  0.37822000  0.44281000  0.76245000  1.0 0.118277493
H  H77  1  0.39556000  0.75664000  0.55251000  1.0 0.1113724677
H  H78  1  0.58641000  0.74845000  0.41758000  1.0 0.1113724677
H  H79  1  0.62574000  0.07747000  0.75444000  1.0 0.1113724677
H  H80  1  0.43052000  0.94692000  0.73777000  1.0 0.1113724677
H  H81  1  0.41155000  0.25907000  0.94780000  1.0 0.1113724677
H  H82  1  0.60276000  0.24241000  0.08151000  1.0 0.1113724677
H  H83  1  0.75445000  0.21074000  0.82407000  1.0 0.1408582148
H  H84  1  0.71341000  0.23841000  0.86938000  1.0 0.1408582148
H  H85  1  0.67837000  0.21007000  0.82114000  1.0 0.1506102325
H  H86  1  0.85331000  0.32444000  0.83575000  1.0 0.1279401349
H  H87  1  0.80271000  0.31749000  0.88223000  1.0 0.118277493
H  H88  1  0.82410000  0.26718000  0.84820000  1.0 0.118277493
H  H89  1  0.80565000  0.36677000  0.76014000  1.0 0.1113724677
H  H90  1  0.72956000  0.36860000  0.75795000  1.0 0.1279401349
H  H91  1  0.76658000  0.39552000  0.80598000  1.0 0.118277493
H  H92  1  0.25321000  0.30050000  0.82867000  1.0 0.1506102325
H  H93  1  0.29375000  0.27173000  0.87362000  1.0 0.1408582148
H  H94  1  0.32924000  0.30432000  0.82831000  1.0 0.1556428837
H  H95  1  0.20461000  0.17471000  0.87552000  1.0 0.118277493
H  H96  1  0.19700000  0.23598000  0.86034000  1.0 0.1113724677
H  H97  1  0.15927000  0.19165000  0.82787000  1.0 0.1279401349
H  H98  1  0.25245000  0.11571000  0.80295000  1.0 0.118277493
H  H99  1  0.21811000  0.14547000  0.75521000  1.0 0.1113724677
H  H100  1  0.29413000  0.14511000  0.75913000  1.0 0.1279401349
H  H101  1  0.43655000  0.08186000  0.75221000  1.0 0.1113724677
H  H102  1  0.62178000  0.94281000  0.73755000  1.0 0.118277493
H  H103  1  0.60444000  0.25664000  0.94749000  1.0 0.1113724677
H  H104  1  0.41359000  0.24845000  0.08242000  1.0 0.1113724677
H  H105  1  0.87426000  0.57747000  0.75444000  1.0 0.1113724677
H  H106  1  0.06948000  0.44692000  0.73777000  1.0 0.1113724677
H  H107  1  0.08845000  0.75907000  0.94780000  1.0 0.1113724677
H  H108  1  0.89724000  0.74241000  0.08151000  1.0 0.1113724677
H  H109  1  0.74555000  0.71074000  0.82407000  1.0 0.1408582148
H  H110  1  0.78659000  0.73841000  0.86938000  1.0 0.1408582148
H  H111  1  0.82163000  0.71007000  0.82114000  1.0 0.1506102325
H  H112  1  0.64669000  0.82444000  0.83575000  1.0 0.1279401349
H  H113  1  0.69729000  0.81749000  0.88223000  1.0 0.118277493
H  H114  1  0.67590000  0.76718000  0.84820000  1.0 0.118277493
H  H115  1  0.69435000  0.86677000  0.76014000  1.0 0.1113724677
H  H116  1  0.77044000  0.86860000  0.75795000  1.0 0.1279401349
H  H117  1  0.73342000  0.89552000  0.80598000  1.0 0.118277493
H  H118  1  0.24679000  0.80050000  0.82867000  1.0 0.1506102325
H  H119  1  0.20625000  0.77173000  0.87362000  1.0 0.1408582148
H  H120  1  0.17076000  0.80432000  0.82831000  1.0 0.1556428837
H  H121  1  0.29539000  0.67471000  0.87552000  1.0 0.118277493
H  H122  1  0.30300000  0.73598000  0.86034000  1.0 0.1113724677
H  H123  1  0.34073000  0.69165000  0.82787000  1.0 0.1279401349
H  H124  1  0.24755000  0.61571000  0.80295000  1.0 0.118277493
H  H125  1  0.28189000  0.64547000  0.75521000  1.0 0.1113724677
H  H126  1  0.20587000  0.64511000  0.75913000  1.0 0.1279401349
H  H127  1  0.06345000  0.58186000  0.75221000  1.0 0.1113724677
H  H128  1  0.87822000  0.44281000  0.73755000  1.0 0.118277493
H  H129  1  0.89556000  0.75664000  0.94749000  1.0 0.1113724677
H  H130  1  0.08641000  0.74845000  0.08242000  1.0 0.1113724677
H  H131  1  0.12574000  0.07747000  0.74556000  1.0 0.1113724677
H  H132  1  0.93052000  0.94692000  0.76223000  1.0 0.1113724677
H  H133  1  0.91155000  0.25907000  0.55220000  1.0 0.1113724677
H  H134  1  0.10276000  0.24241000  0.41849000  1.0 0.1113724677
H  H135  1  0.25445000  0.21074000  0.67593000  1.0 0.1408582148
H  H136  1  0.21341000  0.23841000  0.63062000  1.0 0.1408582148
H  H137  1  0.17837000  0.21007000  0.67886000  1.0 0.1506102325
H  H138  1  0.35331000  0.32444000  0.66425000  1.0 0.1279401349
H  H139  1  0.30271000  0.31749000  0.61777000  1.0 0.118277493
H  H140  1  0.32410000  0.26718000  0.65180000  1.0 0.118277493
H  H141  1  0.30565000  0.36677000  0.73986000  1.0 0.1113724677
H  H142  1  0.22956000  0.36860000  0.74205000  1.0 0.1279401349
H  H143  1  0.26658000  0.39552000  0.69402000  1.0 0.118277493
H  H144  1  0.75321000  0.30050000  0.67133000  1.0 0.1506102325
H  H145  1  0.79375000  0.27173000  0.62638000  1.0 0.1408582148
H  H146  1  0.82924000  0.30432000  0.67169000  1.0 0.1556428837
H  H147  1  0.70461000  0.17471000  0.62448000  1.0 0.118277493
H  H148  1  0.69700000  0.23598000  0.63966000  1.0 0.1113724677
H  H149  1  0.65927000  0.19165000  0.67213000  1.0 0.1279401349
H  H150  1  0.75245000  0.11571000  0.69705000  1.0 0.118277493
H  H151  1  0.71811000  0.14547000  0.74479000  1.0 0.1113724677
H  H152  1  0.79413000  0.14511000  0.74087000  1.0 0.1279401349
H  H153  1  0.93655000  0.08186000  0.74779000  1.0 0.1113724677
H  H154  1  0.12178000  0.94281000  0.76245000  1.0 0.118277493
H  H155  1  0.10444000  0.25664000  0.55251000  1.0 0.1113724677
H  H156  1  0.91359000  0.24845000  0.41758000  1.0 0.1113724677
H  H157  1  0.12574000  0.42253000  0.24556000  1.0 0.1113724677
H  H158  1  0.93052000  0.55308000  0.26223000  1.0 0.1113724677
H  H159  1  0.91155000  0.24093000  0.05220000  1.0 0.1113724677
H  H160  1  0.10276000  0.25759000  0.91849000  1.0 0.1113724677
H  H161  1  0.25445000  0.28926000  0.17593000  1.0 0.1408582148
H  H162  1  0.21341000  0.26159000  0.13062000  1.0 0.1408582148
H  H163  1  0.17837000  0.28993000  0.17886000  1.0 0.1506102325
H  H164  1  0.35331000  0.17556000  0.16425000  1.0 0.1279401349
H  H165  1  0.30271000  0.18251000  0.11777000  1.0 0.118277493
H  H166  1  0.32410000  0.23282000  0.15180000  1.0 0.118277493
H  H167  1  0.30565000  0.13323000  0.23986000  1.0 0.1113724677
H  H168  1  0.22956000  0.13140000  0.24205000  1.0 0.1279401349
H  H169  1  0.26658000  0.10448000  0.19402000  1.0 0.118277493
H  H170  1  0.75321000  0.19950000  0.17133000  1.0 0.1506102325
H  H171  1  0.79375000  0.22827000  0.12638000  1.0 0.1408582148
H  H172  1  0.82924000  0.19568000  0.17169000  1.0 0.1556428837
H  H173  1  0.70461000  0.32529000  0.12448000  1.0 0.118277493
H  H174  1  0.69700000  0.26402000  0.13966000  1.0 0.1113724677
H  H175  1  0.65927000  0.30835000  0.17213000  1.0 0.1279401349
H  H176  1  0.75245000  0.38429000  0.19705000  1.0 0.118277493
H  H177  1  0.71811000  0.35453000  0.24479000  1.0 0.1113724677
H  H178  1  0.79413000  0.35489000  0.24087000  1.0 0.1279401349
H  H179  1  0.93655000  0.41814000  0.24779000  1.0 0.1113724677
H  H180  1  0.12178000  0.55719000  0.26245000  1.0 0.118277493
H  H181  1  0.10444000  0.24336000  0.05251000  1.0 0.1113724677
H  H182  1  0.91359000  0.25155000  0.91758000  1.0 0.1113724677
H  H183  1  0.87426000  0.92253000  0.25444000  1.0 0.1113724677
H  H184  1  0.06948000  0.05308000  0.23777000  1.0 0.1113724677
H  H185  1  0.08845000  0.74093000  0.44780000  1.0 0.1113724677
H  H186  1  0.89724000  0.75759000  0.58151000  1.0 0.1113724677
H  H187  1  0.74555000  0.78926000  0.32407000  1.0 0.1408582148
H  H188  1  0.78659000  0.76159000  0.36938000  1.0 0.1408582148
H  H189  1  0.82163000  0.78993000  0.32114000  1.0 0.1506102325
H  H190  1  0.64669000  0.67556000  0.33575000  1.0 0.1279401349
H  H191  1  0.69729000  0.68251000  0.38223000  1.0 0.118277493
H  H192  1  0.67590000  0.73282000  0.34820000  1.0 0.118277493
H  H193  1  0.69435000  0.63323000  0.26014000  1.0 0.1113724677
H  H194  1  0.77044000  0.63140000  0.25795000  1.0 0.1279401349
H  H195  1  0.73342000  0.60448000  0.30598000  1.0 0.118277493
H  H196  1  0.24679000  0.69950000  0.32867000  1.0 0.1506102325
H  H197  1  0.20625000  0.72827000  0.37362000  1.0 0.1408582148
H  H198  1  0.17076000  0.69568000  0.32831000  1.0 0.1556428837
H  H199  1  0.29539000  0.82529000  0.37552000  1.0 0.118277493
H  H200  1  0.30300000  0.76402000  0.36034000  1.0 0.1113724677
H  H201  1  0.34073000  0.80835000  0.32787000  1.0 0.1279401349
H  H202  1  0.24755000  0.88429000  0.30295000  1.0 0.118277493
H  H203  1  0.28189000  0.85453000  0.25521000  1.0 0.1113724677
H  H204  1  0.20587000  0.85489000  0.25913000  1.0 0.1279401349
H  H205  1  0.06345000  0.91814000  0.25221000  1.0 0.1113724677
H  H206  1  0.87822000  0.05719000  0.23755000  1.0 0.118277493
H  H207  1  0.89556000  0.74336000  0.44749000  1.0 0.1113724677
H  H208  1  0.08641000  0.75155000  0.58242000  1.0 0.1113724677
C  C1  1  0.53350000  0.33941000  0.26015000  1.0 0.5398328433
C  C2  1  0.53264000  0.39811000  0.25388000  1.0 -0.0109862585
C  C3  1  0.58240000  0.43290000  0.25200000  1.0 -0.1189253462
C  C4  1  0.56163000  0.48820000  0.24568000  1.0 0.0041794717
C  C5  1  0.49577000  0.48743000  0.24520000  1.0 0.0096313786
C  C6  1  0.47390000  0.54260000  0.23990000  1.0 -0.0576350281
C  C7  1  0.52521000  0.57707000  0.23845000  1.0 -0.0109862585
C  C8  1  0.52269000  0.63603000  0.23583000  1.0 0.5505846942
C  C9  1  0.50683000  0.23899000  0.36798000  1.0 0.5505846942
C  C10  1  0.50704000  0.24187000  0.42598000  1.0 -0.0166331496
C  C11  1  0.45450000  0.24320000  0.45920000  1.0 -0.0842301188
C  C12  1  0.47462000  0.24853000  0.51477000  1.0 0.0096313786
C  C13  1  0.54012000  0.24954000  0.51489000  1.0 0.0096313786
C  C14  1  0.55980000  0.25510000  0.57020000  1.0 -0.1027824802
C  C15  1  0.50759000  0.25625000  0.60372000  1.0 -0.0264979235
C  C16  1  0.50774000  0.26069000  0.66168000  1.0 0.5398328433
C  C17  1  0.71668000  0.21768000  0.30150000  1.0 0.5113412159
C  C18  1  0.71560000  0.26911000  0.33166000  1.0 -0.6010045355
C  C19  1  0.81510000  0.19470000  0.34714000  1.0 -0.3462631648
C  C20  1  0.76660000  0.13420000  0.28120000  1.0 -0.3302932197
C  C21  1  0.29611000  0.26750000  0.30359000  1.0 0.517417373
C  C22  1  0.29280000  0.21854000  0.33636000  1.0 -0.6010045355
C  C23  1  0.19890000  0.30020000  0.34646000  1.0 -0.3462631648
C  C24  1  0.25440000  0.35365000  0.27933000  1.0 -0.3302932197
C  C25  1  0.47910000  0.43090000  0.25080000  1.0 -0.0917218708
C  C26  1  0.57930000  0.54460000  0.23990000  1.0 -0.1093925929
C  C27  1  0.56150000  0.24450000  0.45900000  1.0 -0.0715553362
C  C28  1  0.45650000  0.25210000  0.57060000  1.0 -0.1093925929
C  C29  1  0.46650000  0.83941000  0.23985000  1.0 0.5398328433
C  C30  1  0.46736000  0.89811000  0.24612000  1.0 -0.0109862585
C  C31  1  0.41760000  0.93290000  0.24800000  1.0 -0.1189253462
C  C32  1  0.43837000  0.98820000  0.25432000  1.0 0.0041794717
C  C33  1  0.50423000  0.98743000  0.25480000  1.0 0.0096313786
C  C34  1  0.52610000  0.04260000  0.26010000  1.0 -0.0576350281
C  C35  1  0.47479000  0.07707000  0.26155000  1.0 -0.0109862585
C  C36  1  0.47731000  0.13603000  0.26417000  1.0 0.5505846942
C  C37  1  0.49317000  0.73899000  0.13202000  1.0 0.5505846942
C  C38  1  0.49296000  0.74187000  0.07402000  1.0 -0.0166331496
C  C39  1  0.54550000  0.74320000  0.04080000  1.0 -0.0842301188
C  C40  1  0.52538000  0.74853000  0.98523000  1.0 0.0096313786
C  C41  1  0.45988000  0.74954000  0.98511000  1.0 0.0096313786
C  C42  1  0.44020000  0.75510000  0.92980000  1.0 -0.1027824802
C  C43  1  0.49241000  0.75625000  0.89628000  1.0 -0.0264979235
C  C44  1  0.49226000  0.76069000  0.83832000  1.0 0.5398328433
C  C45  1  0.28332000  0.71768000  0.19850000  1.0 0.5113412159
C  C46  1  0.28440000  0.76911000  0.16834000  1.0 -0.6010045355
C  C47  1  0.18490000  0.69470000  0.15286000  1.0 -0.3462631648
C  C48  1  0.23340000  0.63420000  0.21880000  1.0 -0.3302932197
C  C49  1  0.70389000  0.76750000  0.19641000  1.0 0.517417373
C  C50  1  0.70720000  0.71854000  0.16364000  1.0 -0.6010045355
C  C51  1  0.80110000  0.80020000  0.15354000  1.0 -0.3462631648
C  C52  1  0.74560000  0.85365000  0.22067000  1.0 -0.3302932197
C  C53  1  0.52090000  0.93090000  0.24920000  1.0 -0.1027824802
C  C54  1  0.42070000  0.04460000  0.26010000  1.0 -0.1093925929
C  C55  1  0.43850000  0.74450000  0.04100000  1.0 -0.0715553362
C  C56  1  0.54350000  0.75210000  0.92940000  1.0 -0.1093925929
C  C57  1  0.46650000  0.66059000  0.73985000  1.0 0.5398328433
C  C58  1  0.46736000  0.60189000  0.74612000  1.0 -0.0109862585
C  C59  1  0.41760000  0.56710000  0.74800000  1.0 -0.1189253462
C  C60  1  0.43837000  0.51180000  0.75432000  1.0 0.0041794717
C  C61  1  0.50423000  0.51257000  0.75480000  1.0 0.0096313786
C  C62  1  0.52610000  0.45740000  0.76010000  1.0 -0.0576350281
C  C63  1  0.47479000  0.42293000  0.76155000  1.0 -0.0109862585
C  C64  1  0.47731000  0.36397000  0.76417000  1.0 0.5505846942
C  C65  1  0.49317000  0.76101000  0.63202000  1.0 0.5505846942
C  C66  1  0.49296000  0.75813000  0.57402000  1.0 -0.0166331496
C  C67  1  0.54550000  0.75680000  0.54080000  1.0 -0.0917218708
C  C68  1  0.52538000  0.75147000  0.48523000  1.0 0.0096313786
C  C69  1  0.45988000  0.75046000  0.48511000  1.0 0.0096313786
C  C70  1  0.44020000  0.74490000  0.42980000  1.0 -0.1027824802
C  C71  1  0.49241000  0.74375000  0.39628000  1.0 -0.0264979235
C  C72  1  0.49226000  0.73931000  0.33832000  1.0 0.5398328433
C  C73  1  0.28332000  0.78232000  0.69850000  1.0 0.5113412159
C  C74  1  0.28440000  0.73089000  0.66834000  1.0 -0.6010045355
C  C75  1  0.18490000  0.80530000  0.65286000  1.0 -0.3462631648
C  C76  1  0.23340000  0.86580000  0.71880000  1.0 -0.3302932197
C  C77  1  0.70389000  0.73250000  0.69641000  1.0 0.517417373
C  C78  1  0.70720000  0.78146000  0.66364000  1.0 -0.6010045355
C  C79  1  0.80110000  0.69980000  0.65354000  1.0 -0.3462631648
C  C80  1  0.74560000  0.64635000  0.72067000  1.0 -0.3302932197
C  C81  1  0.52090000  0.56910000  0.74920000  1.0 -0.0917218708
C  C82  1  0.42070000  0.45540000  0.76010000  1.0 -0.1093925929
C  C83  1  0.43850000  0.75550000  0.54100000  1.0 -0.0715553362
C  C84  1  0.54350000  0.74790000  0.42940000  1.0 -0.1093925929
C  C85  1  0.53350000  0.16059000  0.76015000  1.0 0.5398328433
C  C86  1  0.53264000  0.10189000  0.75388000  1.0 -0.0109862585
C  C87  1  0.58240000  0.06710000  0.75200000  1.0 -0.1189253462
C  C88  1  0.56163000  0.01180000  0.74568000  1.0 0.0041794717
C  C89  1  0.49577000  0.01257000  0.74520000  1.0 0.0096313786
C  C90  1  0.47390000  0.95740000  0.73990000  1.0 -0.0576350281
C  C91  1  0.52521000  0.92293000  0.73845000  1.0 -0.0109862585
C  C92  1  0.52269000  0.86397000  0.73583000  1.0 0.5505846942
C  C93  1  0.50683000  0.26101000  0.86798000  1.0 0.5505846942
C  C94  1  0.50704000  0.25813000  0.92598000  1.0 -0.0166331496
C  C95  1  0.45450000  0.25680000  0.95920000  1.0 -0.0842301188
C  C96  1  0.47462000  0.25147000  0.01477000  1.0 0.0096313786
C  C97  1  0.54012000  0.25046000  0.01489000  1.0 0.0096313786
C  C98  1  0.55980000  0.24490000  0.07020000  1.0 -0.1027824802
C  C99  1  0.50759000  0.24375000  0.10372000  1.0 -0.0264979235
C  C100  1  0.50774000  0.23931000  0.16168000  1.0 0.5398328433
C  C101  1  0.71668000  0.28232000  0.80150000  1.0 0.5113412159
C  C102  1  0.71560000  0.23089000  0.83166000  1.0 -0.6010045355
C  C103  1  0.81510000  0.30530000  0.84714000  1.0 -0.3462631648
C  C104  1  0.76660000  0.36580000  0.78120000  1.0 -0.3302932197
C  C105  1  0.29611000  0.23250000  0.80359000  1.0 0.517417373
C  C106  1  0.29280000  0.28146000  0.83636000  1.0 -0.6010045355
C  C107  1  0.19890000  0.19980000  0.84646000  1.0 -0.3462631648
C  C108  1  0.25440000  0.14635000  0.77933000  1.0 -0.3302932197
C  C109  1  0.47910000  0.06910000  0.75080000  1.0 -0.0917218708
C  C110  1  0.57930000  0.95540000  0.73990000  1.0 -0.1093925929
C  C111  1  0.56150000  0.25550000  0.95900000  1.0 -0.0715553362
C  C112  1  0.45650000  0.24790000  0.07060000  1.0 -0.1093925929
C  C113  1  0.96650000  0.66059000  0.76015000  1.0 0.5398328433
C  C114  1  0.96736000  0.60189000  0.75388000  1.0 -0.0109862585
C  C115  1  0.91760000  0.56710000  0.75200000  1.0 -0.1189253462
C  C116  1  0.93837000  0.51180000  0.74568000  1.0 0.0096313786
C  C117  1  0.00423000  0.51257000  0.74520000  1.0 0.0096313786
C  C118  1  0.02610000  0.45740000  0.73990000  1.0 -0.0576350281
C  C119  1  0.97479000  0.42293000  0.73845000  1.0 -0.0109862585
C  C120  1  0.97731000  0.36397000  0.73583000  1.0 0.5505846942
C  C121  1  0.99317000  0.76101000  0.86798000  1.0 0.5505846942
C  C122  1  0.99296000  0.75813000  0.92598000  1.0 -0.0166331496
C  C123  1  0.04550000  0.75680000  0.95920000  1.0 -0.0917218708
C  C124  1  0.02538000  0.75147000  0.01477000  1.0 0.0096313786
C  C125  1  0.95988000  0.75046000  0.01489000  1.0 0.0096313786
C  C126  1  0.94020000  0.74490000  0.07020000  1.0 -0.1027824802
C  C127  1  0.99241000  0.74375000  0.10372000  1.0 -0.0264979235
C  C128  1  0.99226000  0.73931000  0.16168000  1.0 0.5398328433
C  C129  1  0.78332000  0.78232000  0.80150000  1.0 0.5113412159
C  C130  1  0.78440000  0.73089000  0.83166000  1.0 -0.6010045355
C  C131  1  0.68490000  0.80530000  0.84714000  1.0 -0.3462631648
C  C132  1  0.73340000  0.86580000  0.78120000  1.0 -0.3302932197
C  C133  1  0.20389000  0.73250000  0.80359000  1.0 0.517417373
C  C134  1  0.20720000  0.78146000  0.83636000  1.0 -0.6010045355
C  C135  1  0.30110000  0.69980000  0.84646000  1.0 -0.3462631648
C  C136  1  0.24560000  0.64635000  0.77933000  1.0 -0.3302932197
C  C137  1  0.02090000  0.56910000  0.75080000  1.0 -0.0917218708
C  C138  1  0.92070000  0.45540000  0.73990000  1.0 -0.1093925929
C  C139  1  0.93850000  0.75550000  0.95900000  1.0 -0.0715553362
C  C140  1  0.04350000  0.74790000  0.07060000  1.0 -0.1093925929
C  C141  1  0.03350000  0.16059000  0.73985000  1.0 0.5398328433
C  C142  1  0.03264000  0.10189000  0.74612000  1.0 -0.0109862585
C  C143  1  0.08240000  0.06710000  0.74800000  1.0 -0.1189253462
C  C144  1  0.06163000  0.01180000  0.75432000  1.0 0.0041794717
C  C145  1  0.99577000  0.01257000  0.75480000  1.0 0.0096313786
C  C146  1  0.97390000  0.95740000  0.76010000  1.0 -0.0576350281
C  C147  1  0.02521000  0.92293000  0.76155000  1.0 -0.0109862585
C  C148  1  0.02269000  0.86397000  0.76417000  1.0 0.5505846942
C  C149  1  0.00683000  0.26101000  0.63202000  1.0 0.5505846942
C  C150  1  0.00704000  0.25813000  0.57402000  1.0 -0.0166331496
C  C151  1  0.95450000  0.25680000  0.54080000  1.0 -0.0842301188
C  C152  1  0.97462000  0.25147000  0.48523000  1.0 0.0096313786
C  C153  1  0.04012000  0.25046000  0.48511000  1.0 0.0096313786
C  C154  1  0.05980000  0.24490000  0.42980000  1.0 -0.1027824802
C  C155  1  0.00759000  0.24375000  0.39628000  1.0 -0.0264979235
C  C156  1  0.00774000  0.23931000  0.33832000  1.0 0.5398328433
C  C157  1  0.21668000  0.28232000  0.69850000  1.0 0.5113412159
C  C158  1  0.21560000  0.23089000  0.66834000  1.0 -0.6010045355
C  C159  1  0.31510000  0.30530000  0.65286000  1.0 -0.3462631648
C  C160  1  0.26660000  0.36580000  0.71880000  1.0 -0.3302932197
C  C161  1  0.79611000  0.23250000  0.69641000  1.0 0.517417373
C  C162  1  0.79280000  0.28146000  0.66364000  1.0 -0.6010045355
C  C163  1  0.69890000  0.19980000  0.65354000  1.0 -0.3462631648
C  C164  1  0.75440000  0.14635000  0.72067000  1.0 -0.3302932197
C  C165  1  0.97910000  0.06910000  0.74920000  1.0 -0.0917218708
C  C166  1  0.07930000  0.95540000  0.76010000  1.0 -0.1093925929
C  C167  1  0.06150000  0.25550000  0.54100000  1.0 -0.0715553362
C  C168  1  0.95650000  0.24790000  0.42940000  1.0 -0.1093925929
C  C169  1  0.03350000  0.33941000  0.23985000  1.0 0.5398328433
C  C170  1  0.03264000  0.39811000  0.24612000  1.0 -0.0109862585
C  C171  1  0.08240000  0.43290000  0.24800000  1.0 -0.1189253462
C  C172  1  0.06163000  0.48820000  0.25432000  1.0 0.0041794717
C  C173  1  0.99577000  0.48743000  0.25480000  1.0 0.0096313786
C  C174  1  0.97390000  0.54260000  0.26010000  1.0 -0.0576350281
C  C175  1  0.02521000  0.57707000  0.26155000  1.0 -0.0109862585
C  C176  1  0.02269000  0.63603000  0.26417000  1.0 0.5505846942
C  C177  1  0.00683000  0.23899000  0.13202000  1.0 0.5505846942
C  C178  1  0.00704000  0.24187000  0.07402000  1.0 -0.0166331496
C  C179  1  0.95450000  0.24320000  0.04080000  1.0 -0.0842301188
C  C180  1  0.97462000  0.24853000  0.98523000  1.0 0.0096313786
C  C181  1  0.04012000  0.24954000  0.98511000  1.0 0.0096313786
C  C182  1  0.05980000  0.25510000  0.92980000  1.0 -0.1027824802
C  C183  1  0.00759000  0.25625000  0.89628000  1.0 -0.0264979235
C  C184  1  0.00774000  0.26069000  0.83832000  1.0 0.5398328433
C  C185  1  0.21668000  0.21768000  0.19850000  1.0 0.5113412159
C  C186  1  0.21560000  0.26911000  0.16834000  1.0 -0.6010045355
C  C187  1  0.31510000  0.19470000  0.15286000  1.0 -0.3462631648
C  C188  1  0.26660000  0.13420000  0.21880000  1.0 -0.3302932197
C  C189  1  0.79611000  0.26750000  0.19641000  1.0 0.517417373
C  C190  1  0.79280000  0.21854000  0.16364000  1.0 -0.6010045355
C  C191  1  0.69890000  0.30020000  0.15354000  1.0 -0.3462631648
C  C192  1  0.75440000  0.35365000  0.22067000  1.0 -0.3302932197
C  C193  1  0.97910000  0.43090000  0.24920000  1.0 -0.0917218708
C  C194  1  0.07930000  0.54460000  0.26010000  1.0 -0.1093925929
C  C195  1  0.06150000  0.24450000  0.04100000  1.0 -0.0715553362
C  C196  1  0.95650000  0.25210000  0.92940000  1.0 -0.1093925929
C  C197  1  0.96650000  0.83941000  0.26015000  1.0 0.5398328433
C  C198  1  0.96736000  0.89811000  0.25388000  1.0 -0.0109862585
C  C199  1  0.91760000  0.93290000  0.25200000  1.0 -0.1189253462
C  C200  1  0.93837000  0.98820000  0.24568000  1.0 0.0041794717
C  C201  1  0.00423000  0.98743000  0.24520000  1.0 0.0096313786
C  C202  1  0.02610000  0.04260000  0.23990000  1.0 -0.0576350281
C  C203  1  0.97479000  0.07707000  0.23845000  1.0 -0.0109862585
C  C204  1  0.97731000  0.13603000  0.23583000  1.0 0.5505846942
C  C205  1  0.99317000  0.73899000  0.36798000  1.0 0.5505846942
C  C206  1  0.99296000  0.74187000  0.42598000  1.0 -0.0166331496
C  C207  1  0.04550000  0.74320000  0.45920000  1.0 -0.0917218708
C  C208  1  0.02538000  0.74853000  0.51477000  1.0 0.0096313786
C  C209  1  0.95988000  0.74954000  0.51489000  1.0 0.0096313786
C  C210  1  0.94020000  0.75510000  0.57020000  1.0 -0.1027824802
C  C211  1  0.99241000  0.75625000  0.60372000  1.0 -0.0264979235
C  C212  1  0.99226000  0.76069000  0.66168000  1.0 0.5398328433
C  C213  1  0.78332000  0.71768000  0.30150000  1.0 0.5113412159
C  C214  1  0.78440000  0.76911000  0.33166000  1.0 -0.6010045355
C  C215  1  0.68490000  0.69470000  0.34714000  1.0 -0.3462631648
C  C216  1  0.73340000  0.63420000  0.28120000  1.0 -0.3302932197
C  C217  1  0.20389000  0.76750000  0.30359000  1.0 0.517417373
C  C218  1  0.20720000  0.71854000  0.33636000  1.0 -0.6010045355
C  C219  1  0.30110000  0.80020000  0.34646000  1.0 -0.3462631648
C  C220  1  0.24560000  0.85365000  0.27933000  1.0 -0.3302932197
C  C221  1  0.02090000  0.93090000  0.25080000  1.0 -0.1027824802
C  C222  1  0.92070000  0.04460000  0.23990000  1.0 -0.1093925929
C  C223  1  0.93850000  0.74450000  0.45900000  1.0 -0.0715553362
C  C224  1  0.04350000  0.75210000  0.57060000  1.0 -0.1093925929
S  S1  1  0.45975000  0.42797000  0.24981000  1.0 0.0387192739
S  S2  1  0.59685000  0.54687000  0.24388000  1.0 0.0308303712
S  S3  1  0.57744000  0.24633000  0.45731000  1.0 0.0153251866
S  S4  1  0.43582000  0.25207000  0.57137000  1.0 0.0308303712
S  S5  1  0.60194000  0.43159000  0.24811000  1.0 0.0308303712
S  S6  1  0.45670000  0.54350000  0.24200000  1.0 0.0308303712
S  S7  1  0.43718000  0.24391000  0.45850000  1.0 0.0308303712
S  S8  1  0.57935000  0.25450000  0.57181000  1.0 0.0387192739
S  S9  1  0.54025000  0.92797000  0.25019000  1.0 0.0387192739
S  S10  1  0.40315000  0.04687000  0.25612000  1.0 0.0308303712
S  S11  1  0.42256000  0.74633000  0.04269000  1.0 0.0153251866
S  S12  1  0.56418000  0.75207000  0.92863000  1.0 0.0308303712
S  S13  1  0.39806000  0.93159000  0.25189000  1.0 0.0308303712
S  S14  1  0.54330000  0.04350000  0.25800000  1.0 0.0308303712
S  S15  1  0.56282000  0.74391000  0.04150000  1.0 0.0308303712
S  S16  1  0.42065000  0.75450000  0.92819000  1.0 0.0387192739
S  S17  1  0.54025000  0.57203000  0.75019000  1.0 0.0387192739
S  S18  1  0.40315000  0.45313000  0.75612000  1.0 0.0308303712
S  S19  1  0.42256000  0.75367000  0.54269000  1.0 0.0153251866
S  S20  1  0.56418000  0.74793000  0.42863000  1.0 0.0308303712
S  S21  1  0.39806000  0.56841000  0.75189000  1.0 0.0308303712
S  S22  1  0.54330000  0.45650000  0.75800000  1.0 0.0308303712
S  S23  1  0.56282000  0.75609000  0.54150000  1.0 0.0308303712
S  S24  1  0.42065000  0.74550000  0.42819000  1.0 0.0387192739
S  S25  1  0.45975000  0.07203000  0.74981000  1.0 0.0387192739
S  S26  1  0.59685000  0.95313000  0.74388000  1.0 0.0308303712
S  S27  1  0.57744000  0.25367000  0.95731000  1.0 0.0153251866
S  S28  1  0.43582000  0.24793000  0.07137000  1.0 0.0308303712
S  S29  1  0.60194000  0.06841000  0.74811000  1.0 0.0308303712
S  S30  1  0.45670000  0.95650000  0.74200000  1.0 0.0308303712
S  S31  1  0.43718000  0.25609000  0.95850000  1.0 0.0308303712
S  S32  1  0.57935000  0.24550000  0.07181000  1.0 0.0387192739
S  S33  1  0.04025000  0.57203000  0.74981000  1.0 0.0387192739
S  S34  1  0.90315000  0.45313000  0.74388000  1.0 0.0308303712
S  S35  1  0.92256000  0.75367000  0.95731000  1.0 0.0153251866
S  S36  1  0.06418000  0.74793000  0.07137000  1.0 0.0308303712
S  S37  1  0.89806000  0.56841000  0.74811000  1.0 0.0308303712
S  S38  1  0.04330000  0.45650000  0.74200000  1.0 0.0308303712
S  S39  1  0.06282000  0.75609000  0.95850000  1.0 0.0308303712
S  S40  1  0.92065000  0.74550000  0.07181000  1.0 0.0387192739
S  S41  1  0.95975000  0.07203000  0.75019000  1.0 0.0387192739
S  S42  1  0.09685000  0.95313000  0.75612000  1.0 0.0308303712
S  S43  1  0.07744000  0.25367000  0.54269000  1.0 0.0153251866
S  S44  1  0.93582000  0.24793000  0.42863000  1.0 0.0308303712
S  S45  1  0.10194000  0.06841000  0.75189000  1.0 0.0308303712
S  S46  1  0.95670000  0.95650000  0.75800000  1.0 0.0308303712
S  S47  1  0.93718000  0.25609000  0.54150000  1.0 0.0308303712
S  S48  1  0.07935000  0.24550000  0.42819000  1.0 0.0387192739
S  S49  1  0.95975000  0.42797000  0.25019000  1.0 0.0387192739
S  S50  1  0.09685000  0.54687000  0.25612000  1.0 0.0308303712
S  S51  1  0.07744000  0.24633000  0.04269000  1.0 0.0153251866
S  S52  1  0.93582000  0.25207000  0.92863000  1.0 0.0308303712
S  S53  1  0.10194000  0.43159000  0.25189000  1.0 0.0308303712
S  S54  1  0.95670000  0.54350000  0.25800000  1.0 0.0308303712
S  S55  1  0.93718000  0.24391000  0.04150000  1.0 0.0308303712
S  S56  1  0.07935000  0.25450000  0.92819000  1.0 0.0387192739
S  S57  1  0.04025000  0.92797000  0.24981000  1.0 0.0387192739
S  S58  1  0.90315000  0.04687000  0.24388000  1.0 0.0308303712
S  S59  1  0.92256000  0.74633000  0.45731000  1.0 0.0153251866
S  S60  1  0.06418000  0.75207000  0.57137000  1.0 0.0308303712
S  S61  1  0.89806000  0.93159000  0.24811000  1.0 0.0308303712
S  S62  1  0.04330000  0.04350000  0.24200000  1.0 0.0308303712
S  S63  1  0.06282000  0.74391000  0.45850000  1.0 0.0308303712
S  S64  1  0.92065000  0.75450000  0.57181000  1.0 0.0387192739
N  N1  1  0.76362000  0.18458000  0.31043000  1.0 -0.0033135978
N  N2  1  0.25245000  0.30478000  0.31019000  1.0 -0.0033135978
N  N3  1  0.23638000  0.68458000  0.18957000  1.0 -0.0033135978
N  N4  1  0.74755000  0.80478000  0.18981000  1.0 -0.0033135978
N  N5  1  0.23638000  0.81542000  0.68957000  1.0 -0.0033135978
N  N6  1  0.74755000  0.69522000  0.68981000  1.0 -0.0109862585
N  N7  1  0.76362000  0.31542000  0.81043000  1.0 -0.0033135978
N  N8  1  0.25245000  0.19522000  0.81019000  1.0 -0.0109862585
N  N9  1  0.73638000  0.81542000  0.81043000  1.0 -0.0033135978
N  N10  1  0.24755000  0.69522000  0.81019000  1.0 -0.0109862585
N  N11  1  0.26362000  0.31542000  0.68957000  1.0 -0.0033135978
N  N12  1  0.75245000  0.19522000  0.68981000  1.0 -0.0109862585
N  N13  1  0.26362000  0.18458000  0.18957000  1.0 -0.0033135978
N  N14  1  0.75245000  0.30478000  0.18981000  1.0 -0.0033135978
N  N15  1  0.73638000  0.68458000  0.31043000  1.0 -0.0033135978
N  N16  1  0.24755000  0.80478000  0.31019000  1.0 -0.0033135978
O  O1  1  0.58622000  0.31618000  0.26116000  1.0 -0.5285790304
O  O2  1  0.47984000  0.31749000  0.26418000  1.0 -0.5471451067
O  O3  1  0.46859000  0.65681000  0.23442000  1.0 -0.5285790304
O  O4  1  0.57500000  0.66046000  0.23530000  1.0 -0.5285790304
O  O5  1  0.56033000  0.23700000  0.34555000  1.0 -0.5191436393
O  O6  1  0.45332000  0.23932000  0.34570000  1.0 -0.5285790304
O  O7  1  0.45442000  0.25876000  0.68415000  1.0 -0.5471451067
O  O8  1  0.56102000  0.26624000  0.68370000  1.0 -0.5406402964
O  O9  1  0.67414000  0.20781000  0.26813000  1.0 -0.5582221432
O  O10  1  0.33908000  0.27267000  0.27002000  1.0 -0.5406402964
O  O11  1  0.41378000  0.81618000  0.23884000  1.0 -0.5285790304
O  O12  1  0.52016000  0.81749000  0.23582000  1.0 -0.5471451067
O  O13  1  0.53141000  0.15681000  0.26558000  1.0 -0.5285790304
O  O14  1  0.42500000  0.16046000  0.26470000  1.0 -0.5285790304
O  O15  1  0.43967000  0.73700000  0.15445000  1.0 -0.5191436393
O  O16  1  0.54668000  0.73932000  0.15430000  1.0 -0.5285790304
O  O17  1  0.54558000  0.75876000  0.81585000  1.0 -0.5471451067
O  O18  1  0.43898000  0.76624000  0.81630000  1.0 -0.5406402964
O  O19  1  0.32586000  0.70781000  0.23187000  1.0 -0.5582221432
O  O20  1  0.66092000  0.77267000  0.22998000  1.0 -0.5406402964
O  O21  1  0.41378000  0.68382000  0.73884000  1.0 -0.5285790304
O  O22  1  0.52016000  0.68251000  0.73582000  1.0 -0.5471451067
O  O23  1  0.53141000  0.34319000  0.76558000  1.0 -0.5285790304
O  O24  1  0.42500000  0.33954000  0.76470000  1.0 -0.5285790304
O  O25  1  0.43967000  0.76300000  0.65445000  1.0 -0.5191436393
O  O26  1  0.54668000  0.76068000  0.65430000  1.0 -0.5285790304
O  O27  1  0.54558000  0.74124000  0.31585000  1.0 -0.5471451067
O  O28  1  0.43898000  0.73376000  0.31630000  1.0 -0.5406402964
O  O29  1  0.32586000  0.79219000  0.73187000  1.0 -0.5582221432
O  O30  1  0.66092000  0.72733000  0.72998000  1.0 -0.5406402964
O  O31  1  0.58622000  0.18382000  0.76116000  1.0 -0.5285790304
O  O32  1  0.47984000  0.18251000  0.76418000  1.0 -0.5471451067
O  O33  1  0.46859000  0.84319000  0.73442000  1.0 -0.5285790304
O  O34  1  0.57500000  0.83954000  0.73530000  1.0 -0.5285790304
O  O35  1  0.56033000  0.26300000  0.84555000  1.0 -0.5191436393
O  O36  1  0.45332000  0.26068000  0.84570000  1.0 -0.5285790304
O  O37  1  0.45442000  0.24124000  0.18415000  1.0 -0.5471451067
O  O38  1  0.56102000  0.23376000  0.18370000  1.0 -0.5406402964
O  O39  1  0.67414000  0.29219000  0.76813000  1.0 -0.5582221432
O  O40  1  0.33908000  0.22733000  0.77002000  1.0 -0.5406402964
O  O41  1  0.91378000  0.68382000  0.76116000  1.0 -0.5285790304
O  O42  1  0.02016000  0.68251000  0.76418000  1.0 -0.5471451067
O  O43  1  0.03141000  0.34319000  0.73442000  1.0 -0.5285790304
O  O44  1  0.92500000  0.33954000  0.73530000  1.0 -0.5285790304
O  O45  1  0.93967000  0.76300000  0.84555000  1.0 -0.5191436393
O  O46  1  0.04668000  0.76068000  0.84570000  1.0 -0.5285790304
O  O47  1  0.04558000  0.74124000  0.18415000  1.0 -0.5471451067
O  O48  1  0.93898000  0.73376000  0.18370000  1.0 -0.5406402964
O  O49  1  0.82586000  0.79219000  0.76813000  1.0 -0.5582221432
O  O50  1  0.16092000  0.72733000  0.77002000  1.0 -0.5406402964
O  O51  1  0.08622000  0.18382000  0.73884000  1.0 -0.5285790304
O  O52  1  0.97984000  0.18251000  0.73582000  1.0 -0.5406402964
O  O53  1  0.96859000  0.84319000  0.76558000  1.0 -0.5285790304
O  O54  1  0.07500000  0.83954000  0.76470000  1.0 -0.5285790304
O  O55  1  0.06033000  0.26300000  0.65445000  1.0 -0.5191436393
O  O56  1  0.95332000  0.26068000  0.65430000  1.0 -0.5285790304
O  O57  1  0.95442000  0.24124000  0.31585000  1.0 -0.5471451067
O  O58  1  0.06102000  0.23376000  0.31630000  1.0 -0.5406402964
O  O59  1  0.17414000  0.29219000  0.73187000  1.0 -0.5582221432
O  O60  1  0.83908000  0.22733000  0.72998000  1.0 -0.5406402964
O  O61  1  0.08622000  0.31618000  0.23884000  1.0 -0.5285790304
O  O62  1  0.97984000  0.31749000  0.23582000  1.0 -0.5471451067
O  O63  1  0.96859000  0.65681000  0.26558000  1.0 -0.5285790304
O  O64  1  0.07500000  0.66046000  0.26470000  1.0 -0.5285790304
O  O65  1  0.06033000  0.23700000  0.15445000  1.0 -0.5191436393
O  O66  1  0.95332000  0.23932000  0.15430000  1.0 -0.5285790304
O  O67  1  0.95442000  0.25876000  0.81585000  1.0 -0.5471451067
O  O68  1  0.06102000  0.26624000  0.81630000  1.0 -0.5406402964
O  O69  1  0.17414000  0.20781000  0.23187000  1.0 -0.5582221432
O  O70  1  0.83908000  0.27267000  0.22998000  1.0 -0.5406402964
O  O71  1  0.91378000  0.81618000  0.26116000  1.0 -0.5285790304
O  O72  1  0.02016000  0.81749000  0.26418000  1.0 -0.5471451067
O  O73  1  0.03141000  0.15681000  0.23442000  1.0 -0.5285790304
O  O74  1  0.92500000  0.16046000  0.23530000  1.0 -0.5285790304
O  O75  1  0.93967000  0.73700000  0.34555000  1.0 -0.5191436393
O  O76  1  0.04668000  0.73932000  0.34570000  1.0 -0.5285790304
O  O77  1  0.04558000  0.75876000  0.68415000  1.0 -0.5471451067
O  O78  1  0.93898000  0.76624000  0.68370000  1.0 -0.5406402964
O  O79  1  0.82586000  0.70781000  0.26813000  1.0 -0.5582221432
O  O80  1  0.16092000  0.77267000  0.27002000  1.0 -0.5406402964
