# DDEC6 charges by PACMAN v1.1 (https://github.com/mtap-research/PACMAN-charge/)
data_QOYYOU_FSR_pacman
_symmetry_space_group_name_H-M   'P 1'
_cell_length_a   45.57290000
_cell_length_b   45.57290000
_cell_length_c   45.57290000
_cell_angle_alpha   109.47100000
_cell_angle_beta   109.47100000
_cell_angle_gamma   109.47100000
_symmetry_Int_Tables_number   1
_chemical_formula_structural   Zn8H21(C7O4)8
_chemical_formula_sum   'Zn192 H504 C1344 O768'
_cell_volume   72862.09483116
_cell_formula_units_Z   24
loop_
 _symmetry_equiv_pos_site_id
 _symmetry_equiv_pos_as_xyz
  1  'x, y, z'
loop_
 _atom_site_type_symbol
 _atom_site_label
 _atom_site_symmetry_multiplicity
 _atom_site_fract_x
 _atom_site_fract_y
 _atom_site_fract_z
 _atom_site_occupancy
 _atom_site_charge
Zn  Zn1  1  0.25489000  0.09575000  0.59866000  1.0 0.949456408
Zn  Zn2  1  0.99709000  0.65623000  0.90134000  1.0 0.949456408
Zn  Zn3  1  0.50291000  0.40425000  0.65914000  1.0 0.949456408
Zn  Zn4  1  0.24511000  0.84377000  0.84086000  1.0 0.9592339733
Zn  Zn5  1  0.59866000  0.25489000  0.09575000  1.0 0.9592339733
Zn  Zn6  1  0.90134000  0.99709000  0.65623000  1.0 0.9592339733
Zn  Zn7  1  0.65914000  0.50291000  0.40425000  1.0 0.949456408
Zn  Zn8  1  0.84086000  0.24511000  0.84377000  1.0 0.949456408
Zn  Zn9  1  0.09575000  0.59866000  0.25489000  1.0 0.949456408
Zn  Zn10  1  0.65623000  0.90134000  0.99709000  1.0 0.949456408
Zn  Zn11  1  0.40425000  0.65914000  0.50291000  1.0 0.949456408
Zn  Zn12  1  0.84377000  0.84086000  0.24511000  1.0 0.949456408
Zn  Zn13  1  0.74511000  0.90425000  0.40134000  1.0 0.949456408
Zn  Zn14  1  0.00291000  0.34377000  0.09866000  1.0 0.949456408
Zn  Zn15  1  0.49709000  0.59575000  0.34086000  1.0 0.9592339733
Zn  Zn16  1  0.75489000  0.15623000  0.15914000  1.0 0.949456408
Zn  Zn17  1  0.40134000  0.74511000  0.90425000  1.0 0.949456408
Zn  Zn18  1  0.09866000  0.00291000  0.34377000  1.0 0.949456408
Zn  Zn19  1  0.34086000  0.49709000  0.59575000  1.0 0.949456408
Zn  Zn20  1  0.15914000  0.75489000  0.15623000  1.0 0.949456408
Zn  Zn21  1  0.90425000  0.40134000  0.74511000  1.0 0.949456408
Zn  Zn22  1  0.34377000  0.09866000  0.00291000  1.0 0.949456408
Zn  Zn23  1  0.59575000  0.34086000  0.49709000  1.0 0.949456408
Zn  Zn24  1  0.15623000  0.15914000  0.75489000  1.0 0.949456408
Zn  Zn25  1  0.25490000  0.15773000  0.65157000  1.0 0.949456408
Zn  Zn26  1  0.00616000  0.60333000  0.84843000  1.0 0.949456408
Zn  Zn27  1  0.49384000  0.34227000  0.59717000  1.0 0.949456408
Zn  Zn28  1  0.24510000  0.89667000  0.90283000  1.0 0.949456408
Zn  Zn29  1  0.65157000  0.25490000  0.15773000  1.0 0.949456408
Zn  Zn30  1  0.84843000  0.00616000  0.60333000  1.0 0.949456408
Zn  Zn31  1  0.59717000  0.49384000  0.34227000  1.0 0.949456408
Zn  Zn32  1  0.90283000  0.24510000  0.89667000  1.0 0.949456408
Zn  Zn33  1  0.15773000  0.65157000  0.25490000  1.0 0.949456408
Zn  Zn34  1  0.60333000  0.84843000  0.00616000  1.0 0.949456408
Zn  Zn35  1  0.34227000  0.59717000  0.49384000  1.0 0.949456408
Zn  Zn36  1  0.89667000  0.90283000  0.24510000  1.0 0.949456408
Zn  Zn37  1  0.74510000  0.84227000  0.34843000  1.0 0.949456408
Zn  Zn38  1  0.99384000  0.39667000  0.15157000  1.0 0.949456408
Zn  Zn39  1  0.50616000  0.65773000  0.40283000  1.0 0.949456408
Zn  Zn40  1  0.75490000  0.10333000  0.09717000  1.0 0.949456408
Zn  Zn41  1  0.34843000  0.74510000  0.84227000  1.0 0.949456408
Zn  Zn42  1  0.15157000  0.99384000  0.39667000  1.0 0.949456408
Zn  Zn43  1  0.40283000  0.50616000  0.65773000  1.0 0.949456408
Zn  Zn44  1  0.09717000  0.75490000  0.10333000  1.0 0.949456408
Zn  Zn45  1  0.84227000  0.34843000  0.74510000  1.0 0.949456408
Zn  Zn46  1  0.39667000  0.15157000  0.99384000  1.0 0.949456408
Zn  Zn47  1  0.65773000  0.40283000  0.50616000  1.0 0.949456408
Zn  Zn48  1  0.10333000  0.09717000  0.75490000  1.0 0.949456408
Zn  Zn49  1  0.30734000  0.12843000  0.67689000  1.0 0.949456408
Zn  Zn50  1  0.95154000  0.63045000  0.82311000  1.0 0.949456408
Zn  Zn51  1  0.54846000  0.37157000  0.67891000  1.0 0.949456408
Zn  Zn52  1  0.19266000  0.86955000  0.82109000  1.0 0.949456408
Zn  Zn53  1  0.67689000  0.30734000  0.12843000  1.0 0.949456408
Zn  Zn54  1  0.82311000  0.95154000  0.63045000  1.0 0.949456408
Zn  Zn55  1  0.67891000  0.54846000  0.37157000  1.0 0.949456408
Zn  Zn56  1  0.82109000  0.19266000  0.86955000  1.0 0.949456408
Zn  Zn57  1  0.12843000  0.67689000  0.30734000  1.0 0.949456408
Zn  Zn58  1  0.63045000  0.82311000  0.95154000  1.0 0.949456408
Zn  Zn59  1  0.37157000  0.67891000  0.54846000  1.0 0.949456408
Zn  Zn60  1  0.86955000  0.82109000  0.19266000  1.0 0.949456408
Zn  Zn61  1  0.69266000  0.87157000  0.32311000  1.0 0.949456408
Zn  Zn62  1  0.04846000  0.36955000  0.17689000  1.0 0.949456408
Zn  Zn63  1  0.45154000  0.62843000  0.32109000  1.0 0.949456408
Zn  Zn64  1  0.80734000  0.13045000  0.17891000  1.0 0.949456408
Zn  Zn65  1  0.32311000  0.69266000  0.87157000  1.0 0.949456408
Zn  Zn66  1  0.17689000  0.04846000  0.36955000  1.0 0.949456408
Zn  Zn67  1  0.32109000  0.45154000  0.62843000  1.0 0.949456408
Zn  Zn68  1  0.17891000  0.80734000  0.13045000  1.0 0.949456408
Zn  Zn69  1  0.87157000  0.32311000  0.69266000  1.0 0.949456408
Zn  Zn70  1  0.36955000  0.17689000  0.04846000  1.0 0.949456408
Zn  Zn71  1  0.62843000  0.32109000  0.45154000  1.0 0.949456408
Zn  Zn72  1  0.13045000  0.17891000  0.80734000  1.0 0.949456408
Zn  Zn73  1  0.32395000  0.17938000  0.64417000  1.0 0.9592339733
Zn  Zn74  1  0.03521000  0.67978000  0.85583000  1.0 0.9592339733
Zn  Zn75  1  0.46479000  0.32062000  0.64457000  1.0 0.9592339733
Zn  Zn76  1  0.17605000  0.82022000  0.85543000  1.0 0.9592339733
Zn  Zn77  1  0.64417000  0.32395000  0.17938000  1.0 0.9592339733
Zn  Zn78  1  0.85583000  0.03521000  0.67978000  1.0 0.9592339733
Zn  Zn79  1  0.64457000  0.46479000  0.32062000  1.0 0.9592339733
Zn  Zn80  1  0.85543000  0.17605000  0.82022000  1.0 0.9592339733
Zn  Zn81  1  0.17938000  0.64417000  0.32395000  1.0 0.9592339733
Zn  Zn82  1  0.67978000  0.85583000  0.03521000  1.0 0.9592339733
Zn  Zn83  1  0.32062000  0.64457000  0.46479000  1.0 0.9592339733
Zn  Zn84  1  0.82022000  0.85543000  0.17605000  1.0 0.9592339733
Zn  Zn85  1  0.67605000  0.82062000  0.35583000  1.0 0.9592339733
Zn  Zn86  1  0.96479000  0.32022000  0.14417000  1.0 0.9592339733
Zn  Zn87  1  0.53521000  0.67938000  0.35543000  1.0 0.9592339733
Zn  Zn88  1  0.82395000  0.17978000  0.14457000  1.0 0.9592339733
Zn  Zn89  1  0.35583000  0.67605000  0.82062000  1.0 0.9592339733
Zn  Zn90  1  0.14417000  0.96479000  0.32022000  1.0 0.9592339733
Zn  Zn91  1  0.35543000  0.53521000  0.67938000  1.0 0.9592339733
Zn  Zn92  1  0.14457000  0.82395000  0.17978000  1.0 0.9592339733
Zn  Zn93  1  0.82062000  0.35583000  0.67605000  1.0 0.9592339733
Zn  Zn94  1  0.32022000  0.14417000  0.96479000  1.0 0.9592339733
Zn  Zn95  1  0.67938000  0.35543000  0.53521000  1.0 0.9592339733
Zn  Zn96  1  0.17978000  0.14457000  0.82395000  1.0 0.9592339733
Zn  Zn97  1  0.14168000  0.88717000  0.49175000  1.0 0.9868050576
Zn  Zn98  1  0.89542000  0.64993000  0.00825000  1.0 0.9868050576
Zn  Zn99  1  0.60458000  0.61283000  0.75451000  1.0 0.9868050576
Zn  Zn100  1  0.35832000  0.85007000  0.74549000  1.0 0.9868050576
Zn  Zn101  1  0.49175000  0.14168000  0.88717000  1.0 0.9868050576
Zn  Zn102  1  0.00825000  0.89542000  0.64993000  1.0 0.9868050576
Zn  Zn103  1  0.75451000  0.60458000  0.61283000  1.0 0.9868050576
Zn  Zn104  1  0.74549000  0.35832000  0.85007000  1.0 0.9868050576
Zn  Zn105  1  0.88717000  0.49175000  0.14168000  1.0 0.9868050576
Zn  Zn106  1  0.64993000  0.00825000  0.89542000  1.0 0.9868050576
Zn  Zn107  1  0.61283000  0.75451000  0.60458000  1.0 0.9868050576
Zn  Zn108  1  0.85007000  0.74549000  0.35832000  1.0 0.9868050576
Zn  Zn109  1  0.85832000  0.11283000  0.50825000  1.0 0.9868050576
Zn  Zn110  1  0.10458000  0.35007000  0.99175000  1.0 0.9868050576
Zn  Zn111  1  0.39542000  0.38717000  0.24549000  1.0 0.9868050576
Zn  Zn112  1  0.64168000  0.14993000  0.25451000  1.0 0.9868050576
Zn  Zn113  1  0.50825000  0.85832000  0.11283000  1.0 0.9868050576
Zn  Zn114  1  0.99175000  0.10458000  0.35007000  1.0 0.9868050576
Zn  Zn115  1  0.24549000  0.39542000  0.38717000  1.0 0.9868050576
Zn  Zn116  1  0.25451000  0.64168000  0.14993000  1.0 0.9868050576
Zn  Zn117  1  0.11283000  0.50825000  0.85832000  1.0 0.9868050576
Zn  Zn118  1  0.35007000  0.99175000  0.10458000  1.0 0.9868050576
Zn  Zn119  1  0.38717000  0.24549000  0.39542000  1.0 0.9868050576
Zn  Zn120  1  0.14993000  0.25451000  0.64168000  1.0 0.9868050576
Zn  Zn121  1  0.09311000  0.82159000  0.49600000  1.0 0.9592339733
Zn  Zn122  1  0.82559000  0.59711000  0.00400000  1.0 0.9592339733
Zn  Zn123  1  0.67441000  0.67841000  0.77152000  1.0 0.9592339733
Zn  Zn124  1  0.40689000  0.90289000  0.72848000  1.0 0.9592339733
Zn  Zn125  1  0.49600000  0.09311000  0.82159000  1.0 0.9592339733
Zn  Zn126  1  0.00400000  0.82559000  0.59711000  1.0 0.9592339733
Zn  Zn127  1  0.77152000  0.67441000  0.67841000  1.0 0.9592339733
Zn  Zn128  1  0.72848000  0.40689000  0.90289000  1.0 0.9592339733
Zn  Zn129  1  0.82159000  0.49600000  0.09311000  1.0 0.9592339733
Zn  Zn130  1  0.59711000  0.00400000  0.82559000  1.0 0.9592339733
Zn  Zn131  1  0.67841000  0.77152000  0.67441000  1.0 0.9592339733
Zn  Zn132  1  0.90289000  0.72848000  0.40689000  1.0 0.9592339733
Zn  Zn133  1  0.90689000  0.17841000  0.50400000  1.0 0.9592339733
Zn  Zn134  1  0.17441000  0.40289000  0.99600000  1.0 0.9592339733
Zn  Zn135  1  0.32559000  0.32159000  0.22848000  1.0 0.9592339733
Zn  Zn136  1  0.59311000  0.09711000  0.27152000  1.0 0.9592339733
Zn  Zn137  1  0.50400000  0.90689000  0.17841000  1.0 0.9592339733
Zn  Zn138  1  0.99600000  0.17441000  0.40289000  1.0 0.9592339733
Zn  Zn139  1  0.22848000  0.32559000  0.32159000  1.0 0.9592339733
Zn  Zn140  1  0.27152000  0.59311000  0.09711000  1.0 0.9592339733
Zn  Zn141  1  0.17841000  0.50400000  0.90689000  1.0 0.9592339733
Zn  Zn142  1  0.40289000  0.99600000  0.17441000  1.0 0.9592339733
Zn  Zn143  1  0.32159000  0.22848000  0.32559000  1.0 0.9592339733
Zn  Zn144  1  0.09711000  0.27152000  0.59311000  1.0 0.9592339733
Zn  Zn145  1  0.17499000  0.84425000  0.52636000  1.0 0.949456408
Zn  Zn146  1  0.81789000  0.64863000  0.97364000  1.0 0.949456408
Zn  Zn147  1  0.68211000  0.65575000  0.83074000  1.0 0.949456408
Zn  Zn148  1  0.32501000  0.85137000  0.66926000  1.0 0.949456408
Zn  Zn149  1  0.52636000  0.17499000  0.84425000  1.0 0.949456408
Zn  Zn150  1  0.97364000  0.81789000  0.64863000  1.0 0.949456408
Zn  Zn151  1  0.83074000  0.68211000  0.65575000  1.0 0.949456408
Zn  Zn152  1  0.66926000  0.32501000  0.85137000  1.0 0.949456408
Zn  Zn153  1  0.84425000  0.52636000  0.17499000  1.0 0.949456408
Zn  Zn154  1  0.64863000  0.97364000  0.81789000  1.0 0.949456408
Zn  Zn155  1  0.65575000  0.83074000  0.68211000  1.0 0.949456408
Zn  Zn156  1  0.85137000  0.66926000  0.32501000  1.0 0.949456408
Zn  Zn157  1  0.82501000  0.15575000  0.47364000  1.0 0.949456408
Zn  Zn158  1  0.18211000  0.35137000  0.02636000  1.0 0.949456408
Zn  Zn159  1  0.31789000  0.34425000  0.16926000  1.0 0.949456408
Zn  Zn160  1  0.67499000  0.14863000  0.33074000  1.0 0.949456408
Zn  Zn161  1  0.47364000  0.82501000  0.15575000  1.0 0.949456408
Zn  Zn162  1  0.02636000  0.18211000  0.35137000  1.0 0.949456408
Zn  Zn163  1  0.16926000  0.31789000  0.34425000  1.0 0.949456408
Zn  Zn164  1  0.33074000  0.67499000  0.14863000  1.0 0.949456408
Zn  Zn165  1  0.15575000  0.47364000  0.82501000  1.0 0.949456408
Zn  Zn166  1  0.35137000  0.02636000  0.18211000  1.0 0.949456408
Zn  Zn167  1  0.34425000  0.16926000  0.31789000  1.0 0.949456408
Zn  Zn168  1  0.14863000  0.33074000  0.67499000  1.0 0.949456408
Zn  Zn169  1  0.12342000  0.80792000  0.44398000  1.0 0.9364874125
Zn  Zn170  1  0.86394000  0.67944000  0.05602000  1.0 0.9364874125
Zn  Zn171  1  0.63606000  0.69208000  0.81550000  1.0 0.9364874125
Zn  Zn172  1  0.37658000  0.82056000  0.68450000  1.0 0.9364874125
Zn  Zn173  1  0.44398000  0.12342000  0.80792000  1.0 0.9364874125
Zn  Zn174  1  0.05602000  0.86394000  0.67944000  1.0 0.9364874125
Zn  Zn175  1  0.81550000  0.63606000  0.69208000  1.0 0.9364874125
Zn  Zn176  1  0.68450000  0.37658000  0.82056000  1.0 0.9364874125
Zn  Zn177  1  0.80792000  0.44398000  0.12342000  1.0 0.9364874125
Zn  Zn178  1  0.67944000  0.05602000  0.86394000  1.0 0.9364874125
Zn  Zn179  1  0.69208000  0.81550000  0.63606000  1.0 0.9364874125
Zn  Zn180  1  0.82056000  0.68450000  0.37658000  1.0 0.9364874125
Zn  Zn181  1  0.87658000  0.19208000  0.55602000  1.0 0.9364874125
Zn  Zn182  1  0.13606000  0.32056000  0.94398000  1.0 0.9364874125
Zn  Zn183  1  0.36394000  0.30792000  0.18450000  1.0 0.9364874125
Zn  Zn184  1  0.62342000  0.17944000  0.31550000  1.0 0.9364874125
Zn  Zn185  1  0.55602000  0.87658000  0.19208000  1.0 0.9364874125
Zn  Zn186  1  0.94398000  0.13606000  0.32056000  1.0 0.9364874125
Zn  Zn187  1  0.18450000  0.36394000  0.30792000  1.0 0.9364874125
Zn  Zn188  1  0.31550000  0.62342000  0.17944000  1.0 0.9364874125
Zn  Zn189  1  0.19208000  0.55602000  0.87658000  1.0 0.9364874125
Zn  Zn190  1  0.32056000  0.94398000  0.13606000  1.0 0.9364874125
Zn  Zn191  1  0.30792000  0.18450000  0.36394000  1.0 0.9364874125
Zn  Zn192  1  0.17944000  0.31550000  0.62342000  1.0 0.9364874125
H  H1  1  0.18350000  0.11600000  0.68090000  1.0 0.1398491264
H  H2  1  0.93510000  0.50260000  0.81910000  1.0 0.1398491264
H  H3  1  0.56490000  0.38400000  0.56750000  1.0 0.1398491264
H  H4  1  0.31650000  0.99740000  0.93250000  1.0 0.1398491264
H  H5  1  0.68090000  0.18350000  0.11600000  1.0 0.1398491264
H  H6  1  0.81910000  0.93510000  0.50260000  1.0 0.1398491264
H  H7  1  0.56750000  0.56490000  0.38400000  1.0 0.1398491264
H  H8  1  0.93250000  0.31650000  0.99740000  1.0 0.1398491264
H  H9  1  0.11600000  0.68090000  0.18350000  1.0 0.1398491264
H  H10  1  0.50260000  0.81910000  0.93510000  1.0 0.1398491264
H  H11  1  0.38400000  0.56750000  0.56490000  1.0 0.1398491264
H  H12  1  0.99740000  0.93250000  0.31650000  1.0 0.1398491264
H  H13  1  0.81650000  0.88400000  0.31910000  1.0 0.1398491264
H  H14  1  0.06490000  0.49740000  0.18090000  1.0 0.1398491264
H  H15  1  0.43510000  0.61600000  0.43250000  1.0 0.1398491264
H  H16  1  0.68350000  0.00260000  0.06750000  1.0 0.1398491264
H  H17  1  0.31910000  0.81650000  0.88400000  1.0 0.1398491264
H  H18  1  0.18090000  0.06490000  0.49740000  1.0 0.1398491264
H  H19  1  0.43250000  0.43510000  0.61600000  1.0 0.1398491264
H  H20  1  0.06750000  0.68350000  0.00260000  1.0 0.1398491264
H  H21  1  0.88400000  0.31910000  0.81650000  1.0 0.1398491264
H  H22  1  0.49740000  0.18090000  0.06490000  1.0 0.1398491264
H  H23  1  0.61600000  0.43250000  0.43510000  1.0 0.1398491264
H  H24  1  0.00260000  0.06750000  0.68350000  1.0 0.1398491264
H  H25  1  0.11520000  0.02160000  0.66560000  1.0 0.1210242639
H  H26  1  0.85600000  0.44960000  0.83440000  1.0 0.1210242639
H  H27  1  0.64400000  0.47840000  0.59360000  1.0 0.1210242639
H  H28  1  0.38480000  0.05040000  0.90640000  1.0 0.1210242639
H  H29  1  0.66560000  0.11520000  0.02160000  1.0 0.1210242639
H  H30  1  0.83440000  0.85600000  0.44960000  1.0 0.1210242639
H  H31  1  0.59360000  0.64400000  0.47840000  1.0 0.1210242639
H  H32  1  0.90640000  0.38480000  0.05040000  1.0 0.1210242639
H  H33  1  0.02160000  0.66560000  0.11520000  1.0 0.1210242639
H  H34  1  0.44960000  0.83440000  0.85600000  1.0 0.1210242639
H  H35  1  0.47840000  0.59360000  0.64400000  1.0 0.1210242639
H  H36  1  0.05040000  0.90640000  0.38480000  1.0 0.1210242639
H  H37  1  0.88480000  0.97840000  0.33440000  1.0 0.1210242639
H  H38  1  0.14400000  0.55040000  0.16560000  1.0 0.1210242639
H  H39  1  0.35600000  0.52160000  0.40640000  1.0 0.1210242639
H  H40  1  0.61520000  0.94960000  0.09360000  1.0 0.1210242639
H  H41  1  0.33440000  0.88480000  0.97840000  1.0 0.1210242639
H  H42  1  0.16560000  0.14400000  0.55040000  1.0 0.1210242639
H  H43  1  0.40640000  0.35600000  0.52160000  1.0 0.1210242639
H  H44  1  0.09360000  0.61520000  0.94960000  1.0 0.1210242639
H  H45  1  0.97840000  0.33440000  0.88480000  1.0 0.1210242639
H  H46  1  0.55040000  0.16560000  0.14400000  1.0 0.1210242639
H  H47  1  0.52160000  0.40640000  0.35600000  1.0 0.1210242639
H  H48  1  0.94960000  0.09360000  0.61520000  1.0 0.1210242639
H  H49  1  0.17010000  0.02250000  0.61220000  1.0 0.1311467067
H  H50  1  0.91030000  0.55790000  0.88780000  1.0 0.1311467067
H  H51  1  0.58970000  0.47750000  0.64760000  1.0 0.1311467067
H  H52  1  0.32990000  0.94210000  0.85240000  1.0 0.1311467067
H  H53  1  0.61220000  0.17010000  0.02250000  1.0 0.1311467067
H  H54  1  0.88780000  0.91030000  0.55790000  1.0 0.1311467067
H  H55  1  0.64760000  0.58970000  0.47750000  1.0 0.1311467067
H  H56  1  0.85240000  0.32990000  0.94210000  1.0 0.1311467067
H  H57  1  0.02250000  0.61220000  0.17010000  1.0 0.1311467067
H  H58  1  0.55790000  0.88780000  0.91030000  1.0 0.1311467067
H  H59  1  0.47750000  0.64760000  0.58970000  1.0 0.1311467067
H  H60  1  0.94210000  0.85240000  0.32990000  1.0 0.1311467067
H  H61  1  0.82990000  0.97750000  0.38780000  1.0 0.1311467067
H  H62  1  0.08970000  0.44210000  0.11220000  1.0 0.1311467067
H  H63  1  0.41030000  0.52250000  0.35240000  1.0 0.1311467067
H  H64  1  0.67010000  0.05790000  0.14760000  1.0 0.1311467067
H  H65  1  0.38780000  0.82990000  0.97750000  1.0 0.1311467067
H  H66  1  0.11220000  0.08970000  0.44210000  1.0 0.1311467067
H  H67  1  0.35240000  0.41030000  0.52250000  1.0 0.1311467067
H  H68  1  0.14760000  0.67010000  0.05790000  1.0 0.1311467067
H  H69  1  0.97750000  0.38780000  0.82990000  1.0 0.1311467067
H  H70  1  0.44210000  0.11220000  0.08970000  1.0 0.1311467067
H  H71  1  0.52250000  0.35240000  0.41030000  1.0 0.1311467067
H  H72  1  0.05790000  0.14760000  0.67010000  1.0 0.1311467067
H  H73  1  0.09150000  0.96820000  0.64090000  1.0 0.1210242639
H  H74  1  0.82730000  0.45060000  0.85910000  1.0 0.1210242639
H  H75  1  0.67270000  0.53180000  0.62330000  1.0 0.1210242639
H  H76  1  0.40850000  0.04940000  0.87670000  1.0 0.1210242639
H  H77  1  0.64090000  0.09150000  0.96820000  1.0 0.1210242639
H  H78  1  0.85910000  0.82730000  0.45060000  1.0 0.1210242639
H  H79  1  0.62330000  0.67270000  0.53180000  1.0 0.1210242639
H  H80  1  0.87670000  0.40850000  0.04940000  1.0 0.1210242639
H  H81  1  0.96820000  0.64090000  0.09150000  1.0 0.1210242639
H  H82  1  0.45060000  0.85910000  0.82730000  1.0 0.1210242639
H  H83  1  0.53180000  0.62330000  0.67270000  1.0 0.1210242639
H  H84  1  0.04940000  0.87670000  0.40850000  1.0 0.1210242639
H  H85  1  0.90850000  0.03180000  0.35910000  1.0 0.1210242639
H  H86  1  0.17270000  0.54940000  0.14090000  1.0 0.1210242639
H  H87  1  0.32730000  0.46820000  0.37670000  1.0 0.1210242639
H  H88  1  0.59150000  0.95060000  0.12330000  1.0 0.1210242639
H  H89  1  0.35910000  0.90850000  0.03180000  1.0 0.1210242639
H  H90  1  0.14090000  0.17270000  0.54940000  1.0 0.1210242639
H  H91  1  0.37670000  0.32730000  0.46820000  1.0 0.1210242639
H  H92  1  0.12330000  0.59150000  0.95060000  1.0 0.1210242639
H  H93  1  0.03180000  0.35910000  0.90850000  1.0 0.1210242639
H  H94  1  0.54940000  0.14090000  0.17270000  1.0 0.1210242639
H  H95  1  0.46820000  0.37670000  0.32730000  1.0 0.1210242639
H  H96  1  0.95060000  0.12330000  0.59150000  1.0 0.1210242639
H  H97  1  0.14230000  0.96770000  0.58360000  1.0 0.1210242639
H  H98  1  0.88410000  0.55870000  0.91640000  1.0 0.1210242639
H  H99  1  0.61590000  0.53230000  0.67460000  1.0 0.1210242639
H  H100  1  0.35770000  0.94130000  0.82540000  1.0 0.1210242639
H  H101  1  0.58360000  0.14230000  0.96770000  1.0 0.1210242639
H  H102  1  0.91640000  0.88410000  0.55870000  1.0 0.1210242639
H  H103  1  0.67460000  0.61590000  0.53230000  1.0 0.1210242639
H  H104  1  0.82540000  0.35770000  0.94130000  1.0 0.1210242639
H  H105  1  0.96770000  0.58360000  0.14230000  1.0 0.1210242639
H  H106  1  0.55870000  0.91640000  0.88410000  1.0 0.1210242639
H  H107  1  0.53230000  0.67460000  0.61590000  1.0 0.1210242639
H  H108  1  0.94130000  0.82540000  0.35770000  1.0 0.1210242639
H  H109  1  0.85770000  0.03230000  0.41640000  1.0 0.1210242639
H  H110  1  0.11590000  0.44130000  0.08360000  1.0 0.1210242639
H  H111  1  0.38410000  0.46770000  0.32540000  1.0 0.1210242639
H  H112  1  0.64230000  0.05870000  0.17460000  1.0 0.1210242639
H  H113  1  0.41640000  0.85770000  0.03230000  1.0 0.1210242639
H  H114  1  0.08360000  0.11590000  0.44130000  1.0 0.1210242639
H  H115  1  0.32540000  0.38410000  0.46770000  1.0 0.1210242639
H  H116  1  0.17460000  0.64230000  0.05870000  1.0 0.1210242639
H  H117  1  0.03230000  0.41640000  0.85770000  1.0 0.1210242639
H  H118  1  0.44130000  0.08360000  0.11590000  1.0 0.1210242639
H  H119  1  0.46770000  0.32540000  0.38410000  1.0 0.1210242639
H  H120  1  0.05870000  0.17460000  0.64230000  1.0 0.1210242639
H  H121  1  0.07660000  0.87500000  0.57180000  1.0 0.1210242639
H  H122  1  0.80320000  0.50480000  0.92820000  1.0 0.1210242639
H  H123  1  0.69680000  0.62500000  0.70160000  1.0 0.1210242639
H  H124  1  0.42340000  0.99520000  0.79840000  1.0 0.1210242639
H  H125  1  0.57180000  0.07660000  0.87500000  1.0 0.1210242639
H  H126  1  0.92820000  0.80320000  0.50480000  1.0 0.1210242639
H  H127  1  0.70160000  0.69680000  0.62500000  1.0 0.1210242639
H  H128  1  0.79840000  0.42340000  0.99520000  1.0 0.1210242639
H  H129  1  0.87500000  0.57180000  0.07660000  1.0 0.1210242639
H  H130  1  0.50480000  0.92820000  0.80320000  1.0 0.1210242639
H  H131  1  0.62500000  0.70160000  0.69680000  1.0 0.1210242639
H  H132  1  0.99520000  0.79840000  0.42340000  1.0 0.1210242639
H  H133  1  0.92340000  0.12500000  0.42820000  1.0 0.1210242639
H  H134  1  0.19680000  0.49520000  0.07180000  1.0 0.1210242639
H  H135  1  0.30320000  0.37500000  0.29840000  1.0 0.1210242639
H  H136  1  0.57660000  0.00480000  0.20160000  1.0 0.1210242639
H  H137  1  0.42820000  0.92340000  0.12500000  1.0 0.1210242639
H  H138  1  0.07180000  0.19680000  0.49520000  1.0 0.1210242639
H  H139  1  0.29840000  0.30320000  0.37500000  1.0 0.1210242639
H  H140  1  0.20160000  0.57660000  0.00480000  1.0 0.1210242639
H  H141  1  0.12500000  0.42820000  0.92340000  1.0 0.1210242639
H  H142  1  0.49520000  0.07180000  0.19680000  1.0 0.1210242639
H  H143  1  0.37500000  0.29840000  0.30320000  1.0 0.1210242639
H  H144  1  0.00480000  0.20160000  0.57660000  1.0 0.1210242639
H  H145  1  0.23260000  0.98660000  0.56880000  1.0 0.1311467067
H  H146  1  0.91780000  0.66380000  0.93120000  1.0 0.1311467067
H  H147  1  0.58220000  0.51340000  0.74600000  1.0 0.1311467067
H  H148  1  0.26740000  0.83620000  0.75400000  1.0 0.1311467067
H  H149  1  0.56880000  0.23260000  0.98660000  1.0 0.1311467067
H  H150  1  0.93120000  0.91780000  0.66380000  1.0 0.1311467067
H  H151  1  0.74600000  0.58220000  0.51340000  1.0 0.1311467067
H  H152  1  0.75400000  0.26740000  0.83620000  1.0 0.1311467067
H  H153  1  0.98660000  0.56880000  0.23260000  1.0 0.1311467067
H  H154  1  0.66380000  0.93120000  0.91780000  1.0 0.1311467067
H  H155  1  0.51340000  0.74600000  0.58220000  1.0 0.1311467067
H  H156  1  0.83620000  0.75400000  0.26740000  1.0 0.1311467067
H  H157  1  0.76740000  0.01340000  0.43120000  1.0 0.1311467067
H  H158  1  0.08220000  0.33620000  0.06880000  1.0 0.1311467067
H  H159  1  0.41780000  0.48660000  0.25400000  1.0 0.1311467067
H  H160  1  0.73260000  0.16380000  0.24600000  1.0 0.1311467067
H  H161  1  0.43120000  0.76740000  0.01340000  1.0 0.1311467067
H  H162  1  0.06880000  0.08220000  0.33620000  1.0 0.1311467067
H  H163  1  0.25400000  0.41780000  0.48660000  1.0 0.1311467067
H  H164  1  0.24600000  0.73260000  0.16380000  1.0 0.1311467067
H  H165  1  0.01340000  0.43120000  0.76740000  1.0 0.1311467067
H  H166  1  0.33620000  0.06880000  0.08220000  1.0 0.1311467067
H  H167  1  0.48660000  0.25400000  0.41780000  1.0 0.1311467067
H  H168  1  0.16380000  0.24600000  0.73260000  1.0 0.1311467067
H  H169  1  0.27770000  0.93390000  0.60540000  1.0 0.1210242639
H  H170  1  0.82850000  0.67230000  0.89460000  1.0 0.1210242639
H  H171  1  0.67150000  0.56610000  0.84380000  1.0 0.1210242639
H  H172  1  0.22230000  0.82770000  0.65620000  1.0 0.1210242639
H  H173  1  0.60540000  0.27770000  0.93390000  1.0 0.1210242639
H  H174  1  0.89460000  0.82850000  0.67230000  1.0 0.1210242639
H  H175  1  0.84380000  0.67150000  0.56610000  1.0 0.1210242639
H  H176  1  0.65620000  0.22230000  0.82770000  1.0 0.1210242639
H  H177  1  0.93390000  0.60540000  0.27770000  1.0 0.1210242639
H  H178  1  0.67230000  0.89460000  0.82850000  1.0 0.1210242639
H  H179  1  0.56610000  0.84380000  0.67150000  1.0 0.1210242639
H  H180  1  0.82770000  0.65620000  0.22230000  1.0 0.1210242639
H  H181  1  0.72230000  0.06610000  0.39460000  1.0 0.1210242639
H  H182  1  0.17150000  0.32770000  0.10540000  1.0 0.1210242639
H  H183  1  0.32850000  0.43390000  0.15620000  1.0 0.1210242639
H  H184  1  0.77770000  0.17230000  0.34380000  1.0 0.1210242639
H  H185  1  0.39460000  0.72230000  0.06610000  1.0 0.1210242639
H  H186  1  0.10540000  0.17150000  0.32770000  1.0 0.1210242639
H  H187  1  0.15620000  0.32850000  0.43390000  1.0 0.1210242639
H  H188  1  0.34380000  0.77770000  0.17230000  1.0 0.1210242639
H  H189  1  0.06610000  0.39460000  0.72230000  1.0 0.1210242639
H  H190  1  0.32770000  0.10540000  0.17150000  1.0 0.1210242639
H  H191  1  0.43390000  0.15620000  0.32850000  1.0 0.1210242639
H  H192  1  0.17230000  0.34380000  0.77770000  1.0 0.1210242639
H  H193  1  0.32760000  0.04200000  0.66200000  1.0 0.1210242639
H  H194  1  0.88000000  0.66560000  0.83800000  1.0 0.1210242639
H  H195  1  0.62000000  0.45800000  0.78560000  1.0 0.1210242639
H  H196  1  0.17240000  0.83440000  0.71440000  1.0 0.1210242639
H  H197  1  0.66200000  0.32760000  0.04200000  1.0 0.1210242639
H  H198  1  0.83800000  0.88000000  0.66560000  1.0 0.1210242639
H  H199  1  0.78560000  0.62000000  0.45800000  1.0 0.1210242639
H  H200  1  0.71440000  0.17240000  0.83440000  1.0 0.1210242639
H  H201  1  0.04200000  0.66200000  0.32760000  1.0 0.1210242639
H  H202  1  0.66560000  0.83800000  0.88000000  1.0 0.1210242639
H  H203  1  0.45800000  0.78560000  0.62000000  1.0 0.1210242639
H  H204  1  0.83440000  0.71440000  0.17240000  1.0 0.1210242639
H  H205  1  0.67240000  0.95800000  0.33800000  1.0 0.1210242639
H  H206  1  0.12000000  0.33440000  0.16200000  1.0 0.1210242639
H  H207  1  0.38000000  0.54200000  0.21440000  1.0 0.1210242639
H  H208  1  0.82760000  0.16560000  0.28560000  1.0 0.1210242639
H  H209  1  0.33800000  0.67240000  0.95800000  1.0 0.1210242639
H  H210  1  0.16200000  0.12000000  0.33440000  1.0 0.1210242639
H  H211  1  0.21440000  0.38000000  0.54200000  1.0 0.1210242639
H  H212  1  0.28560000  0.82760000  0.16560000  1.0 0.1210242639
H  H213  1  0.95800000  0.33800000  0.67240000  1.0 0.1210242639
H  H214  1  0.33440000  0.16200000  0.12000000  1.0 0.1210242639
H  H215  1  0.54200000  0.21440000  0.38000000  1.0 0.1210242639
H  H216  1  0.16560000  0.28560000  0.82760000  1.0 0.1210242639
H  H217  1  0.31810000  0.93440000  0.64070000  1.0 0.1210242639
H  H218  1  0.79370000  0.67740000  0.85930000  1.0 0.1210242639
H  H219  1  0.70630000  0.56560000  0.88370000  1.0 0.1210242639
H  H220  1  0.18190000  0.82260000  0.61630000  1.0 0.1210242639
H  H221  1  0.64070000  0.31810000  0.93440000  1.0 0.1210242639
H  H222  1  0.85930000  0.79370000  0.67740000  1.0 0.1210242639
H  H223  1  0.88370000  0.70630000  0.56560000  1.0 0.1210242639
H  H224  1  0.61630000  0.18190000  0.82260000  1.0 0.1210242639
H  H225  1  0.93440000  0.64070000  0.31810000  1.0 0.1210242639
H  H226  1  0.67740000  0.85930000  0.79370000  1.0 0.1210242639
H  H227  1  0.56560000  0.88370000  0.70630000  1.0 0.1210242639
H  H228  1  0.82260000  0.61630000  0.18190000  1.0 0.1210242639
H  H229  1  0.68190000  0.06560000  0.35930000  1.0 0.1210242639
H  H230  1  0.20630000  0.32260000  0.14070000  1.0 0.1210242639
H  H231  1  0.29370000  0.43440000  0.11630000  1.0 0.1210242639
H  H232  1  0.81810000  0.17740000  0.38370000  1.0 0.1210242639
H  H233  1  0.35930000  0.68190000  0.06560000  1.0 0.1210242639
H  H234  1  0.14070000  0.20630000  0.32260000  1.0 0.1210242639
H  H235  1  0.11630000  0.29370000  0.43440000  1.0 0.1210242639
H  H236  1  0.38370000  0.81810000  0.17740000  1.0 0.1210242639
H  H237  1  0.06560000  0.35930000  0.68190000  1.0 0.1210242639
H  H238  1  0.32260000  0.14070000  0.20630000  1.0 0.1210242639
H  H239  1  0.43440000  0.11630000  0.29370000  1.0 0.1210242639
H  H240  1  0.17740000  0.38370000  0.81810000  1.0 0.1210242639
H  H241  1  0.41510000  0.98980000  0.73130000  1.0 0.1210242639
H  H242  1  0.75850000  0.68380000  0.76870000  1.0 0.1210242639
H  H243  1  0.74150000  0.51020000  0.92530000  1.0 0.1210242639
H  H244  1  0.08490000  0.81620000  0.57470000  1.0 0.1210242639
H  H245  1  0.73130000  0.41510000  0.98980000  1.0 0.1210242639
H  H246  1  0.76870000  0.75850000  0.68380000  1.0 0.1210242639
H  H247  1  0.92530000  0.74150000  0.51020000  1.0 0.1210242639
H  H248  1  0.57470000  0.08490000  0.81620000  1.0 0.1210242639
H  H249  1  0.98980000  0.73130000  0.41510000  1.0 0.1210242639
H  H250  1  0.68380000  0.76870000  0.75850000  1.0 0.1210242639
H  H251  1  0.51020000  0.92530000  0.74150000  1.0 0.1210242639
H  H252  1  0.81620000  0.57470000  0.08490000  1.0 0.1210242639
H  H253  1  0.58490000  0.01020000  0.26870000  1.0 0.1210242639
H  H254  1  0.24150000  0.31620000  0.23130000  1.0 0.1210242639
H  H255  1  0.25850000  0.48980000  0.07470000  1.0 0.1210242639
H  H256  1  0.91510000  0.18380000  0.42530000  1.0 0.1210242639
H  H257  1  0.26870000  0.58490000  0.01020000  1.0 0.1210242639
H  H258  1  0.23130000  0.24150000  0.31620000  1.0 0.1210242639
H  H259  1  0.07470000  0.25850000  0.48980000  1.0 0.1210242639
H  H260  1  0.42530000  0.91510000  0.18380000  1.0 0.1210242639
H  H261  1  0.01020000  0.26870000  0.58490000  1.0 0.1210242639
H  H262  1  0.31620000  0.23130000  0.24150000  1.0 0.1210242639
H  H263  1  0.48980000  0.07470000  0.25850000  1.0 0.1210242639
H  H264  1  0.18380000  0.42530000  0.91510000  1.0 0.1210242639
H  H265  1  0.36650000  0.04190000  0.70040000  1.0 0.1210242639
H  H266  1  0.84150000  0.66610000  0.79960000  1.0 0.1210242639
H  H267  1  0.65850000  0.45810000  0.82460000  1.0 0.1210242639
H  H268  1  0.13350000  0.83390000  0.67540000  1.0 0.1210242639
H  H269  1  0.70040000  0.36650000  0.04190000  1.0 0.1210242639
H  H270  1  0.79960000  0.84150000  0.66610000  1.0 0.1210242639
H  H271  1  0.82460000  0.65850000  0.45810000  1.0 0.1210242639
H  H272  1  0.67540000  0.13350000  0.83390000  1.0 0.1210242639
H  H273  1  0.04190000  0.70040000  0.36650000  1.0 0.1210242639
H  H274  1  0.66610000  0.79960000  0.84150000  1.0 0.1210242639
H  H275  1  0.45810000  0.82460000  0.65850000  1.0 0.1210242639
H  H276  1  0.83390000  0.67540000  0.13350000  1.0 0.1210242639
H  H277  1  0.63350000  0.95810000  0.29960000  1.0 0.1210242639
H  H278  1  0.15850000  0.33390000  0.20040000  1.0 0.1210242639
H  H279  1  0.34150000  0.54190000  0.17540000  1.0 0.1210242639
H  H280  1  0.86650000  0.16610000  0.32460000  1.0 0.1210242639
H  H281  1  0.29960000  0.63350000  0.95810000  1.0 0.1210242639
H  H282  1  0.20040000  0.15850000  0.33390000  1.0 0.1210242639
H  H283  1  0.17540000  0.34150000  0.54190000  1.0 0.1210242639
H  H284  1  0.32460000  0.86650000  0.16610000  1.0 0.1210242639
H  H285  1  0.95810000  0.29960000  0.63350000  1.0 0.1210242639
H  H286  1  0.33390000  0.20040000  0.15850000  1.0 0.1210242639
H  H287  1  0.54190000  0.17540000  0.34150000  1.0 0.1210242639
H  H288  1  0.16610000  0.32460000  0.86650000  1.0 0.1210242639
H  H289  1  0.25130000  0.08000000  0.50490000  1.0 0.1311467067
H  H290  1  0.07510000  0.74640000  0.99510000  1.0 0.1311467067
H  H291  1  0.42490000  0.42000000  0.67130000  1.0 0.1311467067
H  H292  1  0.24870000  0.75360000  0.82870000  1.0 0.1311467067
H  H293  1  0.50490000  0.25130000  0.08000000  1.0 0.1311467067
H  H294  1  0.99510000  0.07510000  0.74640000  1.0 0.1311467067
H  H295  1  0.67130000  0.42490000  0.42000000  1.0 0.1311467067
H  H296  1  0.82870000  0.24870000  0.75360000  1.0 0.1311467067
H  H297  1  0.08000000  0.50490000  0.25130000  1.0 0.1311467067
H  H298  1  0.74640000  0.99510000  0.07510000  1.0 0.1311467067
H  H299  1  0.42000000  0.67130000  0.42490000  1.0 0.1311467067
H  H300  1  0.75360000  0.82870000  0.24870000  1.0 0.1311467067
H  H301  1  0.74870000  0.92000000  0.49510000  1.0 0.1311467067
H  H302  1  0.92490000  0.25360000  0.00490000  1.0 0.1311467067
H  H303  1  0.57510000  0.58000000  0.32870000  1.0 0.1311467067
H  H304  1  0.75130000  0.24640000  0.17130000  1.0 0.1311467067
H  H305  1  0.49510000  0.74870000  0.92000000  1.0 0.1311467067
H  H306  1  0.00490000  0.92490000  0.25360000  1.0 0.1311467067
H  H307  1  0.32870000  0.57510000  0.58000000  1.0 0.1311467067
H  H308  1  0.17130000  0.75130000  0.24640000  1.0 0.1311467067
H  H309  1  0.92000000  0.49510000  0.74870000  1.0 0.1311467067
H  H310  1  0.25360000  0.00490000  0.92490000  1.0 0.1311467067
H  H311  1  0.58000000  0.32870000  0.57510000  1.0 0.1311467067
H  H312  1  0.24640000  0.17130000  0.75130000  1.0 0.1311467067
H  H313  1  0.28510000  0.12500000  0.45070000  1.0 0.1210242639
H  H314  1  0.17430000  0.83440000  0.04930000  1.0 0.1210242639
H  H315  1  0.32570000  0.37500000  0.66010000  1.0 0.1210242639
H  H316  1  0.21490000  0.66560000  0.83990000  1.0 0.1210242639
H  H317  1  0.45070000  0.28510000  0.12500000  1.0 0.1210242639
H  H318  1  0.04930000  0.17430000  0.83440000  1.0 0.1210242639
H  H319  1  0.66010000  0.32570000  0.37500000  1.0 0.1210242639
H  H320  1  0.83990000  0.21490000  0.66560000  1.0 0.1210242639
H  H321  1  0.12500000  0.45070000  0.28510000  1.0 0.1210242639
H  H322  1  0.83440000  0.04930000  0.17430000  1.0 0.1210242639
H  H323  1  0.37500000  0.66010000  0.32570000  1.0 0.1210242639
H  H324  1  0.66560000  0.83990000  0.21490000  1.0 0.1210242639
H  H325  1  0.71490000  0.87500000  0.54930000  1.0 0.1210242639
H  H326  1  0.82570000  0.16560000  0.95070000  1.0 0.1210242639
H  H327  1  0.67430000  0.62500000  0.33990000  1.0 0.1210242639
H  H328  1  0.78510000  0.33440000  0.16010000  1.0 0.1210242639
H  H329  1  0.54930000  0.71490000  0.87500000  1.0 0.1210242639
H  H330  1  0.95070000  0.82570000  0.16560000  1.0 0.1210242639
H  H331  1  0.33990000  0.67430000  0.62500000  1.0 0.1210242639
H  H332  1  0.16010000  0.78510000  0.33440000  1.0 0.1210242639
H  H333  1  0.87500000  0.54930000  0.71490000  1.0 0.1210242639
H  H334  1  0.16560000  0.95070000  0.82570000  1.0 0.1210242639
H  H335  1  0.62500000  0.33990000  0.67430000  1.0 0.1210242639
H  H336  1  0.33440000  0.16010000  0.78510000  1.0 0.1210242639
H  H337  1  0.34440000  0.17540000  0.55800000  1.0 0.1210242639
H  H338  1  0.11740000  0.78640000  0.94200000  1.0 0.1210242639
H  H339  1  0.38260000  0.32460000  0.66900000  1.0 0.1210242639
H  H340  1  0.15560000  0.71360000  0.83100000  1.0 0.1210242639
H  H341  1  0.55800000  0.34440000  0.17540000  1.0 0.1210242639
H  H342  1  0.94200000  0.11740000  0.78640000  1.0 0.1210242639
H  H343  1  0.66900000  0.38260000  0.32460000  1.0 0.1210242639
H  H344  1  0.83100000  0.15560000  0.71360000  1.0 0.1210242639
H  H345  1  0.17540000  0.55800000  0.34440000  1.0 0.1210242639
H  H346  1  0.78640000  0.94200000  0.11740000  1.0 0.1210242639
H  H347  1  0.32460000  0.66900000  0.38260000  1.0 0.1210242639
H  H348  1  0.71360000  0.83100000  0.15560000  1.0 0.1210242639
H  H349  1  0.65560000  0.82460000  0.44200000  1.0 0.1210242639
H  H350  1  0.88260000  0.21360000  0.05800000  1.0 0.1210242639
H  H351  1  0.61740000  0.67540000  0.33100000  1.0 0.1210242639
H  H352  1  0.84440000  0.28640000  0.16900000  1.0 0.1210242639
H  H353  1  0.44200000  0.65560000  0.82460000  1.0 0.1210242639
H  H354  1  0.05800000  0.88260000  0.21360000  1.0 0.1210242639
H  H355  1  0.33100000  0.61740000  0.67540000  1.0 0.1210242639
H  H356  1  0.16900000  0.84440000  0.28640000  1.0 0.1210242639
H  H357  1  0.82460000  0.44200000  0.65560000  1.0 0.1210242639
H  H358  1  0.21360000  0.05800000  0.88260000  1.0 0.1210242639
H  H359  1  0.67540000  0.33100000  0.61740000  1.0 0.1210242639
H  H360  1  0.28640000  0.16900000  0.84440000  1.0 0.1210242639
H  H361  1  0.38290000  0.21410000  0.55700000  1.0 0.1210242639
H  H362  1  0.15710000  0.82590000  0.94300000  1.0 0.1210242639
H  H363  1  0.34290000  0.28590000  0.66880000  1.0 0.1210242639
H  H364  1  0.11710000  0.67410000  0.83120000  1.0 0.1210242639
H  H365  1  0.55700000  0.38290000  0.21410000  1.0 0.1210242639
H  H366  1  0.94300000  0.15710000  0.82590000  1.0 0.1210242639
H  H367  1  0.66880000  0.34290000  0.28590000  1.0 0.1210242639
H  H368  1  0.83120000  0.11710000  0.67410000  1.0 0.1210242639
H  H369  1  0.21410000  0.55700000  0.38290000  1.0 0.1210242639
H  H370  1  0.82590000  0.94300000  0.15710000  1.0 0.1210242639
H  H371  1  0.28590000  0.66880000  0.34290000  1.0 0.1210242639
H  H372  1  0.67410000  0.83120000  0.11710000  1.0 0.1210242639
H  H373  1  0.61710000  0.78590000  0.44300000  1.0 0.1210242639
H  H374  1  0.84290000  0.17410000  0.05700000  1.0 0.1210242639
H  H375  1  0.65710000  0.71410000  0.33120000  1.0 0.1210242639
H  H376  1  0.88290000  0.32590000  0.16880000  1.0 0.1210242639
H  H377  1  0.44300000  0.61710000  0.78590000  1.0 0.1210242639
H  H378  1  0.05700000  0.84290000  0.17410000  1.0 0.1210242639
H  H379  1  0.33120000  0.65710000  0.71410000  1.0 0.1210242639
H  H380  1  0.16880000  0.88290000  0.32590000  1.0 0.1210242639
H  H381  1  0.78590000  0.44300000  0.61710000  1.0 0.1210242639
H  H382  1  0.17410000  0.05700000  0.84290000  1.0 0.1210242639
H  H383  1  0.71410000  0.33120000  0.65710000  1.0 0.1210242639
H  H384  1  0.32590000  0.16880000  0.88290000  1.0 0.1210242639
H  H385  1  0.41540000  0.25520000  0.50020000  1.0 0.1311467067
H  H386  1  0.25500000  0.91520000  0.99980000  1.0 0.1311467067
H  H387  1  0.24500000  0.24480000  0.66020000  1.0 0.1311467067
H  H388  1  0.08460000  0.58480000  0.83980000  1.0 0.1311467067
H  H389  1  0.50020000  0.41540000  0.25520000  1.0 0.1311467067
H  H390  1  0.99980000  0.25500000  0.91520000  1.0 0.1311467067
H  H391  1  0.66020000  0.24500000  0.24480000  1.0 0.1311467067
H  H392  1  0.83980000  0.08460000  0.58480000  1.0 0.1311467067
H  H393  1  0.25520000  0.50020000  0.41540000  1.0 0.1311467067
H  H394  1  0.91520000  0.99980000  0.25500000  1.0 0.1311467067
H  H395  1  0.24480000  0.66020000  0.24500000  1.0 0.1311467067
H  H396  1  0.58480000  0.83980000  0.08460000  1.0 0.1311467067
H  H397  1  0.58460000  0.74480000  0.49980000  1.0 0.1311467067
H  H398  1  0.74500000  0.08480000  0.00020000  1.0 0.1311467067
H  H399  1  0.75500000  0.75520000  0.33980000  1.0 0.1311467067
H  H400  1  0.91540000  0.41520000  0.16020000  1.0 0.1311467067
H  H401  1  0.49980000  0.58460000  0.74480000  1.0 0.1311467067
H  H402  1  0.00020000  0.74500000  0.08480000  1.0 0.1311467067
H  H403  1  0.33980000  0.75500000  0.75520000  1.0 0.1311467067
H  H404  1  0.16020000  0.91540000  0.41520000  1.0 0.1311467067
H  H405  1  0.74480000  0.49980000  0.58460000  1.0 0.1311467067
H  H406  1  0.08480000  0.00020000  0.74500000  1.0 0.1311467067
H  H407  1  0.75520000  0.33980000  0.75500000  1.0 0.1311467067
H  H408  1  0.41520000  0.16020000  0.91540000  1.0 0.1311467067
H  H409  1  0.31910000  0.16400000  0.44970000  1.0 0.1210242639
H  H410  1  0.21430000  0.86940000  0.05030000  1.0 0.1210242639
H  H411  1  0.28570000  0.33600000  0.65510000  1.0 0.1210242639
H  H412  1  0.18090000  0.63060000  0.84490000  1.0 0.1210242639
H  H413  1  0.44970000  0.31910000  0.16400000  1.0 0.1210242639
H  H414  1  0.05030000  0.21430000  0.86940000  1.0 0.1210242639
H  H415  1  0.65510000  0.28570000  0.33600000  1.0 0.1210242639
H  H416  1  0.84490000  0.18090000  0.63060000  1.0 0.1210242639
H  H417  1  0.16400000  0.44970000  0.31910000  1.0 0.1210242639
H  H418  1  0.86940000  0.05030000  0.21430000  1.0 0.1210242639
H  H419  1  0.33600000  0.65510000  0.28570000  1.0 0.1210242639
H  H420  1  0.63060000  0.84490000  0.18090000  1.0 0.1210242639
H  H421  1  0.68090000  0.83600000  0.55030000  1.0 0.1210242639
H  H422  1  0.78570000  0.13060000  0.94970000  1.0 0.1210242639
H  H423  1  0.71430000  0.66400000  0.34490000  1.0 0.1210242639
H  H424  1  0.81910000  0.36940000  0.15510000  1.0 0.1210242639
H  H425  1  0.55030000  0.68090000  0.83600000  1.0 0.1210242639
H  H426  1  0.94970000  0.78570000  0.13060000  1.0 0.1210242639
H  H427  1  0.34490000  0.71430000  0.66400000  1.0 0.1210242639
H  H428  1  0.15510000  0.81910000  0.36940000  1.0 0.1210242639
H  H429  1  0.83600000  0.55030000  0.68090000  1.0 0.1210242639
H  H430  1  0.13060000  0.94970000  0.78570000  1.0 0.1210242639
H  H431  1  0.66400000  0.34490000  0.71430000  1.0 0.1210242639
H  H432  1  0.36940000  0.15510000  0.81910000  1.0 0.1210242639
H  H433  1  0.16170000  0.74220000  0.41070000  1.0 0.1398491264
H  H434  1  0.83150000  0.75100000  0.08930000  1.0 0.1398491264
H  H435  1  0.66850000  0.75780000  0.91950000  1.0 0.1398491264
H  H436  1  0.33830000  0.74900000  0.58050000  1.0 0.1398491264
H  H437  1  0.41070000  0.16170000  0.74220000  1.0 0.1398491264
H  H438  1  0.08930000  0.83150000  0.75100000  1.0 0.1398491264
H  H439  1  0.91950000  0.66850000  0.75780000  1.0 0.1398491264
H  H440  1  0.58050000  0.33830000  0.74900000  1.0 0.1398491264
H  H441  1  0.74220000  0.41070000  0.16170000  1.0 0.1398491264
H  H442  1  0.75100000  0.08930000  0.83150000  1.0 0.1398491264
H  H443  1  0.75780000  0.91950000  0.66850000  1.0 0.1398491264
H  H444  1  0.74900000  0.58050000  0.33830000  1.0 0.1398491264
H  H445  1  0.83830000  0.25780000  0.58930000  1.0 0.1398491264
H  H446  1  0.16850000  0.24900000  0.91070000  1.0 0.1398491264
H  H447  1  0.33150000  0.24220000  0.08050000  1.0 0.1398491264
H  H448  1  0.66170000  0.25100000  0.41950000  1.0 0.1398491264
H  H449  1  0.58930000  0.83830000  0.25780000  1.0 0.1398491264
H  H450  1  0.91070000  0.16850000  0.24900000  1.0 0.1398491264
H  H451  1  0.08050000  0.33150000  0.24220000  1.0 0.1398491264
H  H452  1  0.41950000  0.66170000  0.25100000  1.0 0.1398491264
H  H453  1  0.25780000  0.58930000  0.83830000  1.0 0.1398491264
H  H454  1  0.24900000  0.91070000  0.16850000  1.0 0.1398491264
H  H455  1  0.24220000  0.08050000  0.33150000  1.0 0.1398491264
H  H456  1  0.25100000  0.41950000  0.66170000  1.0 0.1398491264
H  H457  1  0.23270000  0.70910000  0.43900000  1.0 0.1210242639
H  H458  1  0.77010000  0.79370000  0.06100000  1.0 0.1210242639
H  H459  1  0.72990000  0.79090000  0.02360000  1.0 0.1210242639
H  H460  1  0.26730000  0.70630000  0.47640000  1.0 0.1210242639
H  H461  1  0.43900000  0.23270000  0.70910000  1.0 0.1210242639
H  H462  1  0.06100000  0.77010000  0.79370000  1.0 0.1210242639
H  H463  1  0.02360000  0.72990000  0.79090000  1.0 0.1210242639
H  H464  1  0.47640000  0.26730000  0.70630000  1.0 0.1210242639
H  H465  1  0.70910000  0.43900000  0.23270000  1.0 0.1210242639
H  H466  1  0.79370000  0.06100000  0.77010000  1.0 0.1210242639
H  H467  1  0.79090000  0.02360000  0.72990000  1.0 0.1210242639
H  H468  1  0.70630000  0.47640000  0.26730000  1.0 0.1210242639
H  H469  1  0.76730000  0.29090000  0.56100000  1.0 0.1210242639
H  H470  1  0.22990000  0.20630000  0.93900000  1.0 0.1210242639
H  H471  1  0.27010000  0.20910000  0.97640000  1.0 0.1210242639
H  H472  1  0.73270000  0.29370000  0.52360000  1.0 0.1210242639
H  H473  1  0.56100000  0.76730000  0.29090000  1.0 0.1210242639
H  H474  1  0.93900000  0.22990000  0.20630000  1.0 0.1210242639
H  H475  1  0.97640000  0.27010000  0.20910000  1.0 0.1210242639
H  H476  1  0.52360000  0.73270000  0.29370000  1.0 0.1210242639
H  H477  1  0.29090000  0.56100000  0.76730000  1.0 0.1210242639
H  H478  1  0.20630000  0.93900000  0.22990000  1.0 0.1210242639
H  H479  1  0.20910000  0.97640000  0.27010000  1.0 0.1210242639
H  H480  1  0.29370000  0.52360000  0.73270000  1.0 0.1210242639
H  H481  1  0.23010000  0.78350000  0.51580000  1.0 0.1210242639
H  H482  1  0.76770000  0.71430000  0.98420000  1.0 0.1210242639
H  H483  1  0.73230000  0.71650000  0.94660000  1.0 0.1210242639
H  H484  1  0.26990000  0.78570000  0.55340000  1.0 0.1210242639
H  H485  1  0.51580000  0.23010000  0.78350000  1.0 0.1210242639
H  H486  1  0.98420000  0.76770000  0.71430000  1.0 0.1210242639
H  H487  1  0.94660000  0.73230000  0.71650000  1.0 0.1210242639
H  H488  1  0.55340000  0.26990000  0.78570000  1.0 0.1210242639
H  H489  1  0.78350000  0.51580000  0.23010000  1.0 0.1210242639
H  H490  1  0.71430000  0.98420000  0.76770000  1.0 0.1210242639
H  H491  1  0.71650000  0.94660000  0.73230000  1.0 0.1210242639
H  H492  1  0.78570000  0.55340000  0.26990000  1.0 0.1210242639
H  H493  1  0.76990000  0.21650000  0.48420000  1.0 0.1210242639
H  H494  1  0.23230000  0.28570000  0.01580000  1.0 0.1210242639
H  H495  1  0.26770000  0.28350000  0.05340000  1.0 0.1210242639
H  H496  1  0.73010000  0.21430000  0.44660000  1.0 0.1210242639
H  H497  1  0.48420000  0.76990000  0.21650000  1.0 0.1210242639
H  H498  1  0.01580000  0.23230000  0.28570000  1.0 0.1210242639
H  H499  1  0.05340000  0.26770000  0.28350000  1.0 0.1210242639
H  H500  1  0.44660000  0.73010000  0.21430000  1.0 0.1210242639
H  H501  1  0.21650000  0.48420000  0.76990000  1.0 0.1210242639
H  H502  1  0.28570000  0.01580000  0.23230000  1.0 0.1210242639
H  H503  1  0.28350000  0.05340000  0.26770000  1.0 0.1210242639
H  H504  1  0.21430000  0.44660000  0.73010000  1.0 0.1210242639
C  C1  1  0.20752000  0.09342000  0.63750000  1.0 0.5816594079
C  C2  1  0.95592000  0.57002000  0.86250000  1.0 0.5816594079
C  C3  1  0.54408000  0.40658000  0.61410000  1.0 0.5816594079
C  C4  1  0.29248000  0.92998000  0.88590000  1.0 0.5816594079
C  C5  1  0.63750000  0.20752000  0.09342000  1.0 0.5816594079
C  C6  1  0.86250000  0.95592000  0.57002000  1.0 0.5816594079
C  C7  1  0.61410000  0.54408000  0.40658000  1.0 0.5816594079
C  C8  1  0.88590000  0.29248000  0.92998000  1.0 0.5816594079
C  C9  1  0.09342000  0.63750000  0.20752000  1.0 0.5816594079
C  C10  1  0.57002000  0.86250000  0.95592000  1.0 0.5816594079
C  C11  1  0.40658000  0.61410000  0.54408000  1.0 0.5816594079
C  C12  1  0.92998000  0.88590000  0.29248000  1.0 0.5816594079
C  C13  1  0.79248000  0.90658000  0.36250000  1.0 0.5816594079
C  C14  1  0.04408000  0.42998000  0.13750000  1.0 0.5816594079
C  C15  1  0.45592000  0.59342000  0.38590000  1.0 0.5816594079
C  C16  1  0.70752000  0.07002000  0.11410000  1.0 0.5816594079
C  C17  1  0.36250000  0.79248000  0.90658000  1.0 0.5816594079
C  C18  1  0.13750000  0.04408000  0.42998000  1.0 0.5816594079
C  C19  1  0.38590000  0.45592000  0.59342000  1.0 0.5816594079
C  C20  1  0.11410000  0.70752000  0.07002000  1.0 0.5816594079
C  C21  1  0.90658000  0.36250000  0.79248000  1.0 0.5816594079
C  C22  1  0.42998000  0.13750000  0.04408000  1.0 0.5816594079
C  C23  1  0.59342000  0.38590000  0.45592000  1.0 0.5816594079
C  C24  1  0.07002000  0.11410000  0.70752000  1.0 0.5816594079
C  C25  1  0.18048000  0.07208000  0.64500000  1.0 0.0029955369
C  C26  1  0.92708000  0.53548000  0.85500000  1.0 0.0029955369
C  C27  1  0.57292000  0.42792000  0.60840000  1.0 0.0029955369
C  C28  1  0.31952000  0.96452000  0.89160000  1.0 0.0029955369
C  C29  1  0.64500000  0.18048000  0.07208000  1.0 0.0029955369
C  C30  1  0.85500000  0.92708000  0.53548000  1.0 0.0029955369
C  C31  1  0.60840000  0.57292000  0.42792000  1.0 0.0029955369
C  C32  1  0.89160000  0.31952000  0.96452000  1.0 0.0029955369
C  C33  1  0.07208000  0.64500000  0.18048000  1.0 0.0029955369
C  C34  1  0.53548000  0.85500000  0.92708000  1.0 0.0029955369
C  C35  1  0.42792000  0.60840000  0.57292000  1.0 0.0029955369
C  C36  1  0.96452000  0.89160000  0.31952000  1.0 0.0029955369
C  C37  1  0.81952000  0.92792000  0.35500000  1.0 0.0029955369
C  C38  1  0.07292000  0.46452000  0.14500000  1.0 0.0029955369
C  C39  1  0.42708000  0.57208000  0.39160000  1.0 0.0029955369
C  C40  1  0.68048000  0.03548000  0.10840000  1.0 0.0029955369
C  C41  1  0.35500000  0.81952000  0.92792000  1.0 0.0029955369
C  C42  1  0.14500000  0.07292000  0.46452000  1.0 0.0029955369
C  C43  1  0.39160000  0.42708000  0.57208000  1.0 0.0029955369
C  C44  1  0.10840000  0.68048000  0.03548000  1.0 0.0029955369
C  C45  1  0.92792000  0.35500000  0.81952000  1.0 0.0029955369
C  C46  1  0.46452000  0.14500000  0.07292000  1.0 0.0029955369
C  C47  1  0.57208000  0.39160000  0.42708000  1.0 0.0029955369
C  C48  1  0.03548000  0.10840000  0.68048000  1.0 0.0029955369
C  C49  1  0.17251000  0.09051000  0.66960000  1.0 -0.1110290727
C  C50  1  0.92091000  0.50291000  0.83040000  1.0 -0.1110290727
C  C51  1  0.57909000  0.40949000  0.58200000  1.0 -0.1110290727
C  C52  1  0.32749000  0.99709000  0.91800000  1.0 -0.1110290727
C  C53  1  0.66960000  0.17251000  0.09051000  1.0 -0.1110290727
C  C54  1  0.83040000  0.92091000  0.50291000  1.0 -0.1110290727
C  C55  1  0.58200000  0.57909000  0.40949000  1.0 -0.1110290727
C  C56  1  0.91800000  0.32749000  0.99709000  1.0 -0.1110290727
C  C57  1  0.09051000  0.66960000  0.17251000  1.0 -0.1110290727
C  C58  1  0.50291000  0.83040000  0.92091000  1.0 -0.1110290727
C  C59  1  0.40949000  0.58200000  0.57909000  1.0 -0.1110290727
C  C60  1  0.99709000  0.91800000  0.32749000  1.0 -0.1110290727
C  C61  1  0.82749000  0.90949000  0.33040000  1.0 -0.1110290727
C  C62  1  0.07909000  0.49709000  0.16960000  1.0 -0.1110290727
C  C63  1  0.42091000  0.59051000  0.41800000  1.0 -0.1110290727
C  C64  1  0.67251000  0.00291000  0.08200000  1.0 -0.1110290727
C  C65  1  0.33040000  0.82749000  0.90949000  1.0 -0.1110290727
C  C66  1  0.16960000  0.07909000  0.49709000  1.0 -0.1110290727
C  C67  1  0.41800000  0.42091000  0.59051000  1.0 -0.1110290727
C  C68  1  0.08200000  0.67251000  0.00291000  1.0 -0.1110290727
C  C69  1  0.90949000  0.33040000  0.82749000  1.0 -0.1110290727
C  C70  1  0.49709000  0.16960000  0.07909000  1.0 -0.1110290727
C  C71  1  0.59051000  0.41800000  0.42091000  1.0 -0.1110290727
C  C72  1  0.00291000  0.08200000  0.67251000  1.0 -0.1110290727
C  C73  1  0.14865000  0.07161000  0.67756000  1.0 -0.0038083608
C  C74  1  0.89405000  0.47109000  0.82244000  1.0 -0.0038083608
C  C75  1  0.60595000  0.42839000  0.57704000  1.0 -0.0038083608
C  C76  1  0.35135000  0.02891000  0.92296000  1.0 -0.0038083608
C  C77  1  0.67756000  0.14865000  0.07161000  1.0 -0.0038083608
C  C78  1  0.82244000  0.89405000  0.47109000  1.0 -0.0038083608
C  C79  1  0.57704000  0.60595000  0.42839000  1.0 -0.0038083608
C  C80  1  0.92296000  0.35135000  0.02891000  1.0 -0.0038083608
C  C81  1  0.07161000  0.67756000  0.14865000  1.0 -0.0038083608
C  C82  1  0.47109000  0.82244000  0.89405000  1.0 -0.0038083608
C  C83  1  0.42839000  0.57704000  0.60595000  1.0 -0.0038083608
C  C84  1  0.02891000  0.92296000  0.35135000  1.0 -0.0038083608
C  C85  1  0.85135000  0.92839000  0.32244000  1.0 -0.0038083608
C  C86  1  0.10595000  0.52891000  0.17756000  1.0 -0.0038083608
C  C87  1  0.39405000  0.57161000  0.42296000  1.0 -0.0038083608
C  C88  1  0.64865000  0.97109000  0.07704000  1.0 -0.0038083608
C  C89  1  0.32244000  0.85135000  0.92839000  1.0 -0.0038083608
C  C90  1  0.17756000  0.10595000  0.52891000  1.0 -0.0038083608
C  C91  1  0.42296000  0.39405000  0.57161000  1.0 -0.0038083608
C  C92  1  0.07704000  0.64865000  0.97109000  1.0 -0.0038083608
C  C93  1  0.92839000  0.32244000  0.85135000  1.0 -0.0038083608
C  C94  1  0.52891000  0.17756000  0.10595000  1.0 -0.0038083608
C  C95  1  0.57161000  0.42296000  0.39405000  1.0 -0.0038083608
C  C96  1  0.97109000  0.07704000  0.64865000  1.0 -0.0038083608
C  C97  1  0.14270000  0.09308000  0.70598000  1.0 0.5816594079
C  C98  1  0.88710000  0.43672000  0.79402000  1.0 0.5816594079
C  C99  1  0.61290000  0.40692000  0.54962000  1.0 0.5816594079
C  C100  1  0.35730000  0.06328000  0.95038000  1.0 0.5816594079
C  C101  1  0.70598000  0.14270000  0.09308000  1.0 0.5816594079
C  C102  1  0.79402000  0.88710000  0.43672000  1.0 0.5816594079
C  C103  1  0.54962000  0.61290000  0.40692000  1.0 0.5816594079
C  C104  1  0.95038000  0.35730000  0.06328000  1.0 0.5816594079
C  C105  1  0.09308000  0.70598000  0.14270000  1.0 0.5816594079
C  C106  1  0.43672000  0.79402000  0.88710000  1.0 0.5816594079
C  C107  1  0.40692000  0.54962000  0.61290000  1.0 0.5816594079
C  C108  1  0.06328000  0.95038000  0.35730000  1.0 0.5816594079
C  C109  1  0.85730000  0.90692000  0.29402000  1.0 0.5816594079
C  C110  1  0.11290000  0.56328000  0.20598000  1.0 0.5816594079
C  C111  1  0.38710000  0.59308000  0.45038000  1.0 0.5816594079
C  C112  1  0.64270000  0.93672000  0.04962000  1.0 0.5816594079
C  C113  1  0.29402000  0.85730000  0.90692000  1.0 0.5816594079
C  C114  1  0.20598000  0.11290000  0.56328000  1.0 0.5816594079
C  C115  1  0.45038000  0.38710000  0.59308000  1.0 0.5816594079
C  C116  1  0.04962000  0.64270000  0.93672000  1.0 0.5816594079
C  C117  1  0.90692000  0.29402000  0.85730000  1.0 0.5816594079
C  C118  1  0.56328000  0.20598000  0.11290000  1.0 0.5816594079
C  C119  1  0.59308000  0.45038000  0.38710000  1.0 0.5816594079
C  C120  1  0.93672000  0.04962000  0.64270000  1.0 0.5816594079
C  C121  1  0.13191000  0.03441000  0.66030000  1.0 -0.1472944384
C  C122  1  0.87411000  0.47161000  0.83970000  1.0 -0.1472944384
C  C123  1  0.62589000  0.46559000  0.59750000  1.0 -0.1472944384
C  C124  1  0.36809000  0.02839000  0.90250000  1.0 -0.1472944384
C  C125  1  0.66030000  0.13191000  0.03441000  1.0 -0.1472944384
C  C126  1  0.83970000  0.87411000  0.47161000  1.0 -0.1472944384
C  C127  1  0.59750000  0.62589000  0.46559000  1.0 -0.1472944384
C  C128  1  0.90250000  0.36809000  0.02839000  1.0 -0.1472944384
C  C129  1  0.03441000  0.66030000  0.13191000  1.0 -0.1472944384
C  C130  1  0.47161000  0.83970000  0.87411000  1.0 -0.1472944384
C  C131  1  0.46559000  0.59750000  0.62589000  1.0 -0.1472944384
C  C132  1  0.02839000  0.90250000  0.36809000  1.0 -0.1472944384
C  C133  1  0.86809000  0.96559000  0.33970000  1.0 -0.1472944384
C  C134  1  0.12589000  0.52839000  0.16030000  1.0 -0.1472944384
C  C135  1  0.37411000  0.53441000  0.40250000  1.0 -0.1472944384
C  C136  1  0.63191000  0.97161000  0.09750000  1.0 -0.1472944384
C  C137  1  0.33970000  0.86809000  0.96559000  1.0 -0.1472944384
C  C138  1  0.16030000  0.12589000  0.52839000  1.0 -0.1472944384
C  C139  1  0.40250000  0.37411000  0.53441000  1.0 -0.1472944384
C  C140  1  0.09750000  0.63191000  0.97161000  1.0 -0.1472944384
C  C141  1  0.96559000  0.33970000  0.86809000  1.0 -0.1472944384
C  C142  1  0.52839000  0.16030000  0.12589000  1.0 -0.1472944384
C  C143  1  0.53441000  0.40250000  0.37411000  1.0 -0.1472944384
C  C144  1  0.97161000  0.09750000  0.63191000  1.0 -0.1472944384
C  C145  1  0.16404000  0.03482000  0.62838000  1.0 -0.1472944384
C  C146  1  0.90644000  0.53566000  0.87162000  1.0 -0.1472944384
C  C147  1  0.59356000  0.46518000  0.62922000  1.0 -0.1472944384
C  C148  1  0.33596000  0.96434000  0.87078000  1.0 -0.1472944384
C  C149  1  0.62838000  0.16404000  0.03482000  1.0 -0.1472944384
C  C150  1  0.87162000  0.90644000  0.53566000  1.0 -0.1472944384
C  C151  1  0.62922000  0.59356000  0.46518000  1.0 -0.1472944384
C  C152  1  0.87078000  0.33596000  0.96434000  1.0 -0.1472944384
C  C153  1  0.03482000  0.62838000  0.16404000  1.0 -0.1472944384
C  C154  1  0.53566000  0.87162000  0.90644000  1.0 -0.1472944384
C  C155  1  0.46518000  0.62922000  0.59356000  1.0 -0.1472944384
C  C156  1  0.96434000  0.87078000  0.33596000  1.0 -0.1472944384
C  C157  1  0.83596000  0.96518000  0.37162000  1.0 -0.1472944384
C  C158  1  0.09356000  0.46434000  0.12838000  1.0 -0.1472944384
C  C159  1  0.40644000  0.53482000  0.37078000  1.0 -0.1472944384
C  C160  1  0.66404000  0.03566000  0.12922000  1.0 -0.1472944384
C  C161  1  0.37162000  0.83596000  0.96518000  1.0 -0.1472944384
C  C162  1  0.12838000  0.09356000  0.46434000  1.0 -0.1472944384
C  C163  1  0.37078000  0.40644000  0.53482000  1.0 -0.1472944384
C  C164  1  0.12922000  0.66404000  0.03566000  1.0 -0.1472944384
C  C165  1  0.96518000  0.37162000  0.83596000  1.0 -0.1472944384
C  C166  1  0.46434000  0.12838000  0.09356000  1.0 -0.1472944384
C  C167  1  0.53482000  0.37078000  0.40644000  1.0 -0.1472944384
C  C168  1  0.03566000  0.12922000  0.66404000  1.0 -0.1472944384
C  C169  1  0.13906000  0.01539000  0.63513000  1.0 0.070447032
C  C170  1  0.88026000  0.50393000  0.86487000  1.0 0.070447032
C  C171  1  0.61974000  0.48461000  0.62367000  1.0 0.070447032
C  C172  1  0.36094000  0.99607000  0.87633000  1.0 0.070447032
C  C173  1  0.63513000  0.13906000  0.01539000  1.0 0.070447032
C  C174  1  0.86487000  0.88026000  0.50393000  1.0 0.070447032
C  C175  1  0.62367000  0.61974000  0.48461000  1.0 0.070447032
C  C176  1  0.87633000  0.36094000  0.99607000  1.0 0.070447032
C  C177  1  0.01539000  0.63513000  0.13906000  1.0 0.070447032
C  C178  1  0.50393000  0.86487000  0.88026000  1.0 0.070447032
C  C179  1  0.48461000  0.62367000  0.61974000  1.0 0.070447032
C  C180  1  0.99607000  0.87633000  0.36094000  1.0 0.070447032
C  C181  1  0.86094000  0.98461000  0.36487000  1.0 0.070447032
C  C182  1  0.11974000  0.49607000  0.13513000  1.0 0.070447032
C  C183  1  0.38026000  0.51539000  0.37633000  1.0 0.070447032
C  C184  1  0.63906000  0.00393000  0.12367000  1.0 0.070447032
C  C185  1  0.36487000  0.86094000  0.98461000  1.0 0.070447032
C  C186  1  0.13513000  0.11974000  0.49607000  1.0 0.070447032
C  C187  1  0.37633000  0.38026000  0.51539000  1.0 0.070447032
C  C188  1  0.12367000  0.63906000  0.00393000  1.0 0.070447032
C  C189  1  0.98461000  0.36487000  0.86094000  1.0 0.070447032
C  C190  1  0.49607000  0.13513000  0.11974000  1.0 0.070447032
C  C191  1  0.51539000  0.37633000  0.38026000  1.0 0.070447032
C  C192  1  0.00393000  0.12367000  0.63906000  1.0 0.070447032
C  C193  1  0.12030000  0.97526000  0.61596000  1.0 0.0646027383
C  C194  1  0.85930000  0.50434000  0.88404000  1.0 0.0646027383
C  C195  1  0.64070000  0.52474000  0.64504000  1.0 0.0646027383
C  C196  1  0.37970000  0.99566000  0.85496000  1.0 0.0646027383
C  C197  1  0.61596000  0.12030000  0.97526000  1.0 0.0646027383
C  C198  1  0.88404000  0.85930000  0.50434000  1.0 0.0646027383
C  C199  1  0.64504000  0.64070000  0.52474000  1.0 0.0646027383
C  C200  1  0.85496000  0.37970000  0.99566000  1.0 0.0646027383
C  C201  1  0.97526000  0.61596000  0.12030000  1.0 0.0646027383
C  C202  1  0.50434000  0.88404000  0.85930000  1.0 0.0646027383
C  C203  1  0.52474000  0.64504000  0.64070000  1.0 0.0646027383
C  C204  1  0.99566000  0.85496000  0.37970000  1.0 0.0646027383
C  C205  1  0.87970000  0.02474000  0.38404000  1.0 0.0646027383
C  C206  1  0.14070000  0.49566000  0.11596000  1.0 0.0646027383
C  C207  1  0.35930000  0.47526000  0.35496000  1.0 0.0646027383
C  C208  1  0.62030000  0.00434000  0.14504000  1.0 0.0646027383
C  C209  1  0.38404000  0.87970000  0.02474000  1.0 0.0646027383
C  C210  1  0.11596000  0.14070000  0.49566000  1.0 0.0646027383
C  C211  1  0.35496000  0.35930000  0.47526000  1.0 0.0646027383
C  C212  1  0.14504000  0.62030000  0.00434000  1.0 0.0646027383
C  C213  1  0.02474000  0.38404000  0.87970000  1.0 0.0646027383
C  C214  1  0.49566000  0.11596000  0.14070000  1.0 0.0646027383
C  C215  1  0.47526000  0.35496000  0.35930000  1.0 0.0646027383
C  C216  1  0.00434000  0.14504000  0.62030000  1.0 0.0646027383
C  C217  1  0.09623000  0.95575000  0.62332000  1.0 -0.140447492
C  C218  1  0.83243000  0.47291000  0.87668000  1.0 -0.140447492
C  C219  1  0.66757000  0.54425000  0.64048000  1.0 -0.140447492
C  C220  1  0.40377000  0.02709000  0.85952000  1.0 -0.140447492
C  C221  1  0.62332000  0.09623000  0.95575000  1.0 -0.140447492
C  C222  1  0.87668000  0.83243000  0.47291000  1.0 -0.140447492
C  C223  1  0.64048000  0.66757000  0.54425000  1.0 -0.140447492
C  C224  1  0.85952000  0.40377000  0.02709000  1.0 -0.140447492
C  C225  1  0.95575000  0.62332000  0.09623000  1.0 -0.140447492
C  C226  1  0.47291000  0.87668000  0.83243000  1.0 -0.140447492
C  C227  1  0.54425000  0.64048000  0.66757000  1.0 -0.140447492
C  C228  1  0.02709000  0.85952000  0.40377000  1.0 -0.140447492
C  C229  1  0.90377000  0.04425000  0.37668000  1.0 -0.140447492
C  C230  1  0.16757000  0.52709000  0.12332000  1.0 -0.140447492
C  C231  1  0.33243000  0.45575000  0.35952000  1.0 -0.140447492
C  C232  1  0.59623000  0.97291000  0.14048000  1.0 -0.140447492
C  C233  1  0.37668000  0.90377000  0.04425000  1.0 -0.140447492
C  C234  1  0.12332000  0.16757000  0.52709000  1.0 -0.140447492
C  C235  1  0.35952000  0.33243000  0.45575000  1.0 -0.140447492
C  C236  1  0.14048000  0.59623000  0.97291000  1.0 -0.140447492
C  C237  1  0.04425000  0.37668000  0.90377000  1.0 -0.140447492
C  C238  1  0.52709000  0.12332000  0.16757000  1.0 -0.140447492
C  C239  1  0.45575000  0.35952000  0.33243000  1.0 -0.140447492
C  C240  1  0.97291000  0.14048000  0.59623000  1.0 -0.140447492
C  C241  1  0.12660000  0.95545000  0.59025000  1.0 -0.1472944384
C  C242  1  0.86520000  0.53635000  0.90975000  1.0 -0.1472944384
C  C243  1  0.63480000  0.54455000  0.67115000  1.0 -0.1472944384
C  C244  1  0.37340000  0.96365000  0.82885000  1.0 -0.140447492
C  C245  1  0.59025000  0.12660000  0.95545000  1.0 -0.1472944384
C  C246  1  0.90975000  0.86520000  0.53635000  1.0 -0.1472944384
C  C247  1  0.67115000  0.63480000  0.54455000  1.0 -0.1472944384
C  C248  1  0.82885000  0.37340000  0.96365000  1.0 -0.1472944384
C  C249  1  0.95545000  0.59025000  0.12660000  1.0 -0.1472944384
C  C250  1  0.53635000  0.90975000  0.86520000  1.0 -0.1472944384
C  C251  1  0.54455000  0.67115000  0.63480000  1.0 -0.1472944384
C  C252  1  0.96365000  0.82885000  0.37340000  1.0 -0.1472944384
C  C253  1  0.87340000  0.04455000  0.40975000  1.0 -0.1472944384
C  C254  1  0.13480000  0.46365000  0.09025000  1.0 -0.140447492
C  C255  1  0.36520000  0.45545000  0.32885000  1.0 -0.140447492
C  C256  1  0.62660000  0.03635000  0.17115000  1.0 -0.140447492
C  C257  1  0.40975000  0.87340000  0.04455000  1.0 -0.1472944384
C  C258  1  0.09025000  0.13480000  0.46365000  1.0 -0.1472944384
C  C259  1  0.32885000  0.36520000  0.45545000  1.0 -0.1472944384
C  C260  1  0.17115000  0.62660000  0.03635000  1.0 -0.1472944384
C  C261  1  0.04455000  0.40975000  0.87340000  1.0 -0.1472944384
C  C262  1  0.46365000  0.09025000  0.13480000  1.0 -0.140447492
C  C263  1  0.45545000  0.32885000  0.36520000  1.0 -0.1472944384
C  C264  1  0.03635000  0.17115000  0.62660000  1.0 -0.1472944384
C  C265  1  0.11030000  0.91837000  0.57407000  1.0 -0.0314872275
C  C266  1  0.84430000  0.53623000  0.92593000  1.0 -0.0314872275
C  C267  1  0.65570000  0.58163000  0.69193000  1.0 -0.0314872275
C  C268  1  0.38970000  0.96377000  0.80807000  1.0 -0.0314872275
C  C269  1  0.57407000  0.11030000  0.91837000  1.0 -0.0314872275
C  C270  1  0.92593000  0.84430000  0.53623000  1.0 -0.0314872275
C  C271  1  0.69193000  0.65570000  0.58163000  1.0 -0.0314872275
C  C272  1  0.80807000  0.38970000  0.96377000  1.0 -0.0314872275
C  C273  1  0.91837000  0.57407000  0.11030000  1.0 -0.0314872275
C  C274  1  0.53623000  0.92593000  0.84430000  1.0 -0.0314872275
C  C275  1  0.58163000  0.69193000  0.65570000  1.0 -0.0314872275
C  C276  1  0.96377000  0.80807000  0.38970000  1.0 -0.0314872275
C  C277  1  0.88970000  0.08163000  0.42593000  1.0 -0.0314872275
C  C278  1  0.15570000  0.46377000  0.07407000  1.0 -0.0314872275
C  C279  1  0.34430000  0.41837000  0.30807000  1.0 -0.0314872275
C  C280  1  0.61030000  0.03623000  0.19193000  1.0 -0.0314872275
C  C281  1  0.42593000  0.88970000  0.08163000  1.0 -0.0314872275
C  C282  1  0.07407000  0.15570000  0.46377000  1.0 -0.0314872275
C  C283  1  0.30807000  0.34430000  0.41837000  1.0 -0.0314872275
C  C284  1  0.19193000  0.61030000  0.03623000  1.0 -0.0314872275
C  C285  1  0.08163000  0.42593000  0.88970000  1.0 -0.0314872275
C  C286  1  0.46377000  0.07407000  0.15570000  1.0 -0.0314872275
C  C287  1  0.41837000  0.30807000  0.34430000  1.0 -0.0314872275
C  C288  1  0.03623000  0.19193000  0.61030000  1.0 -0.0314872275
C  C289  1  0.11710000  0.89690000  0.54660000  1.0 0.5816594079
C  C290  1  0.85030000  0.57050000  0.95340000  1.0 0.5816594079
C  C291  1  0.64970000  0.60310000  0.72020000  1.0 0.5816594079
C  C292  1  0.38290000  0.92950000  0.77980000  1.0 0.5816594079
C  C293  1  0.54660000  0.11710000  0.89690000  1.0 0.5816594079
C  C294  1  0.95340000  0.85030000  0.57050000  1.0 0.5816594079
C  C295  1  0.72020000  0.64970000  0.60310000  1.0 0.5816594079
C  C296  1  0.77980000  0.38290000  0.92950000  1.0 0.5816594079
C  C297  1  0.89690000  0.54660000  0.11710000  1.0 0.5816594079
C  C298  1  0.57050000  0.95340000  0.85030000  1.0 0.5816594079
C  C299  1  0.60310000  0.72020000  0.64970000  1.0 0.5816594079
C  C300  1  0.92950000  0.77980000  0.38290000  1.0 0.5816594079
C  C301  1  0.88290000  0.10310000  0.45340000  1.0 0.5816594079
C  C302  1  0.14970000  0.42950000  0.04660000  1.0 0.5816594079
C  C303  1  0.35030000  0.39690000  0.27980000  1.0 0.5816594079
C  C304  1  0.61710000  0.07050000  0.22020000  1.0 0.5816594079
C  C305  1  0.45340000  0.88290000  0.10310000  1.0 0.5816594079
C  C306  1  0.04660000  0.14970000  0.42950000  1.0 0.5816594079
C  C307  1  0.27980000  0.35030000  0.39690000  1.0 0.5816594079
C  C308  1  0.22020000  0.61710000  0.07050000  1.0 0.5816594079
C  C309  1  0.10310000  0.45340000  0.88290000  1.0 0.5816594079
C  C310  1  0.42950000  0.04660000  0.14970000  1.0 0.5816594079
C  C311  1  0.39690000  0.27980000  0.35030000  1.0 0.5816594079
C  C312  1  0.07050000  0.22020000  0.61710000  1.0 0.5816594079
C  C313  1  0.08710000  0.90040000  0.58230000  1.0 -0.1110290727
C  C314  1  0.81810000  0.50480000  0.91770000  1.0 -0.1110290727
C  C315  1  0.68190000  0.59960000  0.68670000  1.0 -0.1110290727
C  C316  1  0.41290000  0.99520000  0.81330000  1.0 -0.1110290727
C  C317  1  0.58230000  0.08710000  0.90040000  1.0 -0.1110290727
C  C318  1  0.91770000  0.81810000  0.50480000  1.0 -0.1110290727
C  C319  1  0.68670000  0.68190000  0.59960000  1.0 -0.1110290727
C  C320  1  0.81330000  0.41290000  0.99520000  1.0 -0.1110290727
C  C321  1  0.90040000  0.58230000  0.08710000  1.0 -0.1110290727
C  C322  1  0.50480000  0.91770000  0.81810000  1.0 -0.1110290727
C  C323  1  0.59960000  0.68670000  0.68190000  1.0 -0.1110290727
C  C324  1  0.99520000  0.81330000  0.41290000  1.0 -0.1110290727
C  C325  1  0.91290000  0.09960000  0.41770000  1.0 -0.1110290727
C  C326  1  0.18190000  0.49520000  0.08230000  1.0 -0.1110290727
C  C327  1  0.31810000  0.40040000  0.31330000  1.0 -0.1110290727
C  C328  1  0.58710000  0.00480000  0.18670000  1.0 -0.1110290727
C  C329  1  0.41770000  0.91290000  0.09960000  1.0 -0.1110290727
C  C330  1  0.08230000  0.18190000  0.49520000  1.0 -0.1110290727
C  C331  1  0.31330000  0.31810000  0.40040000  1.0 -0.1110290727
C  C332  1  0.18670000  0.58710000  0.00480000  1.0 -0.1110290727
C  C333  1  0.09960000  0.41770000  0.91290000  1.0 -0.1110290727
C  C334  1  0.49520000  0.08230000  0.18190000  1.0 -0.1110290727
C  C335  1  0.40040000  0.31330000  0.31810000  1.0 -0.1110290727
C  C336  1  0.00480000  0.18670000  0.58710000  1.0 -0.1110290727
C  C337  1  0.07869000  0.91864000  0.60595000  1.0 -0.0314872275
C  C338  1  0.81269000  0.47274000  0.89405000  1.0 -0.0314872275
C  C339  1  0.68731000  0.58136000  0.66005000  1.0 -0.0314872275
C  C340  1  0.42131000  0.02726000  0.83995000  1.0 -0.0314872275
C  C341  1  0.60595000  0.07869000  0.91864000  1.0 -0.0314872275
C  C342  1  0.89405000  0.81269000  0.47274000  1.0 -0.0314872275
C  C343  1  0.66005000  0.68731000  0.58136000  1.0 -0.0314872275
C  C344  1  0.83995000  0.42131000  0.02726000  1.0 -0.0314872275
C  C345  1  0.91864000  0.60595000  0.07869000  1.0 -0.0314872275
C  C346  1  0.47274000  0.89405000  0.81269000  1.0 -0.0314872275
C  C347  1  0.58136000  0.66005000  0.68731000  1.0 -0.0314872275
C  C348  1  0.02726000  0.83995000  0.42131000  1.0 -0.0314872275
C  C349  1  0.92131000  0.08136000  0.39405000  1.0 -0.0314872275
C  C350  1  0.18731000  0.52726000  0.10595000  1.0 -0.0314872275
C  C351  1  0.31269000  0.41864000  0.33995000  1.0 -0.0314872275
C  C352  1  0.57869000  0.97274000  0.16005000  1.0 -0.0314872275
C  C353  1  0.39405000  0.92131000  0.08136000  1.0 -0.0314872275
C  C354  1  0.10595000  0.18731000  0.52726000  1.0 -0.0314872275
C  C355  1  0.33995000  0.31269000  0.41864000  1.0 -0.0314872275
C  C356  1  0.16005000  0.57869000  0.97274000  1.0 -0.0314872275
C  C357  1  0.08136000  0.39405000  0.92131000  1.0 -0.0314872275
C  C358  1  0.52726000  0.10595000  0.18731000  1.0 -0.0314872275
C  C359  1  0.41864000  0.33995000  0.31269000  1.0 -0.0314872275
C  C360  1  0.97274000  0.16005000  0.57869000  1.0 -0.0314872275
C  C361  1  0.05162000  0.89792000  0.61350000  1.0 0.5816594079
C  C362  1  0.78442000  0.43812000  0.88650000  1.0 0.5816594079
C  C363  1  0.71558000  0.60208000  0.65370000  1.0 0.5816594079
C  C364  1  0.44838000  0.06188000  0.84630000  1.0 0.5816594079
C  C365  1  0.61350000  0.05162000  0.89792000  1.0 0.5816594079
C  C366  1  0.88650000  0.78442000  0.43812000  1.0 0.5816594079
C  C367  1  0.65370000  0.71558000  0.60208000  1.0 0.5816594079
C  C368  1  0.84630000  0.44838000  0.06188000  1.0 0.5816594079
C  C369  1  0.89792000  0.61350000  0.05162000  1.0 0.5816594079
C  C370  1  0.43812000  0.88650000  0.78442000  1.0 0.5816594079
C  C371  1  0.60208000  0.65370000  0.71558000  1.0 0.5816594079
C  C372  1  0.06188000  0.84630000  0.44838000  1.0 0.5816594079
C  C373  1  0.94838000  0.10208000  0.38650000  1.0 0.5816594079
C  C374  1  0.21558000  0.56188000  0.11350000  1.0 0.5816594079
C  C375  1  0.28442000  0.39792000  0.34630000  1.0 0.5816594079
C  C376  1  0.55162000  0.93812000  0.15370000  1.0 0.5816594079
C  C377  1  0.38650000  0.94838000  0.10208000  1.0 0.5816594079
C  C378  1  0.11350000  0.21558000  0.56188000  1.0 0.5816594079
C  C379  1  0.34630000  0.28442000  0.39792000  1.0 0.5816594079
C  C380  1  0.15370000  0.55162000  0.93812000  1.0 0.5816594079
C  C381  1  0.10208000  0.38650000  0.94838000  1.0 0.5816594079
C  C382  1  0.56188000  0.11350000  0.21558000  1.0 0.5816594079
C  C383  1  0.39792000  0.34630000  0.28442000  1.0 0.5816594079
C  C384  1  0.93812000  0.15370000  0.55162000  1.0 0.5816594079
C  C385  1  0.28042000  0.05371000  0.62235000  1.0 0.6079565131
C  C386  1  0.93136000  0.65807000  0.87765000  1.0 0.6079565131
C  C387  1  0.56864000  0.44629000  0.72671000  1.0 0.6079565131
C  C388  1  0.21958000  0.84193000  0.77329000  1.0 0.6079565131
C  C389  1  0.62235000  0.28042000  0.05371000  1.0 0.6079565131
C  C390  1  0.87765000  0.93136000  0.65807000  1.0 0.6079565131
C  C391  1  0.72671000  0.56864000  0.44629000  1.0 0.6079565131
C  C392  1  0.77329000  0.21958000  0.84193000  1.0 0.6079565131
C  C393  1  0.05371000  0.62235000  0.28042000  1.0 0.6079565131
C  C394  1  0.65807000  0.87765000  0.93136000  1.0 0.6079565131
C  C395  1  0.44629000  0.72671000  0.56864000  1.0 0.6079565131
C  C396  1  0.84193000  0.77329000  0.21958000  1.0 0.6079565131
C  C397  1  0.71958000  0.94629000  0.37765000  1.0 0.6079565131
C  C398  1  0.06864000  0.34193000  0.12235000  1.0 0.6079565131
C  C399  1  0.43136000  0.55371000  0.27329000  1.0 0.6079565131
C  C400  1  0.78042000  0.15807000  0.22671000  1.0 0.6079565131
C  C401  1  0.37765000  0.71958000  0.94629000  1.0 0.6079565131
C  C402  1  0.12235000  0.06864000  0.34193000  1.0 0.6079565131
C  C403  1  0.27329000  0.43136000  0.55371000  1.0 0.6079565131
C  C404  1  0.22671000  0.78042000  0.15807000  1.0 0.6079565131
C  C405  1  0.94629000  0.37765000  0.71958000  1.0 0.6079565131
C  C406  1  0.34193000  0.12235000  0.06864000  1.0 0.6079565131
C  C407  1  0.55371000  0.27329000  0.43136000  1.0 0.6079565131
C  C408  1  0.15807000  0.22671000  0.78042000  1.0 0.6079565131
C  C409  1  0.28020000  0.01916000  0.61628000  1.0 -0.0216424995
C  C410  1  0.90288000  0.66392000  0.88372000  1.0 -0.0216424995
C  C411  1  0.59712000  0.48084000  0.76104000  1.0 -0.0216424995
C  C412  1  0.21980000  0.83608000  0.73896000  1.0 -0.0216424995
C  C413  1  0.61628000  0.28020000  0.01916000  1.0 -0.0216424995
C  C414  1  0.88372000  0.90288000  0.66392000  1.0 -0.0216424995
C  C415  1  0.76104000  0.59712000  0.48084000  1.0 -0.0216424995
C  C416  1  0.73896000  0.21980000  0.83608000  1.0 -0.0216424995
C  C417  1  0.01916000  0.61628000  0.28020000  1.0 -0.0216424995
C  C418  1  0.66392000  0.88372000  0.90288000  1.0 -0.0216424995
C  C419  1  0.48084000  0.76104000  0.59712000  1.0 -0.0216424995
C  C420  1  0.83608000  0.73896000  0.21980000  1.0 -0.0216424995
C  C421  1  0.71980000  0.98084000  0.38372000  1.0 -0.0216424995
C  C422  1  0.09712000  0.33608000  0.11628000  1.0 -0.0216424995
C  C423  1  0.40288000  0.51916000  0.23896000  1.0 -0.0216424995
C  C424  1  0.78020000  0.16392000  0.26104000  1.0 -0.0216424995
C  C425  1  0.38372000  0.71980000  0.98084000  1.0 -0.0216424995
C  C426  1  0.11628000  0.09712000  0.33608000  1.0 -0.0216424995
C  C427  1  0.23896000  0.40288000  0.51916000  1.0 -0.0216424995
C  C428  1  0.26104000  0.78020000  0.16392000  1.0 -0.0216424995
C  C429  1  0.98084000  0.38372000  0.71980000  1.0 -0.0216424995
C  C430  1  0.33608000  0.11628000  0.09712000  1.0 -0.0216424995
C  C431  1  0.51916000  0.23896000  0.40288000  1.0 -0.0216424995
C  C432  1  0.16392000  0.26104000  0.78020000  1.0 -0.0216424995
C  C433  1  0.25132000  0.98693000  0.58657000  1.0 -0.1110290727
C  C434  1  0.90036000  0.66475000  0.91343000  1.0 -0.1110290727
C  C435  1  0.59964000  0.51307000  0.76439000  1.0 -0.1110290727
C  C436  1  0.24868000  0.83525000  0.73561000  1.0 -0.1110290727
C  C437  1  0.58657000  0.25132000  0.98693000  1.0 -0.1110290727
C  C438  1  0.91343000  0.90036000  0.66475000  1.0 -0.1110290727
C  C439  1  0.76439000  0.59964000  0.51307000  1.0 -0.1110290727
C  C440  1  0.73561000  0.24868000  0.83525000  1.0 -0.1110290727
C  C441  1  0.98693000  0.58657000  0.25132000  1.0 -0.1110290727
C  C442  1  0.66475000  0.91343000  0.90036000  1.0 -0.1110290727
C  C443  1  0.51307000  0.76439000  0.59964000  1.0 -0.1110290727
C  C444  1  0.83525000  0.73561000  0.24868000  1.0 -0.1110290727
C  C445  1  0.74868000  0.01307000  0.41343000  1.0 -0.1110290727
C  C446  1  0.09964000  0.33525000  0.08657000  1.0 -0.1110290727
C  C447  1  0.40036000  0.48693000  0.23561000  1.0 -0.1110290727
C  C448  1  0.75132000  0.16475000  0.26439000  1.0 -0.1110290727
C  C449  1  0.41343000  0.74868000  0.01307000  1.0 -0.1110290727
C  C450  1  0.08657000  0.09964000  0.33525000  1.0 -0.1110290727
C  C451  1  0.23561000  0.40036000  0.48693000  1.0 -0.1110290727
C  C452  1  0.26439000  0.75132000  0.16475000  1.0 -0.1110290727
C  C453  1  0.01307000  0.41343000  0.74868000  1.0 -0.1110290727
C  C454  1  0.33525000  0.08657000  0.09964000  1.0 -0.1110290727
C  C455  1  0.48693000  0.23561000  0.40036000  1.0 -0.1110290727
C  C456  1  0.16475000  0.26439000  0.75132000  1.0 -0.1110290727
C  C457  1  0.25026000  0.95510000  0.58338000  1.0 -0.0314872275
C  C458  1  0.87172000  0.66688000  0.91662000  1.0 -0.0314872275
C  C459  1  0.62828000  0.54490000  0.79516000  1.0 -0.0314872275
C  C460  1  0.24974000  0.83312000  0.70484000  1.0 -0.0314872275
C  C461  1  0.58338000  0.25026000  0.95510000  1.0 -0.0314872275
C  C462  1  0.91662000  0.87172000  0.66688000  1.0 -0.0314872275
C  C463  1  0.79516000  0.62828000  0.54490000  1.0 -0.0314872275
C  C464  1  0.70484000  0.24974000  0.83312000  1.0 -0.0314872275
C  C465  1  0.95510000  0.58338000  0.25026000  1.0 -0.0314872275
C  C466  1  0.66688000  0.91662000  0.87172000  1.0 -0.0314872275
C  C467  1  0.54490000  0.79516000  0.62828000  1.0 -0.0314872275
C  C468  1  0.83312000  0.70484000  0.24974000  1.0 -0.0314872275
C  C469  1  0.74974000  0.04490000  0.41662000  1.0 -0.0314872275
C  C470  1  0.12828000  0.33312000  0.08338000  1.0 -0.0314872275
C  C471  1  0.37172000  0.45510000  0.20484000  1.0 -0.0314872275
C  C472  1  0.75026000  0.16688000  0.29516000  1.0 -0.0314872275
C  C473  1  0.41662000  0.74974000  0.04490000  1.0 -0.0314872275
C  C474  1  0.08338000  0.12828000  0.33312000  1.0 -0.0314872275
C  C475  1  0.20484000  0.37172000  0.45510000  1.0 -0.0314872275
C  C476  1  0.29516000  0.75026000  0.16688000  1.0 -0.0314872275
C  C477  1  0.04490000  0.41662000  0.74974000  1.0 -0.0314872275
C  C478  1  0.33312000  0.08338000  0.12828000  1.0 -0.0314872275
C  C479  1  0.45510000  0.20484000  0.37172000  1.0 -0.0314872275
C  C480  1  0.16688000  0.29516000  0.75026000  1.0 -0.0314872275
C  C481  1  0.21800000  0.91978000  0.55320000  1.0 0.5974613086
C  C482  1  0.86658000  0.66480000  0.94680000  1.0 0.5974613086
C  C483  1  0.63342000  0.58022000  0.79822000  1.0 0.5974613086
C  C484  1  0.28200000  0.83520000  0.70178000  1.0 0.5974613086
C  C485  1  0.55320000  0.21800000  0.91978000  1.0 0.5974613086
C  C486  1  0.94680000  0.86658000  0.66480000  1.0 0.5974613086
C  C487  1  0.79822000  0.63342000  0.58022000  1.0 0.5974613086
C  C488  1  0.70178000  0.28200000  0.83520000  1.0 0.5974613086
C  C489  1  0.91978000  0.55320000  0.21800000  1.0 0.5974613086
C  C490  1  0.66480000  0.94680000  0.86658000  1.0 0.5974613086
C  C491  1  0.58022000  0.79822000  0.63342000  1.0 0.5974613086
C  C492  1  0.83520000  0.70178000  0.28200000  1.0 0.5974613086
C  C493  1  0.78200000  0.08022000  0.44680000  1.0 0.5974613086
C  C494  1  0.13342000  0.33520000  0.05320000  1.0 0.5974613086
C  C495  1  0.36658000  0.41978000  0.20178000  1.0 0.5974613086
C  C496  1  0.71800000  0.16480000  0.29822000  1.0 0.5974613086
C  C497  1  0.44680000  0.78200000  0.08022000  1.0 0.5974613086
C  C498  1  0.05320000  0.13342000  0.33520000  1.0 0.5974613086
C  C499  1  0.20178000  0.36658000  0.41978000  1.0 0.5974613086
C  C500  1  0.29822000  0.71800000  0.16480000  1.0 0.5974613086
C  C501  1  0.08022000  0.44680000  0.78200000  1.0 0.5974613086
C  C502  1  0.33520000  0.05320000  0.13342000  1.0 0.5974613086
C  C503  1  0.41978000  0.20178000  0.36658000  1.0 0.5974613086
C  C504  1  0.16480000  0.29822000  0.71800000  1.0 0.5974613086
C  C505  1  0.27837000  0.95580000  0.60835000  1.0 -0.1329495807
C  C506  1  0.84745000  0.67002000  0.89165000  1.0 -0.1329495807
C  C507  1  0.65255000  0.54420000  0.82257000  1.0 -0.1329495807
C  C508  1  0.22163000  0.82998000  0.67743000  1.0 -0.1329495807
C  C509  1  0.60835000  0.27837000  0.95580000  1.0 -0.1329495807
C  C510  1  0.89165000  0.84745000  0.67002000  1.0 -0.1329495807
C  C511  1  0.82257000  0.65255000  0.54420000  1.0 -0.1329495807
C  C512  1  0.67743000  0.22163000  0.82998000  1.0 -0.1329495807
C  C513  1  0.95580000  0.60835000  0.27837000  1.0 -0.1329495807
C  C514  1  0.67002000  0.89165000  0.84745000  1.0 -0.1329495807
C  C515  1  0.54420000  0.82257000  0.65255000  1.0 -0.1329495807
C  C516  1  0.82998000  0.67743000  0.22163000  1.0 -0.1329495807
C  C517  1  0.72163000  0.04420000  0.39165000  1.0 -0.1329495807
C  C518  1  0.15255000  0.32998000  0.10835000  1.0 -0.1329495807
C  C519  1  0.34745000  0.45580000  0.17743000  1.0 -0.1329495807
C  C520  1  0.77837000  0.17002000  0.32257000  1.0 -0.1329495807
C  C521  1  0.39165000  0.72163000  0.04420000  1.0 -0.1329495807
C  C522  1  0.10835000  0.15255000  0.32998000  1.0 -0.1329495807
C  C523  1  0.17743000  0.34745000  0.45580000  1.0 -0.1329495807
C  C524  1  0.32257000  0.77837000  0.17002000  1.0 -0.1329495807
C  C525  1  0.04420000  0.39165000  0.72163000  1.0 -0.1329495807
C  C526  1  0.32998000  0.10835000  0.15255000  1.0 -0.1329495807
C  C527  1  0.45580000  0.17743000  0.34745000  1.0 -0.1329495807
C  C528  1  0.17002000  0.32257000  0.77837000  1.0 -0.1329495807
C  C529  1  0.30808000  0.01969000  0.64171000  1.0 -0.140447492
C  C530  1  0.87798000  0.66637000  0.85829000  1.0 -0.140447492
C  C531  1  0.62202000  0.48031000  0.78839000  1.0 -0.140447492
C  C532  1  0.19192000  0.83363000  0.71161000  1.0 -0.140447492
C  C533  1  0.64171000  0.30808000  0.01969000  1.0 -0.140447492
C  C534  1  0.85829000  0.87798000  0.66637000  1.0 -0.140447492
C  C535  1  0.78839000  0.62202000  0.48031000  1.0 -0.140447492
C  C536  1  0.71161000  0.19192000  0.83363000  1.0 -0.140447492
C  C537  1  0.01969000  0.64171000  0.30808000  1.0 -0.140447492
C  C538  1  0.66637000  0.85829000  0.87798000  1.0 -0.140447492
C  C539  1  0.48031000  0.78839000  0.62202000  1.0 -0.140447492
C  C540  1  0.83363000  0.71161000  0.19192000  1.0 -0.140447492
C  C541  1  0.69192000  0.98031000  0.35829000  1.0 -0.140447492
C  C542  1  0.12202000  0.33363000  0.14171000  1.0 -0.140447492
C  C543  1  0.37798000  0.51969000  0.21161000  1.0 -0.140447492
C  C544  1  0.80808000  0.16637000  0.28839000  1.0 -0.140447492
C  C545  1  0.35829000  0.69192000  0.98031000  1.0 -0.140447492
C  C546  1  0.14171000  0.12202000  0.33363000  1.0 -0.140447492
C  C547  1  0.21161000  0.37798000  0.51969000  1.0 -0.140447492
C  C548  1  0.28839000  0.80808000  0.16637000  1.0 -0.140447492
C  C549  1  0.98031000  0.35829000  0.69192000  1.0 -0.140447492
C  C550  1  0.33363000  0.14171000  0.12202000  1.0 -0.140447492
C  C551  1  0.51969000  0.21161000  0.37798000  1.0 -0.140447492
C  C552  1  0.16637000  0.28839000  0.80808000  1.0 -0.140447492
C  C553  1  0.30754000  0.98824000  0.63770000  1.0 0.070447032
C  C554  1  0.85054000  0.66984000  0.86230000  1.0 0.070447032
C  C555  1  0.64946000  0.51176000  0.81930000  1.0 0.070447032
C  C556  1  0.19246000  0.83016000  0.68070000  1.0 0.070447032
C  C557  1  0.63770000  0.30754000  0.98824000  1.0 0.070447032
C  C558  1  0.86230000  0.85054000  0.66984000  1.0 0.070447032
C  C559  1  0.81930000  0.64946000  0.51176000  1.0 0.070447032
C  C560  1  0.68070000  0.19246000  0.83016000  1.0 0.070447032
C  C561  1  0.98824000  0.63770000  0.30754000  1.0 0.070447032
C  C562  1  0.66984000  0.86230000  0.85054000  1.0 0.070447032
C  C563  1  0.51176000  0.81930000  0.64946000  1.0 0.070447032
C  C564  1  0.83016000  0.68070000  0.19246000  1.0 0.070447032
C  C565  1  0.69246000  0.01176000  0.36230000  1.0 0.070447032
C  C566  1  0.14946000  0.33016000  0.13770000  1.0 0.070447032
C  C567  1  0.35054000  0.48824000  0.18070000  1.0 0.070447032
C  C568  1  0.80754000  0.16984000  0.31930000  1.0 0.070447032
C  C569  1  0.36230000  0.69246000  0.01176000  1.0 0.070447032
C  C570  1  0.13770000  0.14946000  0.33016000  1.0 0.070447032
C  C571  1  0.18070000  0.35054000  0.48824000  1.0 0.070447032
C  C572  1  0.31930000  0.80754000  0.16984000  1.0 0.070447032
C  C573  1  0.01176000  0.36230000  0.69246000  1.0 0.070447032
C  C574  1  0.33016000  0.13770000  0.14946000  1.0 0.070447032
C  C575  1  0.48824000  0.18070000  0.35054000  1.0 0.070447032
C  C576  1  0.16984000  0.31930000  0.80754000  1.0 0.070447032
C  C577  1  0.33813000  0.98841000  0.66490000  1.0 0.077840657
C  C578  1  0.82351000  0.67323000  0.83510000  1.0 0.077840657
C  C579  1  0.67649000  0.51159000  0.84972000  1.0 0.077840657
C  C580  1  0.16187000  0.82677000  0.65028000  1.0 0.077840657
C  C581  1  0.66490000  0.33813000  0.98841000  1.0 0.077840657
C  C582  1  0.83510000  0.82351000  0.67323000  1.0 0.077840657
C  C583  1  0.84972000  0.67649000  0.51159000  1.0 0.077840657
C  C584  1  0.65028000  0.16187000  0.82677000  1.0 0.077840657
C  C585  1  0.98841000  0.66490000  0.33813000  1.0 0.077840657
C  C586  1  0.67323000  0.83510000  0.82351000  1.0 0.077840657
C  C587  1  0.51159000  0.84972000  0.67649000  1.0 0.077840657
C  C588  1  0.82677000  0.65028000  0.16187000  1.0 0.077840657
C  C589  1  0.66187000  0.01159000  0.33510000  1.0 0.077840657
C  C590  1  0.17649000  0.32677000  0.16490000  1.0 0.077840657
C  C591  1  0.32351000  0.48841000  0.15028000  1.0 0.077840657
C  C592  1  0.83813000  0.17323000  0.34972000  1.0 0.077840657
C  C593  1  0.33510000  0.66187000  0.01159000  1.0 0.077840657
C  C594  1  0.16490000  0.17649000  0.32677000  1.0 0.077840657
C  C595  1  0.15028000  0.32351000  0.48841000  1.0 0.077840657
C  C596  1  0.34972000  0.83813000  0.17323000  1.0 0.077840657
C  C597  1  0.01159000  0.33510000  0.66187000  1.0 0.077840657
C  C598  1  0.32677000  0.16490000  0.17649000  1.0 0.077840657
C  C599  1  0.48841000  0.15028000  0.32351000  1.0 0.077840657
C  C600  1  0.17323000  0.34972000  0.83813000  1.0 0.077840657
C  C601  1  0.33795000  0.95674000  0.66079000  1.0 -0.140447492
C  C602  1  0.79595000  0.67716000  0.83921000  1.0 -0.140447492
C  C603  1  0.70405000  0.54326000  0.88121000  1.0 -0.140447492
C  C604  1  0.16205000  0.82284000  0.61879000  1.0 -0.140447492
C  C605  1  0.66079000  0.33795000  0.95674000  1.0 -0.140447492
C  C606  1  0.83921000  0.79595000  0.67716000  1.0 -0.140447492
C  C607  1  0.88121000  0.70405000  0.54326000  1.0 -0.140447492
C  C608  1  0.61879000  0.16205000  0.82284000  1.0 -0.140447492
C  C609  1  0.95674000  0.66079000  0.33795000  1.0 -0.140447492
C  C610  1  0.67716000  0.83921000  0.79595000  1.0 -0.140447492
C  C611  1  0.54326000  0.88121000  0.70405000  1.0 -0.140447492
C  C612  1  0.82284000  0.61879000  0.16205000  1.0 -0.140447492
C  C613  1  0.66205000  0.04326000  0.33921000  1.0 -0.140447492
C  C614  1  0.20405000  0.32284000  0.16079000  1.0 -0.140447492
C  C615  1  0.29595000  0.45674000  0.11879000  1.0 -0.140447492
C  C616  1  0.83795000  0.17716000  0.38121000  1.0 -0.140447492
C  C617  1  0.33921000  0.66205000  0.04326000  1.0 -0.140447492
C  C618  1  0.16079000  0.20405000  0.32284000  1.0 -0.140447492
C  C619  1  0.11879000  0.29595000  0.45674000  1.0 -0.140447492
C  C620  1  0.38121000  0.83795000  0.17716000  1.0 -0.140447492
C  C621  1  0.04326000  0.33921000  0.66205000  1.0 -0.140447492
C  C622  1  0.32284000  0.16079000  0.20405000  1.0 -0.140447492
C  C623  1  0.45674000  0.11879000  0.29595000  1.0 -0.140447492
C  C624  1  0.17716000  0.38121000  0.83795000  1.0 -0.140447492
C  C625  1  0.36631000  0.95706000  0.68563000  1.0 -0.0314872275
C  C626  1  0.77143000  0.68068000  0.81437000  1.0 -0.0314872275
C  C627  1  0.72857000  0.54294000  0.90925000  1.0 -0.0314872275
C  C628  1  0.13369000  0.81932000  0.59075000  1.0 -0.0314872275
C  C629  1  0.68563000  0.36631000  0.95706000  1.0 -0.0314872275
C  C630  1  0.81437000  0.77143000  0.68068000  1.0 -0.0314872275
C  C631  1  0.90925000  0.72857000  0.54294000  1.0 -0.0314872275
C  C632  1  0.59075000  0.13369000  0.81932000  1.0 -0.0314872275
C  C633  1  0.95706000  0.68563000  0.36631000  1.0 -0.0314872275
C  C634  1  0.68068000  0.81437000  0.77143000  1.0 -0.0314872275
C  C635  1  0.54294000  0.90925000  0.72857000  1.0 -0.0314872275
C  C636  1  0.81932000  0.59075000  0.13369000  1.0 -0.0314872275
C  C637  1  0.63369000  0.04294000  0.31437000  1.0 -0.0314872275
C  C638  1  0.22857000  0.31932000  0.18563000  1.0 -0.0314872275
C  C639  1  0.27143000  0.45706000  0.09075000  1.0 -0.0314872275
C  C640  1  0.86631000  0.18068000  0.40925000  1.0 -0.0314872275
C  C641  1  0.31437000  0.63369000  0.04294000  1.0 -0.0314872275
C  C642  1  0.18563000  0.22857000  0.31932000  1.0 -0.0314872275
C  C643  1  0.09075000  0.27143000  0.45706000  1.0 -0.0314872275
C  C644  1  0.40925000  0.86631000  0.18068000  1.0 -0.0314872275
C  C645  1  0.04294000  0.31437000  0.63369000  1.0 -0.0314872275
C  C646  1  0.31932000  0.18563000  0.22857000  1.0 -0.0314872275
C  C647  1  0.45706000  0.09075000  0.27143000  1.0 -0.0314872275
C  C648  1  0.18068000  0.40925000  0.86631000  1.0 -0.0314872275
C  C649  1  0.39509000  0.98927000  0.71496000  1.0 -0.1191398357
C  C650  1  0.77431000  0.68013000  0.78504000  1.0 -0.1191398357
C  C651  1  0.72569000  0.51073000  0.90582000  1.0 -0.1191398357
C  C652  1  0.10491000  0.81987000  0.59418000  1.0 -0.1191398357
C  C653  1  0.71496000  0.39509000  0.98927000  1.0 -0.1191398357
C  C654  1  0.78504000  0.77431000  0.68013000  1.0 -0.1191398357
C  C655  1  0.90582000  0.72569000  0.51073000  1.0 -0.1191398357
C  C656  1  0.59418000  0.10491000  0.81987000  1.0 -0.1191398357
C  C657  1  0.98927000  0.71496000  0.39509000  1.0 -0.1191398357
C  C658  1  0.68013000  0.78504000  0.77431000  1.0 -0.1191398357
C  C659  1  0.51073000  0.90582000  0.72569000  1.0 -0.1191398357
C  C660  1  0.81987000  0.59418000  0.10491000  1.0 -0.1191398357
C  C661  1  0.60491000  0.01073000  0.28504000  1.0 -0.1191398357
C  C662  1  0.22569000  0.31987000  0.21496000  1.0 -0.1191398357
C  C663  1  0.27431000  0.48927000  0.09418000  1.0 -0.1191398357
C  C664  1  0.89509000  0.18013000  0.40582000  1.0 -0.1191398357
C  C665  1  0.28504000  0.60491000  0.01073000  1.0 -0.1191398357
C  C666  1  0.21496000  0.22569000  0.31987000  1.0 -0.1191398357
C  C667  1  0.09418000  0.27431000  0.48927000  1.0 -0.1191398357
C  C668  1  0.40582000  0.89509000  0.18013000  1.0 -0.1191398357
C  C669  1  0.01073000  0.28504000  0.60491000  1.0 -0.1191398357
C  C670  1  0.31987000  0.21496000  0.22569000  1.0 -0.1191398357
C  C671  1  0.48927000  0.09418000  0.27431000  1.0 -0.1191398357
C  C672  1  0.18013000  0.40582000  0.89509000  1.0 -0.1191398357
C  C673  1  0.39451000  0.02060000  0.72031000  1.0 -0.0362442387
C  C674  1  0.80029000  0.67420000  0.77969000  1.0 -0.0362442387
C  C675  1  0.69971000  0.47940000  0.87391000  1.0 -0.0362442387
C  C676  1  0.10549000  0.82580000  0.62609000  1.0 -0.0362442387
C  C677  1  0.72031000  0.39451000  0.02060000  1.0 -0.0362442387
C  C678  1  0.77969000  0.80029000  0.67420000  1.0 -0.0362442387
C  C679  1  0.87391000  0.69971000  0.47940000  1.0 -0.0362442387
C  C680  1  0.62609000  0.10549000  0.82580000  1.0 -0.0362442387
C  C681  1  0.02060000  0.72031000  0.39451000  1.0 -0.0362442387
C  C682  1  0.67420000  0.77969000  0.80029000  1.0 -0.0362442387
C  C683  1  0.47940000  0.87391000  0.69971000  1.0 -0.0362442387
C  C684  1  0.82580000  0.62609000  0.10549000  1.0 -0.0362442387
C  C685  1  0.60549000  0.97940000  0.27969000  1.0 -0.0362442387
C  C686  1  0.19971000  0.32580000  0.22031000  1.0 -0.0362442387
C  C687  1  0.30029000  0.52060000  0.12609000  1.0 -0.0362442387
C  C688  1  0.89451000  0.17420000  0.37391000  1.0 -0.0362442387
C  C689  1  0.27969000  0.60549000  0.97940000  1.0 -0.0362442387
C  C690  1  0.22031000  0.19971000  0.32580000  1.0 -0.0362442387
C  C691  1  0.12609000  0.30029000  0.52060000  1.0 -0.0362442387
C  C692  1  0.37391000  0.89451000  0.17420000  1.0 -0.0362442387
C  C693  1  0.97940000  0.27969000  0.60549000  1.0 -0.0362442387
C  C694  1  0.32580000  0.22031000  0.19971000  1.0 -0.0362442387
C  C695  1  0.52060000  0.12609000  0.30029000  1.0 -0.0362442387
C  C696  1  0.17420000  0.37391000  0.89451000  1.0 -0.0362442387
C  C697  1  0.42320000  0.05480000  0.75400000  1.0 0.5933710841
C  C698  1  0.80080000  0.66920000  0.74600000  1.0 0.5933710841
C  C699  1  0.69920000  0.44520000  0.86840000  1.0 0.5933710841
C  C700  1  0.07680000  0.83080000  0.63160000  1.0 0.5933710841
C  C701  1  0.75400000  0.42320000  0.05480000  1.0 0.5933710841
C  C702  1  0.74600000  0.80080000  0.66920000  1.0 0.5933710841
C  C703  1  0.86840000  0.69920000  0.44520000  1.0 0.5933710841
C  C704  1  0.63160000  0.07680000  0.83080000  1.0 0.5933710841
C  C705  1  0.05480000  0.75400000  0.42320000  1.0 0.5933710841
C  C706  1  0.66920000  0.74600000  0.80080000  1.0 0.5933710841
C  C707  1  0.44520000  0.86840000  0.69920000  1.0 0.5933710841
C  C708  1  0.83080000  0.63160000  0.07680000  1.0 0.5933710841
C  C709  1  0.57680000  0.94520000  0.24600000  1.0 0.5933710841
C  C710  1  0.19920000  0.33080000  0.25400000  1.0 0.5933710841
C  C711  1  0.30080000  0.55480000  0.13160000  1.0 0.5933710841
C  C712  1  0.92320000  0.16920000  0.36840000  1.0 0.5933710841
C  C713  1  0.24600000  0.57680000  0.94520000  1.0 0.5933710841
C  C714  1  0.25400000  0.19920000  0.33080000  1.0 0.5933710841
C  C715  1  0.13160000  0.30080000  0.55480000  1.0 0.5933710841
C  C716  1  0.36840000  0.92320000  0.16920000  1.0 0.5933710841
C  C717  1  0.94520000  0.24600000  0.57680000  1.0 0.5933710841
C  C718  1  0.33080000  0.25400000  0.19920000  1.0 0.5933710841
C  C719  1  0.55480000  0.13160000  0.30080000  1.0 0.5933710841
C  C720  1  0.16920000  0.36840000  0.92320000  1.0 0.5933710841
C  C721  1  0.36654000  0.02000000  0.69594000  1.0 -0.140447492
C  C722  1  0.82406000  0.67060000  0.80406000  1.0 -0.140447492
C  C723  1  0.67594000  0.48000000  0.84654000  1.0 -0.140447492
C  C724  1  0.13346000  0.82940000  0.65346000  1.0 -0.140447492
C  C725  1  0.69594000  0.36654000  0.02000000  1.0 -0.140447492
C  C726  1  0.80406000  0.82406000  0.67060000  1.0 -0.140447492
C  C727  1  0.84654000  0.67594000  0.48000000  1.0 -0.140447492
C  C728  1  0.65346000  0.13346000  0.82940000  1.0 -0.140447492
C  C729  1  0.02000000  0.69594000  0.36654000  1.0 -0.140447492
C  C730  1  0.67060000  0.80406000  0.82406000  1.0 -0.140447492
C  C731  1  0.48000000  0.84654000  0.67594000  1.0 -0.140447492
C  C732  1  0.82940000  0.65346000  0.13346000  1.0 -0.140447492
C  C733  1  0.63346000  0.98000000  0.30406000  1.0 -0.140447492
C  C734  1  0.17594000  0.32940000  0.19594000  1.0 -0.140447492
C  C735  1  0.32406000  0.52000000  0.15346000  1.0 -0.140447492
C  C736  1  0.86654000  0.17060000  0.34654000  1.0 -0.140447492
C  C737  1  0.30406000  0.63346000  0.98000000  1.0 -0.140447492
C  C738  1  0.19594000  0.17594000  0.32940000  1.0 -0.140447492
C  C739  1  0.15346000  0.32406000  0.52000000  1.0 -0.140447492
C  C740  1  0.34654000  0.86654000  0.17060000  1.0 -0.140447492
C  C741  1  0.98000000  0.30406000  0.63346000  1.0 -0.140447492
C  C742  1  0.32940000  0.19594000  0.17594000  1.0 -0.140447492
C  C743  1  0.52000000  0.15346000  0.32406000  1.0 -0.140447492
C  C744  1  0.17060000  0.34654000  0.86654000  1.0 -0.140447492
C  C745  1  0.30150000  0.13220000  0.57170000  1.0 0.5933710841
C  C746  1  0.06050000  0.72980000  0.92830000  1.0 0.5974613086
C  C747  1  0.43950000  0.36780000  0.66930000  1.0 0.5974613086
C  C748  1  0.19850000  0.77020000  0.83070000  1.0 0.5974613086
C  C749  1  0.57170000  0.30150000  0.13220000  1.0 0.5974613086
C  C750  1  0.92830000  0.06050000  0.72980000  1.0 0.5974613086
C  C751  1  0.66930000  0.43950000  0.36780000  1.0 0.5974613086
C  C752  1  0.83070000  0.19850000  0.77020000  1.0 0.5974613086
C  C753  1  0.13220000  0.57170000  0.30150000  1.0 0.5933710841
C  C754  1  0.72980000  0.92830000  0.06050000  1.0 0.5974613086
C  C755  1  0.36780000  0.66930000  0.43950000  1.0 0.5933710841
C  C756  1  0.77020000  0.83070000  0.19850000  1.0 0.5974613086
C  C757  1  0.69850000  0.86780000  0.42830000  1.0 0.5974613086
C  C758  1  0.93950000  0.27020000  0.07170000  1.0 0.5974613086
C  C759  1  0.56050000  0.63220000  0.33070000  1.0 0.5974613086
C  C760  1  0.80150000  0.22980000  0.16930000  1.0 0.5974613086
C  C761  1  0.42830000  0.69850000  0.86780000  1.0 0.5933710841
C  C762  1  0.07170000  0.93950000  0.27020000  1.0 0.5974613086
C  C763  1  0.33070000  0.56050000  0.63220000  1.0 0.5974613086
C  C764  1  0.16930000  0.80150000  0.22980000  1.0 0.5933710841
C  C765  1  0.86780000  0.42830000  0.69850000  1.0 0.5933710841
C  C766  1  0.27020000  0.07170000  0.93950000  1.0 0.5933710841
C  C767  1  0.63220000  0.33070000  0.56050000  1.0 0.5933710841
C  C768  1  0.22980000  0.16930000  0.80150000  1.0 0.5933710841
C  C769  1  0.29840000  0.12820000  0.53640000  1.0 -0.0076244339
C  C770  1  0.09180000  0.76200000  0.96360000  1.0 -0.0076244339
C  C771  1  0.40820000  0.37180000  0.67020000  1.0 -0.0076244339
C  C772  1  0.20160000  0.73800000  0.82980000  1.0 -0.0076244339
C  C773  1  0.53640000  0.29840000  0.12820000  1.0 -0.0076244339
C  C774  1  0.96360000  0.09180000  0.76200000  1.0 -0.0076244339
C  C775  1  0.67020000  0.40820000  0.37180000  1.0 -0.0076244339
C  C776  1  0.82980000  0.20160000  0.73800000  1.0 -0.0076244339
C  C777  1  0.12820000  0.53640000  0.29840000  1.0 -0.0076244339
C  C778  1  0.76200000  0.96360000  0.09180000  1.0 -0.0076244339
C  C779  1  0.37180000  0.67020000  0.40820000  1.0 -0.0076244339
C  C780  1  0.73800000  0.82980000  0.20160000  1.0 -0.0076244339
C  C781  1  0.70160000  0.87180000  0.46360000  1.0 -0.0076244339
C  C782  1  0.90820000  0.23800000  0.03640000  1.0 -0.0076244339
C  C783  1  0.59180000  0.62820000  0.32980000  1.0 -0.0076244339
C  C784  1  0.79840000  0.26200000  0.17020000  1.0 -0.0076244339
C  C785  1  0.46360000  0.70160000  0.87180000  1.0 -0.0076244339
C  C786  1  0.03640000  0.90820000  0.23800000  1.0 -0.0076244339
C  C787  1  0.32980000  0.59180000  0.62820000  1.0 -0.0076244339
C  C788  1  0.17020000  0.79840000  0.26200000  1.0 -0.0076244339
C  C789  1  0.87180000  0.46360000  0.70160000  1.0 -0.0076244339
C  C790  1  0.23800000  0.03640000  0.90820000  1.0 -0.0076244339
C  C791  1  0.62820000  0.32980000  0.59180000  1.0 -0.0076244339
C  C792  1  0.26200000  0.17020000  0.79840000  1.0 -0.0076244339
C  C793  1  0.26812000  0.09902000  0.50470000  1.0 -0.1110290727
C  C794  1  0.09432000  0.76342000  0.99530000  1.0 -0.1110290727
C  C795  1  0.40568000  0.40098000  0.66910000  1.0 -0.1110290727
C  C796  1  0.23188000  0.73658000  0.83090000  1.0 -0.1110290727
C  C797  1  0.50470000  0.26812000  0.09902000  1.0 -0.1110290727
C  C798  1  0.99530000  0.09432000  0.76342000  1.0 -0.1110290727
C  C799  1  0.66910000  0.40568000  0.40098000  1.0 -0.1110290727
C  C800  1  0.83090000  0.23188000  0.73658000  1.0 -0.1110290727
C  C801  1  0.09902000  0.50470000  0.26812000  1.0 -0.1110290727
C  C802  1  0.76342000  0.99530000  0.09432000  1.0 -0.1110290727
C  C803  1  0.40098000  0.66910000  0.40568000  1.0 -0.1110290727
C  C804  1  0.73658000  0.83090000  0.23188000  1.0 -0.1110290727
C  C805  1  0.73188000  0.90098000  0.49530000  1.0 -0.1110290727
C  C806  1  0.90568000  0.23658000  0.00470000  1.0 -0.1110290727
C  C807  1  0.59432000  0.59902000  0.33090000  1.0 -0.1110290727
C  C808  1  0.76812000  0.26342000  0.16910000  1.0 -0.1110290727
C  C809  1  0.49530000  0.73188000  0.90098000  1.0 -0.1110290727
C  C810  1  0.00470000  0.90568000  0.23658000  1.0 -0.1110290727
C  C811  1  0.33090000  0.59432000  0.59902000  1.0 -0.1110290727
C  C812  1  0.16910000  0.76812000  0.26342000  1.0 -0.1110290727
C  C813  1  0.90098000  0.49530000  0.73188000  1.0 -0.1110290727
C  C814  1  0.23658000  0.00470000  0.90568000  1.0 -0.1110290727
C  C815  1  0.59902000  0.33090000  0.59432000  1.0 -0.1110290727
C  C816  1  0.26342000  0.16910000  0.76812000  1.0 -0.1110290727
C  C817  1  0.26283000  0.09833000  0.47250000  1.0 -0.0076244339
C  C818  1  0.12583000  0.79033000  0.02750000  1.0 -0.0076244339
C  C819  1  0.37417000  0.40167000  0.66450000  1.0 -0.0076244339
C  C820  1  0.23717000  0.70967000  0.83550000  1.0 -0.0076244339
C  C821  1  0.47250000  0.26283000  0.09833000  1.0 -0.0076244339
C  C822  1  0.02750000  0.12583000  0.79033000  1.0 -0.0076244339
C  C823  1  0.66450000  0.37417000  0.40167000  1.0 -0.0076244339
C  C824  1  0.83550000  0.23717000  0.70967000  1.0 -0.0076244339
C  C825  1  0.09833000  0.47250000  0.26283000  1.0 -0.0076244339
C  C826  1  0.79033000  0.02750000  0.12583000  1.0 -0.0076244339
C  C827  1  0.40167000  0.66450000  0.37417000  1.0 -0.0076244339
C  C828  1  0.70967000  0.83550000  0.23717000  1.0 -0.0076244339
C  C829  1  0.73717000  0.90167000  0.52750000  1.0 -0.0076244339
C  C830  1  0.87417000  0.20967000  0.97250000  1.0 -0.0076244339
C  C831  1  0.62583000  0.59833000  0.33550000  1.0 -0.0076244339
C  C832  1  0.76283000  0.29033000  0.16450000  1.0 -0.0076244339
C  C833  1  0.52750000  0.73717000  0.90167000  1.0 -0.0076244339
C  C834  1  0.97250000  0.87417000  0.20967000  1.0 -0.0076244339
C  C835  1  0.33550000  0.62583000  0.59833000  1.0 -0.0076244339
C  C836  1  0.16450000  0.76283000  0.29033000  1.0 -0.0076244339
C  C837  1  0.90167000  0.52750000  0.73717000  1.0 -0.0076244339
C  C838  1  0.20967000  0.97250000  0.87417000  1.0 -0.0076244339
C  C839  1  0.59833000  0.33550000  0.62583000  1.0 -0.0076244339
C  C840  1  0.29033000  0.16450000  0.76283000  1.0 -0.0076244339
C  C841  1  0.22865000  0.06965000  0.43800000  1.0 0.5816594079
C  C842  1  0.13165000  0.79065000  0.06200000  1.0 0.5816594079
C  C843  1  0.36835000  0.43035000  0.65900000  1.0 0.5816594079
C  C844  1  0.27135000  0.70935000  0.84100000  1.0 0.5816594079
C  C845  1  0.43800000  0.22865000  0.06965000  1.0 0.5816594079
C  C846  1  0.06200000  0.13165000  0.79065000  1.0 0.5816594079
C  C847  1  0.65900000  0.36835000  0.43035000  1.0 0.5816594079
C  C848  1  0.84100000  0.27135000  0.70935000  1.0 0.5816594079
C  C849  1  0.06965000  0.43800000  0.22865000  1.0 0.5816594079
C  C850  1  0.79065000  0.06200000  0.13165000  1.0 0.5816594079
C  C851  1  0.43035000  0.65900000  0.36835000  1.0 0.5816594079
C  C852  1  0.70935000  0.84100000  0.27135000  1.0 0.5816594079
C  C853  1  0.77135000  0.93035000  0.56200000  1.0 0.5816594079
C  C854  1  0.86835000  0.20935000  0.93800000  1.0 0.5816594079
C  C855  1  0.63165000  0.56965000  0.34100000  1.0 0.5816594079
C  C856  1  0.72865000  0.29065000  0.15900000  1.0 0.5816594079
C  C857  1  0.56200000  0.77135000  0.93035000  1.0 0.5816594079
C  C858  1  0.93800000  0.86835000  0.20935000  1.0 0.5816594079
C  C859  1  0.34100000  0.63165000  0.56965000  1.0 0.5816594079
C  C860  1  0.15900000  0.72865000  0.29065000  1.0 0.5816594079
C  C861  1  0.93035000  0.56200000  0.77135000  1.0 0.5816594079
C  C862  1  0.20935000  0.93800000  0.86835000  1.0 0.5816594079
C  C863  1  0.56965000  0.34100000  0.63165000  1.0 0.5816594079
C  C864  1  0.29065000  0.15900000  0.72865000  1.0 0.5816594079
C  C865  1  0.28885000  0.12585000  0.47280000  1.0 -0.140447492
C  C866  1  0.15305000  0.81605000  0.02720000  1.0 -0.140447492
C  C867  1  0.34695000  0.37415000  0.66300000  1.0 -0.140447492
C  C868  1  0.21115000  0.68395000  0.83700000  1.0 -0.140447492
C  C869  1  0.47280000  0.28885000  0.12585000  1.0 -0.140447492
C  C870  1  0.02720000  0.15305000  0.81605000  1.0 -0.140447492
C  C871  1  0.66300000  0.34695000  0.37415000  1.0 -0.140447492
C  C872  1  0.83700000  0.21115000  0.68395000  1.0 -0.140447492
C  C873  1  0.12585000  0.47280000  0.28885000  1.0 -0.140447492
C  C874  1  0.81605000  0.02720000  0.15305000  1.0 -0.140447492
C  C875  1  0.37415000  0.66300000  0.34695000  1.0 -0.140447492
C  C876  1  0.68395000  0.83700000  0.21115000  1.0 -0.140447492
C  C877  1  0.71115000  0.87415000  0.52720000  1.0 -0.140447492
C  C878  1  0.84695000  0.18395000  0.97280000  1.0 -0.140447492
C  C879  1  0.65305000  0.62585000  0.33700000  1.0 -0.140447492
C  C880  1  0.78885000  0.31605000  0.16300000  1.0 -0.140447492
C  C881  1  0.52720000  0.71115000  0.87415000  1.0 -0.140447492
C  C882  1  0.97280000  0.84695000  0.18395000  1.0 -0.140447492
C  C883  1  0.33700000  0.65305000  0.62585000  1.0 -0.140447492
C  C884  1  0.16300000  0.78885000  0.31605000  1.0 -0.140447492
C  C885  1  0.87415000  0.52720000  0.71115000  1.0 -0.140447492
C  C886  1  0.18395000  0.97280000  0.84695000  1.0 -0.140447492
C  C887  1  0.62585000  0.33700000  0.65305000  1.0 -0.140447492
C  C888  1  0.31605000  0.16300000  0.78885000  1.0 -0.140447492
C  C889  1  0.32400000  0.15562000  0.53598000  1.0 -0.140447492
C  C890  1  0.11964000  0.78802000  0.96402000  1.0 -0.140447492
C  C891  1  0.38036000  0.34438000  0.66838000  1.0 -0.140447492
C  C892  1  0.17600000  0.71198000  0.83162000  1.0 -0.140447492
C  C893  1  0.53598000  0.32400000  0.15562000  1.0 -0.140447492
C  C894  1  0.96402000  0.11964000  0.78802000  1.0 -0.140447492
C  C895  1  0.66838000  0.38036000  0.34438000  1.0 -0.140447492
C  C896  1  0.83162000  0.17600000  0.71198000  1.0 -0.140447492
C  C897  1  0.15562000  0.53598000  0.32400000  1.0 -0.140447492
C  C898  1  0.78802000  0.96402000  0.11964000  1.0 -0.140447492
C  C899  1  0.34438000  0.66838000  0.38036000  1.0 -0.140447492
C  C900  1  0.71198000  0.83162000  0.17600000  1.0 -0.140447492
C  C901  1  0.67600000  0.84438000  0.46402000  1.0 -0.140447492
C  C902  1  0.88036000  0.21198000  0.03598000  1.0 -0.140447492
C  C903  1  0.61964000  0.65562000  0.33162000  1.0 -0.140447492
C  C904  1  0.82400000  0.28802000  0.16838000  1.0 -0.140447492
C  C905  1  0.46402000  0.67600000  0.84438000  1.0 -0.140447492
C  C906  1  0.03598000  0.88036000  0.21198000  1.0 -0.140447492
C  C907  1  0.33162000  0.61964000  0.65562000  1.0 -0.140447492
C  C908  1  0.16838000  0.82400000  0.28802000  1.0 -0.140447492
C  C909  1  0.84438000  0.46402000  0.67600000  1.0 -0.140447492
C  C910  1  0.21198000  0.03598000  0.88036000  1.0 -0.140447492
C  C911  1  0.65562000  0.33162000  0.61964000  1.0 -0.140447492
C  C912  1  0.28802000  0.16838000  0.82400000  1.0 -0.140447492
C  C913  1  0.31996000  0.15415000  0.50421000  1.0 0.070447032
C  C914  1  0.14994000  0.81575000  0.99579000  1.0 0.070447032
C  C915  1  0.35006000  0.34585000  0.66581000  1.0 0.070447032
C  C916  1  0.18004000  0.68425000  0.83419000  1.0 0.070447032
C  C917  1  0.50421000  0.31996000  0.15415000  1.0 0.070447032
C  C918  1  0.99579000  0.14994000  0.81575000  1.0 0.070447032
C  C919  1  0.66581000  0.35006000  0.34585000  1.0 0.070447032
C  C920  1  0.83419000  0.18004000  0.68425000  1.0 0.070447032
C  C921  1  0.15415000  0.50421000  0.31996000  1.0 0.070447032
C  C922  1  0.81575000  0.99579000  0.14994000  1.0 0.070447032
C  C923  1  0.34585000  0.66581000  0.35006000  1.0 0.070447032
C  C924  1  0.68425000  0.83419000  0.18004000  1.0 0.070447032
C  C925  1  0.68004000  0.84585000  0.49579000  1.0 0.070447032
C  C926  1  0.85006000  0.18425000  0.00421000  1.0 0.070447032
C  C927  1  0.64994000  0.65415000  0.33419000  1.0 0.070447032
C  C928  1  0.81996000  0.31575000  0.16581000  1.0 0.070447032
C  C929  1  0.49579000  0.68004000  0.84585000  1.0 0.070447032
C  C930  1  0.00421000  0.85006000  0.18425000  1.0 0.070447032
C  C931  1  0.33419000  0.64994000  0.65415000  1.0 0.070447032
C  C932  1  0.16581000  0.81996000  0.31575000  1.0 0.070447032
C  C933  1  0.84585000  0.49579000  0.68004000  1.0 0.070447032
C  C934  1  0.18425000  0.00421000  0.85006000  1.0 0.070447032
C  C935  1  0.65415000  0.33419000  0.64994000  1.0 0.070447032
C  C936  1  0.31575000  0.16581000  0.81996000  1.0 0.070447032
C  C937  1  0.34732000  0.18346000  0.50326000  1.0 0.077840657
C  C938  1  0.18020000  0.84406000  0.99674000  1.0 0.077840657
C  C939  1  0.31980000  0.31654000  0.66386000  1.0 0.077840657
C  C940  1  0.15268000  0.65594000  0.83614000  1.0 0.077840657
C  C941  1  0.50326000  0.34732000  0.18346000  1.0 0.077840657
C  C942  1  0.99674000  0.18020000  0.84406000  1.0 0.077840657
C  C943  1  0.66386000  0.31980000  0.31654000  1.0 0.077840657
C  C944  1  0.83614000  0.15268000  0.65594000  1.0 0.077840657
C  C945  1  0.18346000  0.50326000  0.34732000  1.0 0.077840657
C  C946  1  0.84406000  0.99674000  0.18020000  1.0 0.077840657
C  C947  1  0.31654000  0.66386000  0.31980000  1.0 0.077840657
C  C948  1  0.65594000  0.83614000  0.15268000  1.0 0.077840657
C  C949  1  0.65268000  0.81654000  0.49674000  1.0 0.077840657
C  C950  1  0.81980000  0.15594000  0.00326000  1.0 0.077840657
C  C951  1  0.68020000  0.68346000  0.33614000  1.0 0.077840657
C  C952  1  0.84732000  0.34406000  0.16386000  1.0 0.077840657
C  C953  1  0.49674000  0.65268000  0.81654000  1.0 0.077840657
C  C954  1  0.00326000  0.81980000  0.15594000  1.0 0.077840657
C  C955  1  0.33614000  0.68020000  0.68346000  1.0 0.077840657
C  C956  1  0.16386000  0.84732000  0.34406000  1.0 0.077840657
C  C957  1  0.81654000  0.49674000  0.65268000  1.0 0.077840657
C  C958  1  0.15594000  0.00326000  0.81980000  1.0 0.077840657
C  C959  1  0.68346000  0.33614000  0.68020000  1.0 0.077840657
C  C960  1  0.34406000  0.16386000  0.84732000  1.0 0.077840657
C  C961  1  0.37857000  0.21258000  0.53445000  1.0 -0.1329495807
C  C962  1  0.17813000  0.84412000  0.96555000  1.0 -0.1329495807
C  C963  1  0.32187000  0.28742000  0.66599000  1.0 -0.1329495807
C  C964  1  0.12143000  0.65588000  0.83401000  1.0 -0.1329495807
C  C965  1  0.53445000  0.37857000  0.21258000  1.0 -0.1329495807
C  C966  1  0.96555000  0.17813000  0.84412000  1.0 -0.1329495807
C  C967  1  0.66599000  0.32187000  0.28742000  1.0 -0.1329495807
C  C968  1  0.83401000  0.12143000  0.65588000  1.0 -0.1329495807
C  C969  1  0.21258000  0.53445000  0.37857000  1.0 -0.1329495807
C  C970  1  0.84412000  0.96555000  0.17813000  1.0 -0.1329495807
C  C971  1  0.28742000  0.66599000  0.32187000  1.0 -0.1329495807
C  C972  1  0.65588000  0.83401000  0.12143000  1.0 -0.1329495807
C  C973  1  0.62143000  0.78742000  0.46555000  1.0 -0.1329495807
C  C974  1  0.82187000  0.15588000  0.03445000  1.0 -0.1329495807
C  C975  1  0.67813000  0.71258000  0.33401000  1.0 -0.1329495807
C  C976  1  0.87857000  0.34412000  0.16599000  1.0 -0.1329495807
C  C977  1  0.46555000  0.62143000  0.78742000  1.0 -0.1329495807
C  C978  1  0.03445000  0.82187000  0.15588000  1.0 -0.1329495807
C  C979  1  0.33401000  0.67813000  0.71258000  1.0 -0.1329495807
C  C980  1  0.16599000  0.87857000  0.34412000  1.0 -0.1329495807
C  C981  1  0.78742000  0.46555000  0.62143000  1.0 -0.1329495807
C  C982  1  0.15588000  0.03445000  0.82187000  1.0 -0.1329495807
C  C983  1  0.71258000  0.33401000  0.67813000  1.0 -0.1329495807
C  C984  1  0.34412000  0.16599000  0.87857000  1.0 -0.1329495807
C  C985  1  0.40348000  0.23936000  0.53356000  1.0 -0.0314872275
C  C986  1  0.20580000  0.86992000  0.96644000  1.0 -0.0314872275
C  C987  1  0.29420000  0.26064000  0.66412000  1.0 -0.0314872275
C  C988  1  0.09652000  0.63008000  0.83588000  1.0 -0.0314872275
C  C989  1  0.53356000  0.40348000  0.23936000  1.0 -0.0314872275
C  C990  1  0.96644000  0.20580000  0.86992000  1.0 -0.0314872275
C  C991  1  0.66412000  0.29420000  0.26064000  1.0 -0.0314872275
C  C992  1  0.83588000  0.09652000  0.63008000  1.0 -0.0314872275
C  C993  1  0.23936000  0.53356000  0.40348000  1.0 -0.0314872275
C  C994  1  0.86992000  0.96644000  0.20580000  1.0 -0.0314872275
C  C995  1  0.26064000  0.66412000  0.29420000  1.0 -0.0314872275
C  C996  1  0.63008000  0.83588000  0.09652000  1.0 -0.0314872275
C  C997  1  0.59652000  0.76064000  0.46644000  1.0 -0.0314872275
C  C998  1  0.79420000  0.13008000  0.03356000  1.0 -0.0314872275
C  C999  1  0.70580000  0.73936000  0.33588000  1.0 -0.0314872275
C  C1000  1  0.90348000  0.36992000  0.16412000  1.0 -0.0314872275
C  C1001  1  0.46644000  0.59652000  0.76064000  1.0 -0.0314872275
C  C1002  1  0.03356000  0.79420000  0.13008000  1.0 -0.0314872275
C  C1003  1  0.33588000  0.70580000  0.73936000  1.0 -0.0314872275
C  C1004  1  0.16412000  0.90348000  0.36992000  1.0 -0.0314872275
C  C1005  1  0.76064000  0.46644000  0.59652000  1.0 -0.0314872275
C  C1006  1  0.13008000  0.03356000  0.79420000  1.0 -0.0314872275
C  C1007  1  0.73936000  0.33588000  0.70580000  1.0 -0.0314872275
C  C1008  1  0.36992000  0.16412000  0.90348000  1.0 -0.0314872275
C  C1009  1  0.43494000  0.27199000  0.56735000  1.0 0.6079565131
C  C1010  1  0.20464000  0.86759000  0.93265000  1.0 0.6079565131
C  C1011  1  0.29536000  0.22801000  0.66295000  1.0 0.6079565131
C  C1012  1  0.06506000  0.63241000  0.83705000  1.0 0.6079565131
C  C1013  1  0.56735000  0.43494000  0.27199000  1.0 0.6079565131
C  C1014  1  0.93265000  0.20464000  0.86759000  1.0 0.6079565131
C  C1015  1  0.66295000  0.29536000  0.22801000  1.0 0.6079565131
C  C1016  1  0.83705000  0.06506000  0.63241000  1.0 0.6079565131
C  C1017  1  0.27199000  0.56735000  0.43494000  1.0 0.6079565131
C  C1018  1  0.86759000  0.93265000  0.20464000  1.0 0.6079565131
C  C1019  1  0.22801000  0.66295000  0.29536000  1.0 0.6079565131
C  C1020  1  0.63241000  0.83705000  0.06506000  1.0 0.6079565131
C  C1021  1  0.56506000  0.72801000  0.43265000  1.0 0.6079565131
C  C1022  1  0.79536000  0.13241000  0.06735000  1.0 0.6079565131
C  C1023  1  0.70464000  0.77199000  0.33705000  1.0 0.6079565131
C  C1024  1  0.93494000  0.36759000  0.16295000  1.0 0.6079565131
C  C1025  1  0.43265000  0.56506000  0.72801000  1.0 0.6079565131
C  C1026  1  0.06735000  0.79536000  0.13241000  1.0 0.6079565131
C  C1027  1  0.33705000  0.70464000  0.77199000  1.0 0.6079565131
C  C1028  1  0.16295000  0.93494000  0.36759000  1.0 0.6079565131
C  C1029  1  0.72801000  0.43265000  0.56506000  1.0 0.6079565131
C  C1030  1  0.13241000  0.06735000  0.79536000  1.0 0.6079565131
C  C1031  1  0.77199000  0.33705000  0.70464000  1.0 0.6079565131
C  C1032  1  0.36759000  0.16295000  0.93494000  1.0 0.6079565131
C  C1033  1  0.39795000  0.23754000  0.50119000  1.0 -0.1110290727
C  C1034  1  0.23635000  0.89676000  0.99881000  1.0 -0.1110290727
C  C1035  1  0.26365000  0.26246000  0.66041000  1.0 -0.1110290727
C  C1036  1  0.10205000  0.60324000  0.83959000  1.0 -0.1110290727
C  C1037  1  0.50119000  0.39795000  0.23754000  1.0 -0.1110290727
C  C1038  1  0.99881000  0.23635000  0.89676000  1.0 -0.1110290727
C  C1039  1  0.66041000  0.26365000  0.26246000  1.0 -0.1110290727
C  C1040  1  0.83959000  0.10205000  0.60324000  1.0 -0.1110290727
C  C1041  1  0.23754000  0.50119000  0.39795000  1.0 -0.1110290727
C  C1042  1  0.89676000  0.99881000  0.23635000  1.0 -0.1110290727
C  C1043  1  0.26246000  0.66041000  0.26365000  1.0 -0.1110290727
C  C1044  1  0.60324000  0.83959000  0.10205000  1.0 -0.1110290727
C  C1045  1  0.60205000  0.76246000  0.49881000  1.0 -0.1110290727
C  C1046  1  0.76365000  0.10324000  0.00119000  1.0 -0.1110290727
C  C1047  1  0.73635000  0.73754000  0.33959000  1.0 -0.1110290727
C  C1048  1  0.89795000  0.39676000  0.16041000  1.0 -0.1110290727
C  C1049  1  0.49881000  0.60205000  0.76246000  1.0 -0.1110290727
C  C1050  1  0.00119000  0.76365000  0.10324000  1.0 -0.1191398357
C  C1051  1  0.33959000  0.73635000  0.73754000  1.0 -0.1110290727
C  C1052  1  0.16041000  0.89795000  0.39676000  1.0 -0.1110290727
C  C1053  1  0.76246000  0.49881000  0.60205000  1.0 -0.1110290727
C  C1054  1  0.10324000  0.00119000  0.76365000  1.0 -0.1110290727
C  C1055  1  0.73754000  0.33959000  0.73635000  1.0 -0.1110290727
C  C1056  1  0.39676000  0.16041000  0.89795000  1.0 -0.1110290727
C  C1057  1  0.36584000  0.20885000  0.46977000  1.0 -0.0216424995
C  C1058  1  0.23908000  0.89607000  0.03023000  1.0 -0.0216424995
C  C1059  1  0.26092000  0.29115000  0.65699000  1.0 -0.0216424995
C  C1060  1  0.13416000  0.60393000  0.84301000  1.0 -0.0216424995
C  C1061  1  0.46977000  0.36584000  0.20885000  1.0 -0.0216424995
C  C1062  1  0.03023000  0.23908000  0.89607000  1.0 -0.0216424995
C  C1063  1  0.65699000  0.26092000  0.29115000  1.0 -0.0216424995
C  C1064  1  0.84301000  0.13416000  0.60393000  1.0 -0.0216424995
C  C1065  1  0.20885000  0.46977000  0.36584000  1.0 -0.0216424995
C  C1066  1  0.89607000  0.03023000  0.23908000  1.0 -0.0216424995
C  C1067  1  0.29115000  0.65699000  0.26092000  1.0 -0.0216424995
C  C1068  1  0.60393000  0.84301000  0.13416000  1.0 -0.0216424995
C  C1069  1  0.63416000  0.79115000  0.53023000  1.0 -0.0216424995
C  C1070  1  0.76092000  0.10393000  0.96977000  1.0 -0.0216424995
C  C1071  1  0.73908000  0.70885000  0.34301000  1.0 -0.0216424995
C  C1072  1  0.86584000  0.39607000  0.15699000  1.0 -0.0216424995
C  C1073  1  0.53023000  0.63416000  0.79115000  1.0 -0.0216424995
C  C1074  1  0.96977000  0.76092000  0.10393000  1.0 -0.0216424995
C  C1075  1  0.34301000  0.73908000  0.70885000  1.0 -0.0216424995
C  C1076  1  0.15699000  0.86584000  0.39607000  1.0 -0.0216424995
C  C1077  1  0.79115000  0.53023000  0.63416000  1.0 -0.0216424995
C  C1078  1  0.10393000  0.96977000  0.76092000  1.0 -0.0216424995
C  C1079  1  0.70885000  0.34301000  0.73908000  1.0 -0.0216424995
C  C1080  1  0.39607000  0.15699000  0.86584000  1.0 -0.0216424995
C  C1081  1  0.35800000  0.20845000  0.43473000  1.0 0.5816594079
C  C1082  1  0.27372000  0.92327000  0.06527000  1.0 0.5816594079
C  C1083  1  0.22628000  0.29155000  0.64955000  1.0 0.5816594079
C  C1084  1  0.14200000  0.57673000  0.85045000  1.0 0.5816594079
C  C1085  1  0.43473000  0.35800000  0.20845000  1.0 0.5816594079
C  C1086  1  0.06527000  0.27372000  0.92327000  1.0 0.5816594079
C  C1087  1  0.64955000  0.22628000  0.29155000  1.0 0.5816594079
C  C1088  1  0.85045000  0.14200000  0.57673000  1.0 0.5816594079
C  C1089  1  0.20845000  0.43473000  0.35800000  1.0 0.5816594079
C  C1090  1  0.92327000  0.06527000  0.27372000  1.0 0.5816594079
C  C1091  1  0.29155000  0.64955000  0.22628000  1.0 0.5816594079
C  C1092  1  0.57673000  0.85045000  0.14200000  1.0 0.5816594079
C  C1093  1  0.64200000  0.79155000  0.56527000  1.0 0.5816594079
C  C1094  1  0.72628000  0.07673000  0.93473000  1.0 0.5816594079
C  C1095  1  0.77372000  0.70845000  0.35045000  1.0 0.5816594079
C  C1096  1  0.85800000  0.42327000  0.14955000  1.0 0.5816594079
C  C1097  1  0.56527000  0.64200000  0.79155000  1.0 0.5816594079
C  C1098  1  0.93473000  0.72628000  0.07673000  1.0 0.5816594079
C  C1099  1  0.35045000  0.77372000  0.70845000  1.0 0.5816594079
C  C1100  1  0.14955000  0.85800000  0.42327000  1.0 0.5816594079
C  C1101  1  0.79155000  0.56527000  0.64200000  1.0 0.5816594079
C  C1102  1  0.07673000  0.93473000  0.72628000  1.0 0.5816594079
C  C1103  1  0.70845000  0.35045000  0.77372000  1.0 0.5816594079
C  C1104  1  0.42327000  0.14955000  0.85800000  1.0 0.5816594079
C  C1105  1  0.34094000  0.18276000  0.47118000  1.0 -0.140447492
C  C1106  1  0.21158000  0.86976000  0.02882000  1.0 -0.140447492
C  C1107  1  0.28842000  0.31724000  0.65818000  1.0 -0.140447492
C  C1108  1  0.15906000  0.63024000  0.84182000  1.0 -0.140447492
C  C1109  1  0.47118000  0.34094000  0.18276000  1.0 -0.140447492
C  C1110  1  0.02882000  0.21158000  0.86976000  1.0 -0.140447492
C  C1111  1  0.65818000  0.28842000  0.31724000  1.0 -0.140447492
C  C1112  1  0.84182000  0.15906000  0.63024000  1.0 -0.140447492
C  C1113  1  0.18276000  0.47118000  0.34094000  1.0 -0.140447492
C  C1114  1  0.86976000  0.02882000  0.21158000  1.0 -0.140447492
C  C1115  1  0.31724000  0.65818000  0.28842000  1.0 -0.140447492
C  C1116  1  0.63024000  0.84182000  0.15906000  1.0 -0.140447492
C  C1117  1  0.65906000  0.81724000  0.52882000  1.0 -0.140447492
C  C1118  1  0.78842000  0.13024000  0.97118000  1.0 -0.140447492
C  C1119  1  0.71158000  0.68276000  0.34182000  1.0 -0.140447492
C  C1120  1  0.84094000  0.36976000  0.15818000  1.0 -0.140447492
C  C1121  1  0.52882000  0.65906000  0.81724000  1.0 -0.140447492
C  C1122  1  0.97118000  0.78842000  0.13024000  1.0 -0.140447492
C  C1123  1  0.34182000  0.71158000  0.68276000  1.0 -0.140447492
C  C1124  1  0.15818000  0.84094000  0.36976000  1.0 -0.140447492
C  C1125  1  0.81724000  0.52882000  0.65906000  1.0 -0.140447492
C  C1126  1  0.13024000  0.97118000  0.78842000  1.0 -0.140447492
C  C1127  1  0.68276000  0.34182000  0.71158000  1.0 -0.140447492
C  C1128  1  0.36976000  0.15818000  0.84094000  1.0 -0.140447492
C  C1129  1  0.17781000  0.78934000  0.47455000  1.0 0.5974613086
C  C1130  1  0.81479000  0.70326000  0.02545000  1.0 0.5974613086
C  C1131  1  0.68521000  0.71066000  0.88847000  1.0 0.5974613086
C  C1132  1  0.32219000  0.79674000  0.61153000  1.0 0.5974613086
C  C1133  1  0.47455000  0.17781000  0.78934000  1.0 0.5974613086
C  C1134  1  0.02545000  0.81479000  0.70326000  1.0 0.5974613086
C  C1135  1  0.88847000  0.68521000  0.71066000  1.0 0.5974613086
C  C1136  1  0.61153000  0.32219000  0.79674000  1.0 0.5974613086
C  C1137  1  0.78934000  0.47455000  0.17781000  1.0 0.5974613086
C  C1138  1  0.70326000  0.02545000  0.81479000  1.0 0.5974613086
C  C1139  1  0.71066000  0.88847000  0.68521000  1.0 0.5974613086
C  C1140  1  0.79674000  0.61153000  0.32219000  1.0 0.5974613086
C  C1141  1  0.82219000  0.21066000  0.52545000  1.0 0.5974613086
C  C1142  1  0.18521000  0.29674000  0.97455000  1.0 0.5974613086
C  C1143  1  0.31479000  0.28934000  0.11153000  1.0 0.5974613086
C  C1144  1  0.67781000  0.20326000  0.38847000  1.0 0.5974613086
C  C1145  1  0.52545000  0.82219000  0.21066000  1.0 0.5974613086
C  C1146  1  0.97455000  0.18521000  0.29674000  1.0 0.5974613086
C  C1147  1  0.11153000  0.31479000  0.28934000  1.0 0.5974613086
C  C1148  1  0.38847000  0.67781000  0.20326000  1.0 0.5974613086
C  C1149  1  0.21066000  0.52545000  0.82219000  1.0 0.5974613086
C  C1150  1  0.29674000  0.97455000  0.18521000  1.0 0.5974613086
C  C1151  1  0.28934000  0.11153000  0.31479000  1.0 0.5974613086
C  C1152  1  0.20326000  0.38847000  0.67781000  1.0 0.5974613086
C  C1153  1  0.19344000  0.76586000  0.46490000  1.0 -0.0216424995
C  C1154  1  0.80096000  0.72854000  0.03510000  1.0 -0.0216424995
C  C1155  1  0.69904000  0.73414000  0.92758000  1.0 -0.0216424995
C  C1156  1  0.30656000  0.77146000  0.57242000  1.0 -0.0216424995
C  C1157  1  0.46490000  0.19344000  0.76586000  1.0 -0.0216424995
C  C1158  1  0.03510000  0.80096000  0.72854000  1.0 -0.0216424995
C  C1159  1  0.92758000  0.69904000  0.73414000  1.0 -0.0216424995
C  C1160  1  0.57242000  0.30656000  0.77146000  1.0 -0.0216424995
C  C1161  1  0.76586000  0.46490000  0.19344000  1.0 -0.0216424995
C  C1162  1  0.72854000  0.03510000  0.80096000  1.0 -0.0216424995
C  C1163  1  0.73414000  0.92758000  0.69904000  1.0 -0.0216424995
C  C1164  1  0.77146000  0.57242000  0.30656000  1.0 -0.0216424995
C  C1165  1  0.80656000  0.23414000  0.53510000  1.0 -0.0216424995
C  C1166  1  0.19904000  0.27146000  0.96490000  1.0 -0.0216424995
C  C1167  1  0.30096000  0.26586000  0.07242000  1.0 -0.0216424995
C  C1168  1  0.69344000  0.22854000  0.42758000  1.0 -0.0216424995
C  C1169  1  0.53510000  0.80656000  0.23414000  1.0 -0.0216424995
C  C1170  1  0.96490000  0.19904000  0.27146000  1.0 -0.0216424995
C  C1171  1  0.07242000  0.30096000  0.26586000  1.0 -0.0216424995
C  C1172  1  0.42758000  0.69344000  0.22854000  1.0 -0.0216424995
C  C1173  1  0.23414000  0.53510000  0.80656000  1.0 -0.0216424995
C  C1174  1  0.27146000  0.96490000  0.19904000  1.0 -0.0216424995
C  C1175  1  0.26586000  0.07242000  0.30096000  1.0 -0.0216424995
C  C1176  1  0.22854000  0.42758000  0.69344000  1.0 -0.0216424995
C  C1177  1  0.18064000  0.74329000  0.42893000  1.0 -0.1110290727
C  C1178  1  0.81436000  0.75171000  0.07107000  1.0 -0.1110290727
C  C1179  1  0.68564000  0.75671000  0.93735000  1.0 -0.1048704525
C  C1180  1  0.31936000  0.74829000  0.56265000  1.0 -0.1110290727
C  C1181  1  0.42893000  0.18064000  0.74329000  1.0 -0.1048704525
C  C1182  1  0.07107000  0.81436000  0.75171000  1.0 -0.1110290727
C  C1183  1  0.93735000  0.68564000  0.75671000  1.0 -0.1110290727
C  C1184  1  0.56265000  0.31936000  0.74829000  1.0 -0.1048704525
C  C1185  1  0.74329000  0.42893000  0.18064000  1.0 -0.1110290727
C  C1186  1  0.75171000  0.07107000  0.81436000  1.0 -0.1048704525
C  C1187  1  0.75671000  0.93735000  0.68564000  1.0 -0.1110290727
C  C1188  1  0.74829000  0.56265000  0.31936000  1.0 -0.1110290727
C  C1189  1  0.81936000  0.25671000  0.57107000  1.0 -0.1048704525
C  C1190  1  0.18564000  0.24829000  0.92893000  1.0 -0.1048704525
C  C1191  1  0.31436000  0.24329000  0.06265000  1.0 -0.1110290727
C  C1192  1  0.68064000  0.25171000  0.43735000  1.0 -0.1048704525
C  C1193  1  0.57107000  0.81936000  0.25671000  1.0 -0.1110290727
C  C1194  1  0.92893000  0.18564000  0.24829000  1.0 -0.1110290727
C  C1195  1  0.06265000  0.31436000  0.24329000  1.0 -0.1110290727
C  C1196  1  0.43735000  0.68064000  0.25171000  1.0 -0.1110290727
C  C1197  1  0.25671000  0.57107000  0.81936000  1.0 -0.1048704525
C  C1198  1  0.24829000  0.92893000  0.18564000  1.0 -0.1110290727
C  C1199  1  0.24329000  0.06265000  0.31436000  1.0 -0.1048704525
C  C1200  1  0.25171000  0.43735000  0.68064000  1.0 -0.1048704525
C  C1201  1  0.19532000  0.72257000  0.41989000  1.0 -0.0216424995
C  C1202  1  0.80268000  0.77543000  0.08011000  1.0 -0.0216424995
C  C1203  1  0.69732000  0.77743000  0.97275000  1.0 -0.0216424995
C  C1204  1  0.30468000  0.72457000  0.52725000  1.0 -0.0216424995
C  C1205  1  0.41989000  0.19532000  0.72257000  1.0 -0.0216424995
C  C1206  1  0.08011000  0.80268000  0.77543000  1.0 -0.0216424995
C  C1207  1  0.97275000  0.69732000  0.77743000  1.0 -0.0216424995
C  C1208  1  0.52725000  0.30468000  0.72457000  1.0 -0.0216424995
C  C1209  1  0.72257000  0.41989000  0.19532000  1.0 -0.0216424995
C  C1210  1  0.77543000  0.08011000  0.80268000  1.0 -0.0216424995
C  C1211  1  0.77743000  0.97275000  0.69732000  1.0 -0.0216424995
C  C1212  1  0.72457000  0.52725000  0.30468000  1.0 -0.0216424995
C  C1213  1  0.80468000  0.27743000  0.58011000  1.0 -0.0216424995
C  C1214  1  0.19732000  0.22457000  0.91989000  1.0 -0.0216424995
C  C1215  1  0.30268000  0.22257000  0.02725000  1.0 -0.0216424995
C  C1216  1  0.69532000  0.27543000  0.47275000  1.0 -0.0216424995
C  C1217  1  0.58011000  0.80468000  0.27743000  1.0 -0.0216424995
C  C1218  1  0.91989000  0.19732000  0.22457000  1.0 -0.0216424995
C  C1219  1  0.02725000  0.30268000  0.22257000  1.0 -0.0216424995
C  C1220  1  0.47275000  0.69532000  0.27543000  1.0 -0.0216424995
C  C1221  1  0.27743000  0.58011000  0.80468000  1.0 -0.0216424995
C  C1222  1  0.22457000  0.91989000  0.19732000  1.0 -0.0216424995
C  C1223  1  0.22257000  0.02725000  0.30268000  1.0 -0.0216424995
C  C1224  1  0.27543000  0.47275000  0.69532000  1.0 -0.0216424995
C  C1225  1  0.18082000  0.69851000  0.38093000  1.0 0.6079565131
C  C1226  1  0.81758000  0.79989000  0.11907000  1.0 0.6079565131
C  C1227  1  0.68242000  0.80149000  0.98231000  1.0 0.6079565131
C  C1228  1  0.31918000  0.70011000  0.51769000  1.0 0.6079565131
C  C1229  1  0.38093000  0.18082000  0.69851000  1.0 0.6079565131
C  C1230  1  0.11907000  0.81758000  0.79989000  1.0 0.6079565131
C  C1231  1  0.98231000  0.68242000  0.80149000  1.0 0.6079565131
C  C1232  1  0.51769000  0.31918000  0.70011000  1.0 0.6079565131
C  C1233  1  0.69851000  0.38093000  0.18082000  1.0 0.6079565131
C  C1234  1  0.79989000  0.11907000  0.81758000  1.0 0.6079565131
C  C1235  1  0.80149000  0.98231000  0.68242000  1.0 0.6079565131
C  C1236  1  0.70011000  0.51769000  0.31918000  1.0 0.6079565131
C  C1237  1  0.81918000  0.30149000  0.61907000  1.0 0.6079565131
C  C1238  1  0.18242000  0.20011000  0.88093000  1.0 0.6079565131
C  C1239  1  0.31758000  0.19851000  0.01769000  1.0 0.6079565131
C  C1240  1  0.68082000  0.29989000  0.48231000  1.0 0.6079565131
C  C1241  1  0.61907000  0.81918000  0.30149000  1.0 0.6079565131
C  C1242  1  0.88093000  0.18242000  0.20011000  1.0 0.6079565131
C  C1243  1  0.01769000  0.31758000  0.19851000  1.0 0.6079565131
C  C1244  1  0.48231000  0.68082000  0.29989000  1.0 0.6079565131
C  C1245  1  0.30149000  0.61907000  0.81918000  1.0 0.6079565131
C  C1246  1  0.20011000  0.88093000  0.18242000  1.0 0.6079565131
C  C1247  1  0.19851000  0.01769000  0.31758000  1.0 0.6079565131
C  C1248  1  0.29989000  0.48231000  0.68082000  1.0 0.6079565131
C  C1249  1  0.22250000  0.72338000  0.44588000  1.0 -0.1329495807
C  C1250  1  0.77750000  0.77662000  0.05412000  1.0 -0.1329495807
C  C1251  1  0.72250000  0.77662000  0.99912000  1.0 -0.1329495807
C  C1252  1  0.27750000  0.72338000  0.50088000  1.0 -0.1329495807
C  C1253  1  0.44588000  0.22250000  0.72338000  1.0 -0.1329495807
C  C1254  1  0.05412000  0.77750000  0.77662000  1.0 -0.1329495807
C  C1255  1  0.99912000  0.72250000  0.77662000  1.0 -0.1329495807
C  C1256  1  0.50088000  0.27750000  0.72338000  1.0 -0.1329495807
C  C1257  1  0.72338000  0.44588000  0.22250000  1.0 -0.140447492
C  C1258  1  0.77662000  0.05412000  0.77750000  1.0 -0.1329495807
C  C1259  1  0.77662000  0.99912000  0.72250000  1.0 -0.1329495807
C  C1260  1  0.72338000  0.50088000  0.27750000  1.0 -0.1329495807
C  C1261  1  0.77750000  0.27662000  0.55412000  1.0 -0.1329495807
C  C1262  1  0.22250000  0.22338000  0.94588000  1.0 -0.1329495807
C  C1263  1  0.27750000  0.22338000  0.00088000  1.0 -0.140447492
C  C1264  1  0.72250000  0.27662000  0.49912000  1.0 -0.1329495807
C  C1265  1  0.55412000  0.77750000  0.27662000  1.0 -0.140447492
C  C1266  1  0.94588000  0.22250000  0.22338000  1.0 -0.1329495807
C  C1267  1  0.00088000  0.27750000  0.22338000  1.0 -0.1329495807
C  C1268  1  0.49912000  0.72250000  0.27662000  1.0 -0.1329495807
C  C1269  1  0.27662000  0.55412000  0.77750000  1.0 -0.1329495807
C  C1270  1  0.22338000  0.94588000  0.22250000  1.0 -0.140447492
C  C1271  1  0.22338000  0.00088000  0.27750000  1.0 -0.1329495807
C  C1272  1  0.27662000  0.49912000  0.72250000  1.0 -0.1329495807
C  C1273  1  0.23498000  0.74517000  0.48215000  1.0 0.070447032
C  C1274  1  0.76302000  0.75283000  0.01785000  1.0 0.070447032
C  C1275  1  0.73698000  0.75483000  0.98981000  1.0 0.070447032
C  C1276  1  0.26502000  0.74717000  0.51019000  1.0 0.070447032
C  C1277  1  0.48215000  0.23498000  0.74517000  1.0 0.070447032
C  C1278  1  0.01785000  0.76302000  0.75283000  1.0 0.070447032
C  C1279  1  0.98981000  0.73698000  0.75483000  1.0 0.070447032
C  C1280  1  0.51019000  0.26502000  0.74717000  1.0 0.070447032
C  C1281  1  0.74517000  0.48215000  0.23498000  1.0 0.070447032
C  C1282  1  0.75283000  0.01785000  0.76302000  1.0 0.070447032
C  C1283  1  0.75483000  0.98981000  0.73698000  1.0 0.070447032
C  C1284  1  0.74717000  0.51019000  0.26502000  1.0 0.070447032
C  C1285  1  0.76502000  0.25483000  0.51785000  1.0 0.070447032
C  C1286  1  0.23698000  0.24717000  0.98215000  1.0 0.070447032
C  C1287  1  0.26302000  0.24517000  0.01019000  1.0 0.070447032
C  C1288  1  0.73498000  0.25283000  0.48981000  1.0 0.070447032
C  C1289  1  0.51785000  0.76502000  0.25483000  1.0 0.070447032
C  C1290  1  0.98215000  0.23698000  0.24717000  1.0 0.070447032
C  C1291  1  0.01019000  0.26302000  0.24517000  1.0 0.070447032
C  C1292  1  0.48981000  0.73498000  0.25283000  1.0 0.070447032
C  C1293  1  0.25483000  0.51785000  0.76502000  1.0 0.070447032
C  C1294  1  0.24717000  0.98215000  0.23698000  1.0 0.070447032
C  C1295  1  0.24517000  0.01019000  0.26302000  1.0 0.070447032
C  C1296  1  0.25283000  0.48981000  0.73498000  1.0 0.070447032
C  C1297  1  0.22080000  0.76722000  0.49122000  1.0 -0.140447492
C  C1298  1  0.77600000  0.72958000  0.00878000  1.0 -0.140447492
C  C1299  1  0.72400000  0.73278000  0.95358000  1.0 -0.140447492
C  C1300  1  0.27920000  0.77042000  0.54642000  1.0 -0.140447492
C  C1301  1  0.49122000  0.22080000  0.76722000  1.0 -0.140447492
C  C1302  1  0.00878000  0.77600000  0.72958000  1.0 -0.140447492
C  C1303  1  0.95358000  0.72400000  0.73278000  1.0 -0.140447492
C  C1304  1  0.54642000  0.27920000  0.77042000  1.0 -0.140447492
C  C1305  1  0.76722000  0.49122000  0.22080000  1.0 -0.140447492
C  C1306  1  0.72958000  0.00878000  0.77600000  1.0 -0.140447492
C  C1307  1  0.73278000  0.95358000  0.72400000  1.0 -0.140447492
C  C1308  1  0.77042000  0.54642000  0.27920000  1.0 -0.140447492
C  C1309  1  0.77920000  0.23278000  0.50878000  1.0 -0.140447492
C  C1310  1  0.22400000  0.27042000  0.99122000  1.0 -0.140447492
C  C1311  1  0.27600000  0.26722000  0.04642000  1.0 -0.140447492
C  C1312  1  0.72080000  0.22958000  0.45358000  1.0 -0.140447492
C  C1313  1  0.50878000  0.77920000  0.23278000  1.0 -0.140447492
C  C1314  1  0.99122000  0.22400000  0.27042000  1.0 -0.140447492
C  C1315  1  0.04642000  0.27600000  0.26722000  1.0 -0.140447492
C  C1316  1  0.45358000  0.72080000  0.22958000  1.0 -0.140447492
C  C1317  1  0.23278000  0.50878000  0.77920000  1.0 -0.140447492
C  C1318  1  0.27042000  0.99122000  0.22400000  1.0 -0.140447492
C  C1319  1  0.26722000  0.04642000  0.27600000  1.0 -0.140447492
C  C1320  1  0.22958000  0.45358000  0.72080000  1.0 -0.140447492
C  C1321  1  0.36396000  0.92215000  0.68171000  1.0 0.5974613086
C  C1322  1  0.74044000  0.68225000  0.81829000  1.0 0.5974613086
C  C1323  1  0.75956000  0.57785000  0.94181000  1.0 0.5974613086
C  C1324  1  0.13604000  0.81775000  0.55819000  1.0 0.5974613086
C  C1325  1  0.68171000  0.36396000  0.92215000  1.0 0.5974613086
C  C1326  1  0.81829000  0.74044000  0.68225000  1.0 0.5974613086
C  C1327  1  0.94181000  0.75956000  0.57785000  1.0 0.5974613086
C  C1328  1  0.55819000  0.13604000  0.81775000  1.0 0.5974613086
C  C1329  1  0.92215000  0.68171000  0.36396000  1.0 0.5974613086
C  C1330  1  0.68225000  0.81829000  0.74044000  1.0 0.5974613086
C  C1331  1  0.57785000  0.94181000  0.75956000  1.0 0.5974613086
C  C1332  1  0.81775000  0.55819000  0.13604000  1.0 0.5974613086
C  C1333  1  0.63604000  0.07785000  0.31829000  1.0 0.5974613086
C  C1334  1  0.25956000  0.31775000  0.18171000  1.0 0.5974613086
C  C1335  1  0.24044000  0.42215000  0.05819000  1.0 0.5974613086
C  C1336  1  0.86396000  0.18225000  0.44181000  1.0 0.5974613086
C  C1337  1  0.31829000  0.63604000  0.07785000  1.0 0.5974613086
C  C1338  1  0.18171000  0.25956000  0.31775000  1.0 0.5974613086
C  C1339  1  0.05819000  0.24044000  0.42215000  1.0 0.5974613086
C  C1340  1  0.44181000  0.86396000  0.18225000  1.0 0.5974613086
C  C1341  1  0.07785000  0.31829000  0.63604000  1.0 0.5974613086
C  C1342  1  0.31775000  0.18171000  0.25956000  1.0 0.5974613086
C  C1343  1  0.42215000  0.05819000  0.24044000  1.0 0.5974613086
C  C1344  1  0.18225000  0.44181000  0.86396000  1.0 0.5974613086
O  O1  1  0.22133000  0.07920000  0.62391000  1.0 -0.5100611379
O  O2  1  0.95529000  0.59742000  0.87609000  1.0 -0.5100611379
O  O3  1  0.54471000  0.42080000  0.64213000  1.0 -0.5100611379
O  O4  1  0.27867000  0.90258000  0.85787000  1.0 -0.5100611379
O  O5  1  0.62391000  0.22133000  0.07920000  1.0 -0.5100611379
O  O6  1  0.87609000  0.95529000  0.59742000  1.0 -0.5100611379
O  O7  1  0.64213000  0.54471000  0.42080000  1.0 -0.5100611379
O  O8  1  0.85787000  0.27867000  0.90258000  1.0 -0.5100611379
O  O9  1  0.07920000  0.62391000  0.22133000  1.0 -0.5100611379
O  O10  1  0.59742000  0.87609000  0.95529000  1.0 -0.5100611379
O  O11  1  0.42080000  0.64213000  0.54471000  1.0 -0.5100611379
O  O12  1  0.90258000  0.85787000  0.27867000  1.0 -0.5100611379
O  O13  1  0.77867000  0.92080000  0.37609000  1.0 -0.5100611379
O  O14  1  0.04471000  0.40258000  0.12391000  1.0 -0.5100611379
O  O15  1  0.45529000  0.57920000  0.35787000  1.0 -0.5100611379
O  O16  1  0.72133000  0.09742000  0.14213000  1.0 -0.5100611379
O  O17  1  0.37609000  0.77867000  0.92080000  1.0 -0.5100611379
O  O18  1  0.12391000  0.04471000  0.40258000  1.0 -0.5100611379
O  O19  1  0.35787000  0.45529000  0.57920000  1.0 -0.5100611379
O  O20  1  0.14213000  0.72133000  0.09742000  1.0 -0.5100611379
O  O21  1  0.92080000  0.37609000  0.77867000  1.0 -0.5100611379
O  O22  1  0.40258000  0.12391000  0.04471000  1.0 -0.5100611379
O  O23  1  0.57920000  0.35787000  0.45529000  1.0 -0.5100611379
O  O24  1  0.09742000  0.14213000  0.72133000  1.0 -0.5100611379
O  O25  1  0.15208000  0.12475000  0.71313000  1.0 -0.5100611379
O  O26  1  0.91162000  0.43895000  0.78687000  1.0 -0.5100611379
O  O27  1  0.58838000  0.37525000  0.52733000  1.0 -0.5100611379
O  O28  1  0.34792000  0.06105000  0.97267000  1.0 -0.5100611379
O  O29  1  0.71313000  0.15208000  0.12475000  1.0 -0.5100611379
O  O30  1  0.78687000  0.91162000  0.43895000  1.0 -0.5100611379
O  O31  1  0.52733000  0.58838000  0.37525000  1.0 -0.5100611379
O  O32  1  0.97267000  0.34792000  0.06105000  1.0 -0.5100611379
O  O33  1  0.12475000  0.71313000  0.15208000  1.0 -0.5100611379
O  O34  1  0.43895000  0.78687000  0.91162000  1.0 -0.5100611379
O  O35  1  0.37525000  0.52733000  0.58838000  1.0 -0.5100611379
O  O36  1  0.06105000  0.97267000  0.34792000  1.0 -0.5100611379
O  O37  1  0.84792000  0.87525000  0.28687000  1.0 -0.5100611379
O  O38  1  0.08838000  0.56105000  0.21313000  1.0 -0.5100611379
O  O39  1  0.41162000  0.62475000  0.47267000  1.0 -0.5100611379
O  O40  1  0.65208000  0.93895000  0.02733000  1.0 -0.5100611379
O  O41  1  0.28687000  0.84792000  0.87525000  1.0 -0.5100611379
O  O42  1  0.21313000  0.08838000  0.56105000  1.0 -0.5100611379
O  O43  1  0.47267000  0.41162000  0.62475000  1.0 -0.5100611379
O  O44  1  0.02733000  0.65208000  0.93895000  1.0 -0.5100611379
O  O45  1  0.87525000  0.28687000  0.84792000  1.0 -0.5100611379
O  O46  1  0.56105000  0.21313000  0.08838000  1.0 -0.5100611379
O  O47  1  0.62475000  0.47267000  0.41162000  1.0 -0.5100611379
O  O48  1  0.93895000  0.02733000  0.65208000  1.0 -0.5100611379
O  O49  1  0.12766000  0.07765000  0.71933000  1.0 -0.5454045375
O  O50  1  0.85832000  0.40833000  0.78067000  1.0 -0.5454045375
O  O51  1  0.64168000  0.42235000  0.55001000  1.0 -0.5454045375
O  O52  1  0.37234000  0.09167000  0.94999000  1.0 -0.5454045375
O  O53  1  0.71933000  0.12766000  0.07765000  1.0 -0.5454045375
O  O54  1  0.78067000  0.85832000  0.40833000  1.0 -0.5454045375
O  O55  1  0.55001000  0.64168000  0.42235000  1.0 -0.5454045375
O  O56  1  0.94999000  0.37234000  0.09167000  1.0 -0.5454045375
O  O57  1  0.07765000  0.71933000  0.12766000  1.0 -0.5454045375
O  O58  1  0.40833000  0.78067000  0.85832000  1.0 -0.5454045375
O  O59  1  0.42235000  0.55001000  0.64168000  1.0 -0.5454045375
O  O60  1  0.09167000  0.94999000  0.37234000  1.0 -0.5454045375
O  O61  1  0.87234000  0.92235000  0.28067000  1.0 -0.5454045375
O  O62  1  0.14168000  0.59167000  0.21933000  1.0 -0.5454045375
O  O63  1  0.35832000  0.57765000  0.44999000  1.0 -0.5454045375
O  O64  1  0.62766000  0.90833000  0.05001000  1.0 -0.5454045375
O  O65  1  0.28067000  0.87234000  0.92235000  1.0 -0.5454045375
O  O66  1  0.21933000  0.14168000  0.59167000  1.0 -0.5454045375
O  O67  1  0.44999000  0.35832000  0.57765000  1.0 -0.5454045375
O  O68  1  0.05001000  0.62766000  0.90833000  1.0 -0.5454045375
O  O69  1  0.92235000  0.28067000  0.87234000  1.0 -0.5454045375
O  O70  1  0.59167000  0.21933000  0.14168000  1.0 -0.5454045375
O  O71  1  0.57765000  0.44999000  0.35832000  1.0 -0.5454045375
O  O72  1  0.90833000  0.05001000  0.62766000  1.0 -0.5454045375
O  O73  1  0.13128000  0.91097000  0.53177000  1.0 -0.5221755768
O  O74  1  0.87920000  0.59951000  0.96823000  1.0 -0.5221755768
O  O75  1  0.62080000  0.58903000  0.72031000  1.0 -0.5221755768
O  O76  1  0.36872000  0.90049000  0.77969000  1.0 -0.5221755768
O  O77  1  0.53177000  0.13128000  0.91097000  1.0 -0.5221755768
O  O78  1  0.96823000  0.87920000  0.59951000  1.0 -0.5221755768
O  O79  1  0.72031000  0.62080000  0.58903000  1.0 -0.5221755768
O  O80  1  0.77969000  0.36872000  0.90049000  1.0 -0.5221755768
O  O81  1  0.91097000  0.53177000  0.13128000  1.0 -0.5221755768
O  O82  1  0.59951000  0.96823000  0.87920000  1.0 -0.5221755768
O  O83  1  0.58903000  0.72031000  0.62080000  1.0 -0.5221755768
O  O84  1  0.90049000  0.77969000  0.36872000  1.0 -0.5221755768
O  O85  1  0.86872000  0.08903000  0.46823000  1.0 -0.5221755768
O  O86  1  0.12080000  0.40049000  0.03177000  1.0 -0.5221755768
O  O87  1  0.37920000  0.41097000  0.27969000  1.0 -0.5221755768
O  O88  1  0.63128000  0.09951000  0.22031000  1.0 -0.5221755768
O  O89  1  0.46823000  0.86872000  0.08903000  1.0 -0.5221755768
O  O90  1  0.03177000  0.12080000  0.40049000  1.0 -0.5221755768
O  O91  1  0.27969000  0.37920000  0.41097000  1.0 -0.5221755768
O  O92  1  0.22031000  0.63128000  0.09951000  1.0 -0.5221755768
O  O93  1  0.08903000  0.46823000  0.86872000  1.0 -0.5221755768
O  O94  1  0.40049000  0.03177000  0.12080000  1.0 -0.5221755768
O  O95  1  0.41097000  0.27969000  0.37920000  1.0 -0.5221755768
O  O96  1  0.09951000  0.22031000  0.63128000  1.0 -0.5221755768
O  O97  1  0.10980000  0.86581000  0.54221000  1.0 -0.5296928935
O  O98  1  0.82360000  0.56759000  0.95779000  1.0 -0.5296928935
O  O99  1  0.67640000  0.63419000  0.74399000  1.0 -0.5296928935
O  O100  1  0.39020000  0.93241000  0.75601000  1.0 -0.5296928935
O  O101  1  0.54221000  0.10980000  0.86581000  1.0 -0.5296928935
O  O102  1  0.95779000  0.82360000  0.56759000  1.0 -0.5296928935
O  O103  1  0.74399000  0.67640000  0.63419000  1.0 -0.5296928935
O  O104  1  0.75601000  0.39020000  0.93241000  1.0 -0.5296928935
O  O105  1  0.86581000  0.54221000  0.10980000  1.0 -0.5296928935
O  O106  1  0.56759000  0.95779000  0.82360000  1.0 -0.5296928935
O  O107  1  0.63419000  0.74399000  0.67640000  1.0 -0.5296928935
O  O108  1  0.93241000  0.75601000  0.39020000  1.0 -0.5296928935
O  O109  1  0.89020000  0.13419000  0.45779000  1.0 -0.5296928935
O  O110  1  0.17640000  0.43241000  0.04221000  1.0 -0.5296928935
O  O111  1  0.32360000  0.36581000  0.25601000  1.0 -0.5296928935
O  O112  1  0.60980000  0.06759000  0.24399000  1.0 -0.5296928935
O  O113  1  0.45779000  0.89020000  0.13419000  1.0 -0.5296928935
O  O114  1  0.04221000  0.17640000  0.43241000  1.0 -0.5296928935
O  O115  1  0.25601000  0.32360000  0.36581000  1.0 -0.5296928935
O  O116  1  0.24399000  0.60980000  0.06759000  1.0 -0.5296928935
O  O117  1  0.13419000  0.45779000  0.89020000  1.0 -0.5296928935
O  O118  1  0.43241000  0.04221000  0.17640000  1.0 -0.5296928935
O  O119  1  0.36581000  0.25601000  0.32360000  1.0 -0.5296928935
O  O120  1  0.06759000  0.24399000  0.60980000  1.0 -0.5296928935
O  O121  1  0.04865000  0.91490000  0.63917000  1.0 -0.5221755768
O  O122  1  0.77573000  0.40948000  0.86083000  1.0 -0.5221755768
O  O123  1  0.72427000  0.58510000  0.63375000  1.0 -0.5221755768
O  O124  1  0.45135000  0.09052000  0.86625000  1.0 -0.5221755768
O  O125  1  0.63917000  0.04865000  0.91490000  1.0 -0.5221755768
O  O126  1  0.86083000  0.77573000  0.40948000  1.0 -0.5221755768
O  O127  1  0.63375000  0.72427000  0.58510000  1.0 -0.5221755768
O  O128  1  0.86625000  0.45135000  0.09052000  1.0 -0.5221755768
O  O129  1  0.91490000  0.63917000  0.04865000  1.0 -0.5221755768
O  O130  1  0.40948000  0.86083000  0.77573000  1.0 -0.5221755768
O  O131  1  0.58510000  0.63375000  0.72427000  1.0 -0.5221755768
O  O132  1  0.09052000  0.86625000  0.45135000  1.0 -0.5221755768
O  O133  1  0.95135000  0.08510000  0.36083000  1.0 -0.5221755768
O  O134  1  0.22427000  0.59052000  0.13917000  1.0 -0.5221755768
O  O135  1  0.27573000  0.41490000  0.36625000  1.0 -0.5221755768
O  O136  1  0.54865000  0.90948000  0.13375000  1.0 -0.5221755768
O  O137  1  0.36083000  0.95135000  0.08510000  1.0 -0.5221755768
O  O138  1  0.13917000  0.22427000  0.59052000  1.0 -0.5221755768
O  O139  1  0.36625000  0.27573000  0.41490000  1.0 -0.5221755768
O  O140  1  0.13375000  0.54865000  0.90948000  1.0 -0.5221755768
O  O141  1  0.08510000  0.36083000  0.95135000  1.0 -0.5221755768
O  O142  1  0.59052000  0.13917000  0.22427000  1.0 -0.5221755768
O  O143  1  0.41490000  0.36625000  0.27573000  1.0 -0.5221755768
O  O144  1  0.90948000  0.13375000  0.54865000  1.0 -0.5221755768
O  O145  1  0.03276000  0.86496000  0.59140000  1.0 -0.5221755768
O  O146  1  0.77356000  0.44136000  0.90860000  1.0 -0.5221755768
O  O147  1  0.72644000  0.63504000  0.66780000  1.0 -0.5221755768
O  O148  1  0.46724000  0.05864000  0.83220000  1.0 -0.5221755768
O  O149  1  0.59140000  0.03276000  0.86496000  1.0 -0.5221755768
O  O150  1  0.90860000  0.77356000  0.44136000  1.0 -0.5221755768
O  O151  1  0.66780000  0.72644000  0.63504000  1.0 -0.5221755768
O  O152  1  0.83220000  0.46724000  0.05864000  1.0 -0.5221755768
O  O153  1  0.86496000  0.59140000  0.03276000  1.0 -0.5221755768
O  O154  1  0.44136000  0.90860000  0.77356000  1.0 -0.5221755768
O  O155  1  0.63504000  0.66780000  0.72644000  1.0 -0.5221755768
O  O156  1  0.05864000  0.83220000  0.46724000  1.0 -0.5221755768
O  O157  1  0.96724000  0.13504000  0.40860000  1.0 -0.5221755768
O  O158  1  0.22644000  0.55864000  0.09140000  1.0 -0.5221755768
O  O159  1  0.27356000  0.36496000  0.33220000  1.0 -0.5221755768
O  O160  1  0.53276000  0.94136000  0.16780000  1.0 -0.5221755768
O  O161  1  0.40860000  0.96724000  0.13504000  1.0 -0.5221755768
O  O162  1  0.09140000  0.22644000  0.55864000  1.0 -0.5221755768
O  O163  1  0.33220000  0.27356000  0.36496000  1.0 -0.5221755768
O  O164  1  0.16780000  0.53276000  0.94136000  1.0 -0.5221755768
O  O165  1  0.13504000  0.40860000  0.96724000  1.0 -0.5221755768
O  O166  1  0.55864000  0.09140000  0.22644000  1.0 -0.5221755768
O  O167  1  0.36496000  0.33220000  0.27356000  1.0 -0.5221755768
O  O168  1  0.94136000  0.16780000  0.53276000  1.0 -0.5221755768
O  O169  1  0.26071000  0.05409000  0.59542000  1.0 -0.5100611379
O  O170  1  0.95867000  0.66529000  0.90458000  1.0 -0.5100611379
O  O171  1  0.54133000  0.44591000  0.70662000  1.0 -0.5018314262
O  O172  1  0.23929000  0.83471000  0.79338000  1.0 -0.5018314262
O  O173  1  0.59542000  0.26071000  0.05409000  1.0 -0.5100611379
O  O174  1  0.90458000  0.95867000  0.66529000  1.0 -0.5018314262
O  O175  1  0.70662000  0.54133000  0.44591000  1.0 -0.5100611379
O  O176  1  0.79338000  0.23929000  0.83471000  1.0 -0.5018314262
O  O177  1  0.05409000  0.59542000  0.26071000  1.0 -0.5018314262
O  O178  1  0.66529000  0.90458000  0.95867000  1.0 -0.5100611379
O  O179  1  0.44591000  0.70662000  0.54133000  1.0 -0.5100611379
O  O180  1  0.83471000  0.79338000  0.23929000  1.0 -0.5100611379
O  O181  1  0.73929000  0.94591000  0.40458000  1.0 -0.5100611379
O  O182  1  0.04133000  0.33471000  0.09542000  1.0 -0.5018314262
O  O183  1  0.45867000  0.55409000  0.29338000  1.0 -0.5100611379
O  O184  1  0.76071000  0.16529000  0.20662000  1.0 -0.5100611379
O  O185  1  0.40458000  0.73929000  0.94591000  1.0 -0.5018314262
O  O186  1  0.09542000  0.04133000  0.33471000  1.0 -0.5100611379
O  O187  1  0.29338000  0.45867000  0.55409000  1.0 -0.5100611379
O  O188  1  0.20662000  0.76071000  0.16529000  1.0 -0.5100611379
O  O189  1  0.94591000  0.40458000  0.73929000  1.0 -0.5018314262
O  O190  1  0.33471000  0.09542000  0.04133000  1.0 -0.5100611379
O  O191  1  0.55409000  0.29338000  0.45867000  1.0 -0.5100611379
O  O192  1  0.16529000  0.20662000  0.76071000  1.0 -0.5100611379
O  O193  1  0.30055000  0.07999000  0.65364000  1.0 -0.5296928935
O  O194  1  0.92635000  0.64691000  0.84636000  1.0 -0.5296928935
O  O195  1  0.57365000  0.42001000  0.72056000  1.0 -0.5296928935
O  O196  1  0.19945000  0.85309000  0.77944000  1.0 -0.5296928935
O  O197  1  0.65364000  0.30055000  0.07999000  1.0 -0.5296928935
O  O198  1  0.84636000  0.92635000  0.64691000  1.0 -0.5296928935
O  O199  1  0.72056000  0.57365000  0.42001000  1.0 -0.5296928935
O  O200  1  0.77944000  0.19945000  0.85309000  1.0 -0.5296928935
O  O201  1  0.07999000  0.65364000  0.30055000  1.0 -0.5296928935
O  O202  1  0.64691000  0.84636000  0.92635000  1.0 -0.5296928935
O  O203  1  0.42001000  0.72056000  0.57365000  1.0 -0.5296928935
O  O204  1  0.85309000  0.77944000  0.19945000  1.0 -0.5296928935
O  O205  1  0.69945000  0.92001000  0.34636000  1.0 -0.5296928935
O  O206  1  0.07365000  0.35309000  0.15364000  1.0 -0.5296928935
O  O207  1  0.42635000  0.57999000  0.27944000  1.0 -0.5296928935
O  O208  1  0.80055000  0.14691000  0.22056000  1.0 -0.5296928935
O  O209  1  0.34636000  0.69945000  0.92001000  1.0 -0.5296928935
O  O210  1  0.15364000  0.07365000  0.35309000  1.0 -0.5296928935
O  O211  1  0.27944000  0.42635000  0.57999000  1.0 -0.5296928935
O  O212  1  0.22056000  0.80055000  0.14691000  1.0 -0.5296928935
O  O213  1  0.92001000  0.34636000  0.69945000  1.0 -0.5296928935
O  O214  1  0.35309000  0.15364000  0.07365000  1.0 -0.5296928935
O  O215  1  0.57999000  0.27944000  0.42635000  1.0 -0.5296928935
O  O216  1  0.14691000  0.22056000  0.80055000  1.0 -0.5296928935
O  O217  1  0.19572000  0.92057000  0.52899000  1.0 -0.5100611379
O  O218  1  0.89158000  0.66666667  0.97101000  1.0 -0.5100611379
O  O219  1  0.60842000  0.57943000  0.77515000  1.0 -0.5100611379
O  O220  1  0.30428000  0.83327000  0.72485000  1.0 -0.5100611379
O  O221  1  0.52899000  0.19572000  0.92057000  1.0 -0.5100611379
O  O222  1  0.97101000  0.89158000  0.66666667  1.0 -0.5100611379
O  O223  1  0.77515000  0.60842000  0.57943000  1.0 -0.5100611379
O  O224  1  0.72485000  0.30428000  0.83327000  1.0 -0.5100611379
O  O225  1  0.92057000  0.52899000  0.19572000  1.0 -0.5100611379
O  O226  1  0.66666667  0.97101000  0.89158000  1.0 -0.5100611379
O  O227  1  0.57943000  0.77515000  0.60842000  1.0 -0.5100611379
O  O228  1  0.83327000  0.72485000  0.30428000  1.0 -0.5100611379
O  O229  1  0.80428000  0.07943000  0.47101000  1.0 -0.5100611379
O  O230  1  0.10842000  0.33327000  0.02899000  1.0 -0.5100611379
O  O231  1  0.39158000  0.42057000  0.22485000  1.0 -0.5100611379
O  O232  1  0.69572000  0.16673000  0.27515000  1.0 -0.5100611379
O  O233  1  0.47101000  0.80428000  0.07943000  1.0 -0.5100611379
O  O234  1  0.02899000  0.10842000  0.33327000  1.0 -0.5100611379
O  O235  1  0.22485000  0.39158000  0.42057000  1.0 -0.5100611379
O  O236  1  0.27515000  0.69572000  0.16673000  1.0 -0.5100611379
O  O237  1  0.07943000  0.47101000  0.80428000  1.0 -0.5100611379
O  O238  1  0.33327000  0.02899000  0.10842000  1.0 -0.5100611379
O  O239  1  0.42057000  0.22485000  0.39158000  1.0 -0.5100611379
O  O240  1  0.16673000  0.27515000  0.69572000  1.0 -0.5100611379
O  O241  1  0.21619000  0.89238000  0.55497000  1.0 -0.5296928935
O  O242  1  0.83741000  0.66122000  0.94503000  1.0 -0.5296928935
O  O243  1  0.66259000  0.60762000  0.82381000  1.0 -0.5296928935
O  O244  1  0.28381000  0.83878000  0.67619000  1.0 -0.5296928935
O  O245  1  0.55497000  0.21619000  0.89238000  1.0 -0.5296928935
O  O246  1  0.94503000  0.83741000  0.66122000  1.0 -0.5296928935
O  O247  1  0.82381000  0.66259000  0.60762000  1.0 -0.5296928935
O  O248  1  0.67619000  0.28381000  0.83878000  1.0 -0.5296928935
O  O249  1  0.89238000  0.55497000  0.21619000  1.0 -0.5296928935
O  O250  1  0.66122000  0.94503000  0.83741000  1.0 -0.5296928935
O  O251  1  0.60762000  0.82381000  0.66259000  1.0 -0.5296928935
O  O252  1  0.83878000  0.67619000  0.28381000  1.0 -0.5296928935
O  O253  1  0.78381000  0.10762000  0.44503000  1.0 -0.5296928935
O  O254  1  0.16259000  0.33878000  0.05497000  1.0 -0.5296928935
O  O255  1  0.33741000  0.39238000  0.17619000  1.0 -0.5296928935
O  O256  1  0.71619000  0.16122000  0.32381000  1.0 -0.5296928935
O  O257  1  0.44503000  0.78381000  0.10762000  1.0 -0.5296928935
O  O258  1  0.05497000  0.16259000  0.33878000  1.0 -0.5296928935
O  O259  1  0.17619000  0.33741000  0.39238000  1.0 -0.5296928935
O  O260  1  0.32381000  0.71619000  0.16122000  1.0 -0.5296928935
O  O261  1  0.10762000  0.44503000  0.78381000  1.0 -0.5296928935
O  O262  1  0.33878000  0.05497000  0.16259000  1.0 -0.5296928935
O  O263  1  0.39238000  0.17619000  0.33741000  1.0 -0.5296928935
O  O264  1  0.16122000  0.32381000  0.71619000  1.0 -0.5296928935
O  O265  1  0.33353000  0.89582000  0.66721000  1.0 -0.5100611379
O  O266  1  0.72861000  0.66632000  0.83279000  1.0 -0.5100611379
O  O267  1  0.77139000  0.60418000  0.93771000  1.0 -0.5100611379
O  O268  1  0.16647000  0.83368000  0.56229000  1.0 -0.5100611379
O  O269  1  0.66721000  0.33353000  0.89582000  1.0 -0.5100611379
O  O270  1  0.83279000  0.72861000  0.66632000  1.0 -0.5100611379
O  O271  1  0.93771000  0.77139000  0.60418000  1.0 -0.5100611379
O  O272  1  0.56229000  0.16647000  0.83368000  1.0 -0.5100611379
O  O273  1  0.89582000  0.66721000  0.33353000  1.0 -0.5100611379
O  O274  1  0.66632000  0.83279000  0.72861000  1.0 -0.5100611379
O  O275  1  0.60418000  0.93771000  0.77139000  1.0 -0.5100611379
O  O276  1  0.83368000  0.56229000  0.16647000  1.0 -0.5100611379
O  O277  1  0.66647000  0.10418000  0.33279000  1.0 -0.5100611379
O  O278  1  0.27139000  0.33368000  0.16721000  1.0 -0.5100611379
O  O279  1  0.22861000  0.39582000  0.06229000  1.0 -0.5100611379
O  O280  1  0.83353000  0.16632000  0.43771000  1.0 -0.5100611379
O  O281  1  0.33279000  0.66647000  0.10418000  1.0 -0.5100611379
O  O282  1  0.16721000  0.27139000  0.33368000  1.0 -0.5100611379
O  O283  1  0.06229000  0.22861000  0.39582000  1.0 -0.5100611379
O  O284  1  0.43771000  0.83353000  0.16632000  1.0 -0.5100611379
O  O285  1  0.10418000  0.33279000  0.66647000  1.0 -0.5100611379
O  O286  1  0.33368000  0.16721000  0.27139000  1.0 -0.5100611379
O  O287  1  0.39582000  0.06229000  0.22861000  1.0 -0.5100611379
O  O288  1  0.16632000  0.43771000  0.83353000  1.0 -0.5100611379
O  O289  1  0.45410000  0.05988000  0.76822000  1.0 -0.5018314262
O  O290  1  0.79166000  0.68588000  0.73178000  1.0 -0.5018314262
O  O291  1  0.70834000  0.44012000  0.89422000  1.0 -0.5018314262
O  O292  1  0.04590000  0.81412000  0.60578000  1.0 -0.5018314262
O  O293  1  0.76822000  0.45410000  0.05988000  1.0 -0.5018314262
O  O294  1  0.73178000  0.79166000  0.68588000  1.0 -0.5018314262
O  O295  1  0.89422000  0.70834000  0.44012000  1.0 -0.5018314262
O  O296  1  0.60578000  0.04590000  0.81412000  1.0 -0.5018314262
O  O297  1  0.05988000  0.76822000  0.45410000  1.0 -0.5018314262
O  O298  1  0.68588000  0.73178000  0.79166000  1.0 -0.5018314262
O  O299  1  0.44012000  0.89422000  0.70834000  1.0 -0.5018314262
O  O300  1  0.81412000  0.60578000  0.04590000  1.0 -0.5018314262
O  O301  1  0.54590000  0.94012000  0.23178000  1.0 -0.5018314262
O  O302  1  0.20834000  0.31412000  0.26822000  1.0 -0.5018314262
O  O303  1  0.29166000  0.55988000  0.10578000  1.0 -0.5018314262
O  O304  1  0.95410000  0.18588000  0.39422000  1.0 -0.5018314262
O  O305  1  0.23178000  0.54590000  0.94012000  1.0 -0.5018314262
O  O306  1  0.26822000  0.20834000  0.31412000  1.0 -0.5018314262
O  O307  1  0.10578000  0.29166000  0.55988000  1.0 -0.5018314262
O  O308  1  0.39422000  0.95410000  0.18588000  1.0 -0.5018314262
O  O309  1  0.94012000  0.23178000  0.54590000  1.0 -0.5018314262
O  O310  1  0.31412000  0.26822000  0.20834000  1.0 -0.5018314262
O  O311  1  0.55988000  0.10578000  0.29166000  1.0 -0.5018314262
O  O312  1  0.18588000  0.39422000  0.95410000  1.0 -0.5018314262
O  O313  1  0.41240000  0.07593000  0.76693000  1.0 -0.5221755768
O  O314  1  0.80900000  0.64547000  0.73307000  1.0 -0.5221755768
O  O315  1  0.69100000  0.42407000  0.83647000  1.0 -0.5221755768
O  O316  1  0.08760000  0.85453000  0.66353000  1.0 -0.5221755768
O  O317  1  0.76693000  0.41240000  0.07593000  1.0 -0.5221755768
O  O318  1  0.73307000  0.80900000  0.64547000  1.0 -0.5221755768
O  O319  1  0.83647000  0.69100000  0.42407000  1.0 -0.5221755768
O  O320  1  0.66353000  0.08760000  0.85453000  1.0 -0.5221755768
O  O321  1  0.07593000  0.76693000  0.41240000  1.0 -0.5221755768
O  O322  1  0.64547000  0.73307000  0.80900000  1.0 -0.5221755768
O  O323  1  0.42407000  0.83647000  0.69100000  1.0 -0.5221755768
O  O324  1  0.85453000  0.66353000  0.08760000  1.0 -0.5221755768
O  O325  1  0.58760000  0.92407000  0.23307000  1.0 -0.5221755768
O  O326  1  0.19100000  0.35453000  0.26693000  1.0 -0.5221755768
O  O327  1  0.30900000  0.57593000  0.16353000  1.0 -0.5221755768
O  O328  1  0.91240000  0.14547000  0.33647000  1.0 -0.5221755768
O  O329  1  0.23307000  0.58760000  0.92407000  1.0 -0.5221755768
O  O330  1  0.26693000  0.19100000  0.35453000  1.0 -0.5221755768
O  O331  1  0.16353000  0.30900000  0.57593000  1.0 -0.5221755768
O  O332  1  0.33647000  0.91240000  0.14547000  1.0 -0.5221755768
O  O333  1  0.92407000  0.23307000  0.58760000  1.0 -0.5221755768
O  O334  1  0.35453000  0.26693000  0.19100000  1.0 -0.5221755768
O  O335  1  0.57593000  0.16353000  0.30900000  1.0 -0.5221755768
O  O336  1  0.14547000  0.33647000  0.91240000  1.0 -0.5221755768
O  O337  1  0.28330000  0.10545000  0.57173000  1.0 -0.5100611379
O  O338  1  0.03372000  0.71157000  0.92827000  1.0 -0.5100611379
O  O339  1  0.46628000  0.39455000  0.67785000  1.0 -0.5100611379
O  O340  1  0.21670000  0.78843000  0.82215000  1.0 -0.5018314262
O  O341  1  0.57173000  0.28330000  0.10545000  1.0 -0.5100611379
O  O342  1  0.92827000  0.03372000  0.71157000  1.0 -0.5100611379
O  O343  1  0.67785000  0.46628000  0.39455000  1.0 -0.5018314262
O  O344  1  0.82215000  0.21670000  0.78843000  1.0 -0.5100611379
O  O345  1  0.10545000  0.57173000  0.28330000  1.0 -0.5018314262
O  O346  1  0.71157000  0.92827000  0.03372000  1.0 -0.5018314262
O  O347  1  0.39455000  0.67785000  0.46628000  1.0 -0.5100611379
O  O348  1  0.78843000  0.82215000  0.21670000  1.0 -0.5100611379
O  O349  1  0.71670000  0.89455000  0.42827000  1.0 -0.5018314262
O  O350  1  0.96628000  0.28843000  0.07173000  1.0 -0.5018314262
O  O351  1  0.53372000  0.60545000  0.32215000  1.0 -0.5018314262
O  O352  1  0.78330000  0.21157000  0.17785000  1.0 -0.5100611379
O  O353  1  0.42827000  0.71670000  0.89455000  1.0 -0.5018314262
O  O354  1  0.07173000  0.96628000  0.28843000  1.0 -0.5018314262
O  O355  1  0.32215000  0.53372000  0.60545000  1.0 -0.5018314262
O  O356  1  0.17785000  0.78330000  0.21157000  1.0 -0.5018314262
O  O357  1  0.89455000  0.42827000  0.71670000  1.0 -0.5100611379
O  O358  1  0.28843000  0.07173000  0.96628000  1.0 -0.5100611379
O  O359  1  0.60545000  0.32215000  0.53372000  1.0 -0.5100611379
O  O360  1  0.21157000  0.17785000  0.78330000  1.0 -0.5018314262
O  O361  1  0.32155000  0.16431000  0.59862000  1.0 -0.5393235301
O  O362  1  0.06569000  0.72293000  0.90138000  1.0 -0.5393235301
O  O363  1  0.43431000  0.33569000  0.65724000  1.0 -0.5393235301
O  O364  1  0.17845000  0.77707000  0.84276000  1.0 -0.5393235301
O  O365  1  0.59862000  0.32155000  0.16431000  1.0 -0.5393235301
O  O366  1  0.90138000  0.06569000  0.72293000  1.0 -0.5393235301
O  O367  1  0.65724000  0.43431000  0.33569000  1.0 -0.5393235301
O  O368  1  0.84276000  0.17845000  0.77707000  1.0 -0.5393235301
O  O369  1  0.16431000  0.59862000  0.32155000  1.0 -0.5393235301
O  O370  1  0.72293000  0.90138000  0.06569000  1.0 -0.5393235301
O  O371  1  0.33569000  0.65724000  0.43431000  1.0 -0.5393235301
O  O372  1  0.77707000  0.84276000  0.17845000  1.0 -0.5393235301
O  O373  1  0.67845000  0.83569000  0.40138000  1.0 -0.5393235301
O  O374  1  0.93431000  0.27707000  0.09862000  1.0 -0.5393235301
O  O375  1  0.56569000  0.66431000  0.34276000  1.0 -0.5393235301
O  O376  1  0.82155000  0.22293000  0.15724000  1.0 -0.5393235301
O  O377  1  0.40138000  0.67845000  0.83569000  1.0 -0.5393235301
O  O378  1  0.09862000  0.93431000  0.27707000  1.0 -0.5393235301
O  O379  1  0.34276000  0.56569000  0.66431000  1.0 -0.5393235301
O  O380  1  0.15724000  0.82155000  0.22293000  1.0 -0.5393235301
O  O381  1  0.83569000  0.40138000  0.67845000  1.0 -0.5393235301
O  O382  1  0.27707000  0.09862000  0.93431000  1.0 -0.5393235301
O  O383  1  0.66431000  0.34276000  0.56569000  1.0 -0.5393235301
O  O384  1  0.22293000  0.15724000  0.82155000  1.0 -0.5393235301
O  O385  1  0.21735000  0.07978000  0.41557000  1.0 -0.5296928935
O  O386  1  0.16421000  0.80178000  0.08443000  1.0 -0.5296928935
O  O387  1  0.33579000  0.42022000  0.63757000  1.0 -0.5296928935
O  O388  1  0.28265000  0.69822000  0.86243000  1.0 -0.5296928935
O  O389  1  0.41557000  0.21735000  0.07978000  1.0 -0.5296928935
O  O390  1  0.08443000  0.16421000  0.80178000  1.0 -0.5296928935
O  O391  1  0.63757000  0.33579000  0.42022000  1.0 -0.5296928935
O  O392  1  0.86243000  0.28265000  0.69822000  1.0 -0.5296928935
O  O393  1  0.07978000  0.41557000  0.21735000  1.0 -0.5296928935
O  O394  1  0.80178000  0.08443000  0.16421000  1.0 -0.5296928935
O  O395  1  0.42022000  0.63757000  0.33579000  1.0 -0.5296928935
O  O396  1  0.69822000  0.86243000  0.28265000  1.0 -0.5296928935
O  O397  1  0.78265000  0.92022000  0.58443000  1.0 -0.5296928935
O  O398  1  0.83579000  0.19822000  0.91557000  1.0 -0.5296928935
O  O399  1  0.66421000  0.57978000  0.36243000  1.0 -0.5296928935
O  O400  1  0.71735000  0.30178000  0.13757000  1.0 -0.5296928935
O  O401  1  0.58443000  0.78265000  0.92022000  1.0 -0.5296928935
O  O402  1  0.91557000  0.83579000  0.19822000  1.0 -0.5296928935
O  O403  1  0.36243000  0.66421000  0.57978000  1.0 -0.5296928935
O  O404  1  0.13757000  0.71735000  0.30178000  1.0 -0.5296928935
O  O405  1  0.92022000  0.58443000  0.78265000  1.0 -0.5296928935
O  O406  1  0.19822000  0.91557000  0.83579000  1.0 -0.5296928935
O  O407  1  0.57978000  0.36243000  0.66421000  1.0 -0.5296928935
O  O408  1  0.30178000  0.13757000  0.71735000  1.0 -0.5296928935
O  O409  1  0.21274000  0.03945000  0.43381000  1.0 -0.5100611379
O  O410  1  0.10564000  0.77893000  0.06619000  1.0 -0.5100611379
O  O411  1  0.39436000  0.46055000  0.67329000  1.0 -0.5100611379
O  O412  1  0.28726000  0.72107000  0.82671000  1.0 -0.5100611379
O  O413  1  0.43381000  0.21274000  0.03945000  1.0 -0.5100611379
O  O414  1  0.06619000  0.10564000  0.77893000  1.0 -0.5100611379
O  O415  1  0.67329000  0.39436000  0.46055000  1.0 -0.5100611379
O  O416  1  0.82671000  0.28726000  0.72107000  1.0 -0.5100611379
O  O417  1  0.03945000  0.43381000  0.21274000  1.0 -0.5100611379
O  O418  1  0.77893000  0.06619000  0.10564000  1.0 -0.5100611379
O  O419  1  0.46055000  0.67329000  0.39436000  1.0 -0.5100611379
O  O420  1  0.72107000  0.82671000  0.28726000  1.0 -0.5100611379
O  O421  1  0.78726000  0.96055000  0.56619000  1.0 -0.5100611379
O  O422  1  0.89436000  0.22107000  0.93381000  1.0 -0.5100611379
O  O423  1  0.60564000  0.53945000  0.32671000  1.0 -0.5100611379
O  O424  1  0.71274000  0.27893000  0.17329000  1.0 -0.5100611379
O  O425  1  0.56619000  0.78726000  0.96055000  1.0 -0.5100611379
O  O426  1  0.93381000  0.89436000  0.22107000  1.0 -0.5100611379
O  O427  1  0.32671000  0.60564000  0.53945000  1.0 -0.5100611379
O  O428  1  0.17329000  0.71274000  0.27893000  1.0 -0.5100611379
O  O429  1  0.96055000  0.56619000  0.78726000  1.0 -0.5100611379
O  O430  1  0.22107000  0.93381000  0.89436000  1.0 -0.5100611379
O  O431  1  0.53945000  0.32671000  0.60564000  1.0 -0.5100611379
O  O432  1  0.27893000  0.17329000  0.71274000  1.0 -0.5100611379
O  O433  1  0.45830000  0.29266000  0.56312000  1.0 -0.5221755768
O  O434  1  0.22954000  0.89518000  0.93688000  1.0 -0.5221755768
O  O435  1  0.27046000  0.20734000  0.66564000  1.0 -0.5221755768
O  O436  1  0.04170000  0.60482000  0.83436000  1.0 -0.5221755768
O  O437  1  0.56312000  0.45830000  0.29266000  1.0 -0.5221755768
O  O438  1  0.93688000  0.22954000  0.89518000  1.0 -0.5221755768
O  O439  1  0.66564000  0.27046000  0.20734000  1.0 -0.5221755768
O  O440  1  0.83436000  0.04170000  0.60482000  1.0 -0.5221755768
O  O441  1  0.29266000  0.56312000  0.45830000  1.0 -0.5221755768
O  O442  1  0.89518000  0.93688000  0.22954000  1.0 -0.5221755768
O  O443  1  0.20734000  0.66564000  0.27046000  1.0 -0.5221755768
O  O444  1  0.60482000  0.83436000  0.04170000  1.0 -0.5221755768
O  O445  1  0.54170000  0.70734000  0.43688000  1.0 -0.5221755768
O  O446  1  0.77046000  0.10482000  0.06312000  1.0 -0.5221755768
O  O447  1  0.72954000  0.79266000  0.33436000  1.0 -0.5221755768
O  O448  1  0.95830000  0.39518000  0.16564000  1.0 -0.5221755768
O  O449  1  0.43688000  0.54170000  0.70734000  1.0 -0.5221755768
O  O450  1  0.06312000  0.77046000  0.10482000  1.0 -0.5221755768
O  O451  1  0.33436000  0.72954000  0.79266000  1.0 -0.5221755768
O  O452  1  0.16564000  0.95830000  0.39518000  1.0 -0.5221755768
O  O453  1  0.70734000  0.43688000  0.54170000  1.0 -0.5221755768
O  O454  1  0.10482000  0.06312000  0.77046000  1.0 -0.5221755768
O  O455  1  0.79266000  0.33436000  0.72954000  1.0 -0.5221755768
O  O456  1  0.39518000  0.16564000  0.95830000  1.0 -0.5221755768
O  O457  1  0.43557000  0.27694000  0.59627000  1.0 -0.5221755768
O  O458  1  0.18067000  0.83930000  0.90373000  1.0 -0.5221755768
O  O459  1  0.31933000  0.22306000  0.65863000  1.0 -0.5221755768
O  O460  1  0.06443000  0.66070000  0.84137000  1.0 -0.5221755768
O  O461  1  0.59627000  0.43557000  0.27694000  1.0 -0.5221755768
O  O462  1  0.90373000  0.18067000  0.83930000  1.0 -0.5221755768
O  O463  1  0.65863000  0.31933000  0.22306000  1.0 -0.5221755768
O  O464  1  0.84137000  0.06443000  0.66070000  1.0 -0.5221755768
O  O465  1  0.27694000  0.59627000  0.43557000  1.0 -0.5221755768
O  O466  1  0.83930000  0.90373000  0.18067000  1.0 -0.5221755768
O  O467  1  0.22306000  0.65863000  0.31933000  1.0 -0.5221755768
O  O468  1  0.66070000  0.84137000  0.06443000  1.0 -0.5221755768
O  O469  1  0.56443000  0.72306000  0.40373000  1.0 -0.5221755768
O  O470  1  0.81933000  0.16070000  0.09627000  1.0 -0.5221755768
O  O471  1  0.68067000  0.77694000  0.34137000  1.0 -0.5221755768
O  O472  1  0.93557000  0.33930000  0.15863000  1.0 -0.5221755768
O  O473  1  0.40373000  0.56443000  0.72306000  1.0 -0.5221755768
O  O474  1  0.09627000  0.81933000  0.16070000  1.0 -0.5221755768
O  O475  1  0.34137000  0.68067000  0.77694000  1.0 -0.5221755768
O  O476  1  0.15863000  0.93557000  0.33930000  1.0 -0.5221755768
O  O477  1  0.72306000  0.40373000  0.56443000  1.0 -0.5221755768
O  O478  1  0.16070000  0.09627000  0.81933000  1.0 -0.5221755768
O  O479  1  0.77694000  0.34137000  0.68067000  1.0 -0.5221755768
O  O480  1  0.33930000  0.15863000  0.93557000  1.0 -0.5221755768
O  O481  1  0.32545000  0.18957000  0.41080000  1.0 -0.5221755768
O  O482  1  0.27877000  0.91465000  0.08920000  1.0 -0.5221755768
O  O483  1  0.22123000  0.31043000  0.63588000  1.0 -0.5221755768
O  O484  1  0.17455000  0.58535000  0.86412000  1.0 -0.5221755768
O  O485  1  0.41080000  0.32545000  0.18957000  1.0 -0.5221755768
O  O486  1  0.08920000  0.27877000  0.91465000  1.0 -0.5221755768
O  O487  1  0.63588000  0.22123000  0.31043000  1.0 -0.5221755768
O  O488  1  0.86412000  0.17455000  0.58535000  1.0 -0.5221755768
O  O489  1  0.18957000  0.41080000  0.32545000  1.0 -0.5221755768
O  O490  1  0.91465000  0.08920000  0.27877000  1.0 -0.5221755768
O  O491  1  0.31043000  0.63588000  0.22123000  1.0 -0.5221755768
O  O492  1  0.58535000  0.86412000  0.17455000  1.0 -0.5221755768
O  O493  1  0.67455000  0.81043000  0.58920000  1.0 -0.5221755768
O  O494  1  0.72123000  0.08535000  0.91080000  1.0 -0.5221755768
O  O495  1  0.77877000  0.68957000  0.36412000  1.0 -0.5221755768
O  O496  1  0.82545000  0.41465000  0.13588000  1.0 -0.5221755768
O  O497  1  0.58920000  0.67455000  0.81043000  1.0 -0.5221755768
O  O498  1  0.91080000  0.72123000  0.08535000  1.0 -0.5221755768
O  O499  1  0.36412000  0.77877000  0.68957000  1.0 -0.5221755768
O  O500  1  0.13588000  0.82545000  0.41465000  1.0 -0.5221755768
O  O501  1  0.81043000  0.58920000  0.67455000  1.0 -0.5221755768
O  O502  1  0.08535000  0.91080000  0.72123000  1.0 -0.5221755768
O  O503  1  0.68957000  0.36412000  0.77877000  1.0 -0.5221755768
O  O504  1  0.41465000  0.13588000  0.82545000  1.0 -0.5221755768
O  O505  1  0.38280000  0.22574000  0.43172000  1.0 -0.4917339213
O  O506  1  0.29402000  0.95108000  0.06828000  1.0 -0.4917339213
O  O507  1  0.20598000  0.27426000  0.65706000  1.0 -0.4917339213
O  O508  1  0.11720000  0.54892000  0.84294000  1.0 -0.4917339213
O  O509  1  0.43172000  0.38280000  0.22574000  1.0 -0.4917339213
O  O510  1  0.06828000  0.29402000  0.95108000  1.0 -0.4917339213
O  O511  1  0.65706000  0.20598000  0.27426000  1.0 -0.4917339213
O  O512  1  0.84294000  0.11720000  0.54892000  1.0 -0.4917339213
O  O513  1  0.22574000  0.43172000  0.38280000  1.0 -0.4917339213
O  O514  1  0.95108000  0.06828000  0.29402000  1.0 -0.4917339213
O  O515  1  0.27426000  0.65706000  0.20598000  1.0 -0.4917339213
O  O516  1  0.54892000  0.84294000  0.11720000  1.0 -0.4917339213
O  O517  1  0.61720000  0.77426000  0.56828000  1.0 -0.4917339213
O  O518  1  0.70598000  0.04892000  0.93172000  1.0 -0.4917339213
O  O519  1  0.79402000  0.72574000  0.34294000  1.0 -0.4917339213
O  O520  1  0.88280000  0.45108000  0.15706000  1.0 -0.4917339213
O  O521  1  0.56828000  0.61720000  0.77426000  1.0 -0.4917339213
O  O522  1  0.93172000  0.70598000  0.04892000  1.0 -0.4917339213
O  O523  1  0.34294000  0.79402000  0.72574000  1.0 -0.4917339213
O  O524  1  0.15706000  0.88280000  0.45108000  1.0 -0.4917339213
O  O525  1  0.77426000  0.56828000  0.61720000  1.0 -0.4917339213
O  O526  1  0.04892000  0.93172000  0.70598000  1.0 -0.4917339213
O  O527  1  0.72574000  0.34294000  0.79402000  1.0 -0.4917339213
O  O528  1  0.45108000  0.15706000  0.88280000  1.0 -0.4917339213
O  O529  1  0.15166000  0.78398000  0.44904000  1.0 -0.5100611379
O  O530  1  0.83494000  0.70262000  0.05096000  1.0 -0.5100611379
O  O531  1  0.66506000  0.71602000  0.86768000  1.0 -0.5100611379
O  O532  1  0.34834000  0.79738000  0.63232000  1.0 -0.5100611379
O  O533  1  0.44904000  0.15166000  0.78398000  1.0 -0.5100611379
O  O534  1  0.05096000  0.83494000  0.70262000  1.0 -0.5100611379
O  O535  1  0.86768000  0.66506000  0.71602000  1.0 -0.5100611379
O  O536  1  0.63232000  0.34834000  0.79738000  1.0 -0.5100611379
O  O537  1  0.78398000  0.44904000  0.15166000  1.0 -0.5100611379
O  O538  1  0.70262000  0.05096000  0.83494000  1.0 -0.5100611379
O  O539  1  0.71602000  0.86768000  0.66506000  1.0 -0.5100611379
O  O540  1  0.79738000  0.63232000  0.34834000  1.0 -0.5100611379
O  O541  1  0.84834000  0.21602000  0.55096000  1.0 -0.5100611379
O  O542  1  0.16506000  0.29738000  0.94904000  1.0 -0.5100611379
O  O543  1  0.33494000  0.28398000  0.13232000  1.0 -0.5100611379
O  O544  1  0.65166000  0.20262000  0.36768000  1.0 -0.5100611379
O  O545  1  0.55096000  0.84834000  0.21602000  1.0 -0.5100611379
O  O546  1  0.94904000  0.16506000  0.29738000  1.0 -0.5100611379
O  O547  1  0.13232000  0.33494000  0.28398000  1.0 -0.5100611379
O  O548  1  0.36768000  0.65166000  0.20262000  1.0 -0.5100611379
O  O549  1  0.21602000  0.55096000  0.84834000  1.0 -0.5100611379
O  O550  1  0.29738000  0.94904000  0.16506000  1.0 -0.5100611379
O  O551  1  0.28398000  0.13232000  0.33494000  1.0 -0.5100611379
O  O552  1  0.20262000  0.36768000  0.65166000  1.0 -0.5100611379
O  O553  1  0.19117000  0.81127000  0.50682000  1.0 -0.5100611379
O  O554  1  0.80445000  0.68435000  0.99318000  1.0 -0.5100611379
O  O555  1  0.69555000  0.68873000  0.87990000  1.0 -0.5100611379
O  O556  1  0.30883000  0.81565000  0.62010000  1.0 -0.5100611379
O  O557  1  0.50682000  0.19117000  0.81127000  1.0 -0.5100611379
O  O558  1  0.99318000  0.80445000  0.68435000  1.0 -0.5100611379
O  O559  1  0.87990000  0.69555000  0.68873000  1.0 -0.5100611379
O  O560  1  0.62010000  0.30883000  0.81565000  1.0 -0.5100611379
O  O561  1  0.81127000  0.50682000  0.19117000  1.0 -0.5100611379
O  O562  1  0.68435000  0.99318000  0.80445000  1.0 -0.5100611379
O  O563  1  0.68873000  0.87990000  0.69555000  1.0 -0.5100611379
O  O564  1  0.81565000  0.62010000  0.30883000  1.0 -0.5100611379
O  O565  1  0.80883000  0.18873000  0.49318000  1.0 -0.5100611379
O  O566  1  0.19555000  0.31565000  0.00682000  1.0 -0.5100611379
O  O567  1  0.30445000  0.31127000  0.12010000  1.0 -0.5100611379
O  O568  1  0.69117000  0.18435000  0.37990000  1.0 -0.5100611379
O  O569  1  0.49318000  0.80883000  0.18873000  1.0 -0.5100611379
O  O570  1  0.00682000  0.19555000  0.31565000  1.0 -0.5100611379
O  O571  1  0.12010000  0.30445000  0.31127000  1.0 -0.5100611379
O  O572  1  0.37990000  0.69117000  0.18435000  1.0 -0.5100611379
O  O573  1  0.18873000  0.49318000  0.80883000  1.0 -0.5100611379
O  O574  1  0.31565000  0.00682000  0.19555000  1.0 -0.5100611379
O  O575  1  0.31127000  0.12010000  0.30445000  1.0 -0.5100611379
O  O576  1  0.18435000  0.37990000  0.69117000  1.0 -0.5100611379
O  O577  1  0.15460000  0.69797000  0.35901000  1.0 -0.5296928935
O  O578  1  0.83896000  0.79559000  0.14099000  1.0 -0.5296928935
O  O579  1  0.66104000  0.80203000  0.95663000  1.0 -0.5296928935
O  O580  1  0.34540000  0.70441000  0.54337000  1.0 -0.5296928935
O  O581  1  0.35901000  0.15460000  0.69797000  1.0 -0.5296928935
O  O582  1  0.14099000  0.83896000  0.79559000  1.0 -0.5296928935
O  O583  1  0.95663000  0.66104000  0.80203000  1.0 -0.5296928935
O  O584  1  0.54337000  0.34540000  0.70441000  1.0 -0.5296928935
O  O585  1  0.69797000  0.35901000  0.15460000  1.0 -0.5296928935
O  O586  1  0.79559000  0.14099000  0.83896000  1.0 -0.5296928935
O  O587  1  0.80203000  0.95663000  0.66104000  1.0 -0.5296928935
O  O588  1  0.70441000  0.54337000  0.34540000  1.0 -0.5296928935
O  O589  1  0.84540000  0.30203000  0.64099000  1.0 -0.5296928935
O  O590  1  0.16104000  0.20441000  0.85901000  1.0 -0.5296928935
O  O591  1  0.33896000  0.19797000  0.04337000  1.0 -0.5296928935
O  O592  1  0.65460000  0.29559000  0.45663000  1.0 -0.5296928935
O  O593  1  0.64099000  0.84540000  0.30203000  1.0 -0.5296928935
O  O594  1  0.85901000  0.16104000  0.20441000  1.0 -0.5296928935
O  O595  1  0.04337000  0.33896000  0.19797000  1.0 -0.5296928935
O  O596  1  0.45663000  0.65460000  0.29559000  1.0 -0.5296928935
O  O597  1  0.30203000  0.64099000  0.84540000  1.0 -0.5296928935
O  O598  1  0.20441000  0.85901000  0.16104000  1.0 -0.5296928935
O  O599  1  0.19797000  0.04337000  0.33896000  1.0 -0.5296928935
O  O600  1  0.29559000  0.45663000  0.65460000  1.0 -0.5296928935
O  O601  1  0.19533000  0.68020000  0.37243000  1.0 -0.5296928935
O  O602  1  0.80777000  0.82290000  0.12757000  1.0 -0.5296928935
O  O603  1  0.69223000  0.81980000  0.01513000  1.0 -0.5296928935
O  O604  1  0.30467000  0.67710000  0.48487000  1.0 -0.5296928935
O  O605  1  0.37243000  0.19533000  0.68020000  1.0 -0.5296928935
O  O606  1  0.12757000  0.80777000  0.82290000  1.0 -0.5296928935
O  O607  1  0.01513000  0.69223000  0.81980000  1.0 -0.5296928935
O  O608  1  0.48487000  0.30467000  0.67710000  1.0 -0.5296928935
O  O609  1  0.68020000  0.37243000  0.19533000  1.0 -0.5296928935
O  O610  1  0.82290000  0.12757000  0.80777000  1.0 -0.5296928935
O  O611  1  0.81980000  0.01513000  0.69223000  1.0 -0.5296928935
O  O612  1  0.67710000  0.48487000  0.30467000  1.0 -0.5296928935
O  O613  1  0.80467000  0.31980000  0.62757000  1.0 -0.5296928935
O  O614  1  0.19223000  0.17710000  0.87243000  1.0 -0.5296928935
O  O615  1  0.30777000  0.18020000  0.98487000  1.0 -0.5296928935
O  O616  1  0.69533000  0.32290000  0.51513000  1.0 -0.5296928935
O  O617  1  0.62757000  0.80467000  0.31980000  1.0 -0.5296928935
O  O618  1  0.87243000  0.19223000  0.17710000  1.0 -0.5296928935
O  O619  1  0.98487000  0.30777000  0.18020000  1.0 -0.5296928935
O  O620  1  0.51513000  0.69533000  0.32290000  1.0 -0.5296928935
O  O621  1  0.31980000  0.62757000  0.80467000  1.0 -0.5296928935
O  O622  1  0.17710000  0.87243000  0.19223000  1.0 -0.5296928935
O  O623  1  0.18020000  0.98487000  0.30777000  1.0 -0.5296928935
O  O624  1  0.32290000  0.51513000  0.69533000  1.0 -0.5296928935
O  O625  1  0.13543000  0.84121000  0.49064000  1.0 -1.0147420381
O  O626  1  0.85057000  0.64479000  0.00936000  1.0 -1.0157176619
O  O627  1  0.64943000  0.65879000  0.79422000  1.0 -1.0147420381
O  O628  1  0.36457000  0.85521000  0.70578000  1.0 -1.0147420381
O  O629  1  0.49064000  0.13543000  0.84121000  1.0 -1.0147420381
O  O630  1  0.00936000  0.85057000  0.64479000  1.0 -1.0147420381
O  O631  1  0.79422000  0.64943000  0.65879000  1.0 -1.0147420381
O  O632  1  0.70578000  0.36457000  0.85521000  1.0 -1.0147420381
O  O633  1  0.84121000  0.49064000  0.13543000  1.0 -1.0157176619
O  O634  1  0.64479000  0.00936000  0.85057000  1.0 -1.0147420381
O  O635  1  0.65879000  0.79422000  0.64943000  1.0 -1.0147420381
O  O636  1  0.85521000  0.70578000  0.36457000  1.0 -1.0157176619
O  O637  1  0.86457000  0.15879000  0.50936000  1.0 -1.0147420381
O  O638  1  0.14943000  0.35521000  0.99064000  1.0 -1.0147420381
O  O639  1  0.35057000  0.34121000  0.20578000  1.0 -1.0157176619
O  O640  1  0.63543000  0.14479000  0.29422000  1.0 -1.0157176619
O  O641  1  0.50936000  0.86457000  0.15879000  1.0 -1.0157176619
O  O642  1  0.99064000  0.14943000  0.35521000  1.0 -1.0147420381
O  O643  1  0.20578000  0.35057000  0.34121000  1.0 -1.0147420381
O  O644  1  0.29422000  0.63543000  0.14479000  1.0 -1.0157176619
O  O645  1  0.15879000  0.50936000  0.86457000  1.0 -1.0147420381
O  O646  1  0.35521000  0.99064000  0.14943000  1.0 -1.0157176619
O  O647  1  0.34121000  0.20578000  0.35057000  1.0 -1.0147420381
O  O648  1  0.14479000  0.29422000  0.63543000  1.0 -1.0147420381
O  O649  1  0.28707000  0.14218000  0.64313000  1.0 -0.9971752728
O  O650  1  0.99905000  0.64394000  0.85687000  1.0 -0.9971752728
O  O651  1  0.50095000  0.35782000  0.64489000  1.0 -0.9971752728
O  O652  1  0.21293000  0.85606000  0.85511000  1.0 -0.9971752728
O  O653  1  0.64313000  0.28707000  0.14218000  1.0 -0.9971752728
O  O654  1  0.85687000  0.99905000  0.64394000  1.0 -0.9971752728
O  O655  1  0.64489000  0.50095000  0.35782000  1.0 -0.9971752728
O  O656  1  0.85511000  0.21293000  0.85606000  1.0 -0.9971752728
O  O657  1  0.14218000  0.64313000  0.28707000  1.0 -0.9971752728
O  O658  1  0.64394000  0.85687000  0.99905000  1.0 -0.9971752728
O  O659  1  0.35782000  0.64489000  0.50095000  1.0 -0.9971752728
O  O660  1  0.85606000  0.85511000  0.21293000  1.0 -0.9971752728
O  O661  1  0.71293000  0.85782000  0.35687000  1.0 -0.9971752728
O  O662  1  0.00095000  0.35606000  0.14313000  1.0 -0.9971752728
O  O663  1  0.49905000  0.64218000  0.35511000  1.0 -0.9971752728
O  O664  1  0.78707000  0.14394000  0.14489000  1.0 -0.9971752728
O  O665  1  0.35687000  0.71293000  0.85782000  1.0 -0.9971752728
O  O666  1  0.14313000  0.00095000  0.35606000  1.0 -0.9971752728
O  O667  1  0.35511000  0.49905000  0.64218000  1.0 -0.9971752728
O  O668  1  0.14489000  0.78707000  0.14394000  1.0 -0.9971752728
O  O669  1  0.85782000  0.35687000  0.71293000  1.0 -0.9971752728
O  O670  1  0.35606000  0.14313000  0.00095000  1.0 -0.9971752728
O  O671  1  0.64218000  0.35511000  0.49905000  1.0 -0.9971752728
O  O672  1  0.14394000  0.14489000  0.78707000  1.0 -0.9971752728
O  O673  1  0.39305000  0.92204000  0.69441000  1.0 -0.5018314262
O  O674  1  0.72763000  0.69864000  0.80559000  1.0 -0.5018314262
O  O675  1  0.77237000  0.57796000  0.97101000  1.0 -0.5018314262
O  O676  1  0.10695000  0.80136000  0.52899000  1.0 -0.5018314262
O  O677  1  0.69441000  0.39305000  0.92204000  1.0 -0.5018314262
O  O678  1  0.80559000  0.72763000  0.69864000  1.0 -0.5018314262
O  O679  1  0.97101000  0.77237000  0.57796000  1.0 -0.5018314262
O  O680  1  0.52899000  0.10695000  0.80136000  1.0 -0.5018314262
O  O681  1  0.92204000  0.69441000  0.39305000  1.0 -0.5018314262
O  O682  1  0.69864000  0.80559000  0.72763000  1.0 -0.5018314262
O  O683  1  0.57796000  0.97101000  0.77237000  1.0 -0.5018314262
O  O684  1  0.80136000  0.52899000  0.10695000  1.0 -0.5018314262
O  O685  1  0.60695000  0.07796000  0.30559000  1.0 -0.5018314262
O  O686  1  0.27237000  0.30136000  0.19441000  1.0 -0.5018314262
O  O687  1  0.22763000  0.42204000  0.02899000  1.0 -0.5018314262
O  O688  1  0.89305000  0.19864000  0.47101000  1.0 -0.5018314262
O  O689  1  0.30559000  0.60695000  0.07796000  1.0 -0.5018314262
O  O690  1  0.19441000  0.27237000  0.30136000  1.0 -0.5018314262
O  O691  1  0.02899000  0.22763000  0.42204000  1.0 -0.5018314262
O  O692  1  0.47101000  0.89305000  0.19864000  1.0 -0.5018314262
O  O693  1  0.07796000  0.30559000  0.60695000  1.0 -0.5018314262
O  O694  1  0.30136000  0.19441000  0.27237000  1.0 -0.5018314262
O  O695  1  0.42204000  0.02899000  0.22763000  1.0 -0.5018314262
O  O696  1  0.19864000  0.47101000  0.89305000  1.0 -0.5018314262
O  O697  1  0.14600000  0.93660000  0.48980000  1.0 0.2624535165
O  O698  1  0.94680000  0.65620000  0.01020000  1.0 0.2660043056
O  O699  1  0.55320000  0.56340000  0.70940000  1.0 0.2624535165
O  O700  1  0.35400000  0.84380000  0.79060000  1.0 0.2624535165
O  O701  1  0.48980000  0.14600000  0.93660000  1.0 0.2624535165
O  O702  1  0.01020000  0.94680000  0.65620000  1.0 0.2624535165
O  O703  1  0.70940000  0.55320000  0.56340000  1.0 0.2660043056
O  O704  1  0.79060000  0.35400000  0.84380000  1.0 0.2624535165
O  O705  1  0.93660000  0.48980000  0.14600000  1.0 0.2802012498
O  O706  1  0.65620000  0.01020000  0.94680000  1.0 0.2624535165
O  O707  1  0.56340000  0.70940000  0.55320000  1.0 0.2660043056
O  O708  1  0.84380000  0.79060000  0.35400000  1.0 0.2660043056
O  O709  1  0.85400000  0.06340000  0.51020000  1.0 0.2660043056
O  O710  1  0.05320000  0.34380000  0.98980000  1.0 0.2624535165
O  O711  1  0.44680000  0.43660000  0.29060000  1.0 0.2624535165
O  O712  1  0.64600000  0.15620000  0.20940000  1.0 0.2624535165
O  O713  1  0.51020000  0.85400000  0.06340000  1.0 0.2624535165
O  O714  1  0.98980000  0.05320000  0.34380000  1.0 0.2624535165
O  O715  1  0.29060000  0.44680000  0.43660000  1.0 0.2624535165
O  O716  1  0.20940000  0.64600000  0.15620000  1.0 0.2624535165
O  O717  1  0.06340000  0.51020000  0.85400000  1.0 0.2624535165
O  O718  1  0.34380000  0.98980000  0.05320000  1.0 0.2624535165
O  O719  1  0.43660000  0.29060000  0.44680000  1.0 0.2624535165
O  O720  1  0.15620000  0.20940000  0.64600000  1.0 0.2624535165
O  O721  1  0.05040000  0.80290000  0.50750000  1.0 0.2302937136
O  O722  1  0.79540000  0.54290000  0.99250000  1.0 0.2302937136
O  O723  1  0.70460000  0.69710000  0.74750000  1.0 0.2302937136
O  O724  1  0.44960000  0.95710000  0.75250000  1.0 0.2302937136
O  O725  1  0.50750000  0.05040000  0.80290000  1.0 0.2302937136
O  O726  1  0.99250000  0.79540000  0.54290000  1.0 0.2398828377
O  O727  1  0.74750000  0.70460000  0.69710000  1.0 0.2398828377
O  O728  1  0.75250000  0.44960000  0.95710000  1.0 0.2302937136
O  O729  1  0.80290000  0.50750000  0.05040000  1.0 0.2398828377
O  O730  1  0.54290000  0.99250000  0.79540000  1.0 0.2302937136
O  O731  1  0.69710000  0.74750000  0.70460000  1.0 0.2302937136
O  O732  1  0.95710000  0.75250000  0.44960000  1.0 0.2302937136
O  O733  1  0.94960000  0.19710000  0.49250000  1.0 0.2398828377
O  O734  1  0.20460000  0.45710000  0.00750000  1.0 0.2302937136
O  O735  1  0.29540000  0.30290000  0.25250000  1.0 0.2302937136
O  O736  1  0.55040000  0.04290000  0.24750000  1.0 0.2302937136
O  O737  1  0.49250000  0.94960000  0.19710000  1.0 0.2302937136
O  O738  1  0.00750000  0.20460000  0.45710000  1.0 0.2302937136
O  O739  1  0.25250000  0.29540000  0.30290000  1.0 0.2398828377
O  O740  1  0.24750000  0.55040000  0.04290000  1.0 0.2398828377
O  O741  1  0.19710000  0.49250000  0.94960000  1.0 0.2240932072
O  O742  1  0.45710000  0.00750000  0.20460000  1.0 0.2302937136
O  O743  1  0.30290000  0.25250000  0.29540000  1.0 0.2302937136
O  O744  1  0.04290000  0.24750000  0.55040000  1.0 0.2302937136
O  O745  1  0.21240000  0.12451000  0.64625000  1.0 -0.5018314262
O  O746  1  0.97826000  0.56615000  0.85375000  1.0 -0.5018314262
O  O747  1  0.52174000  0.37549000  0.58789000  1.0 -0.5018314262
O  O748  1  0.28760000  0.93385000  0.91211000  1.0 -0.5018314262
O  O749  1  0.64625000  0.21240000  0.12451000  1.0 -0.5018314262
O  O750  1  0.85375000  0.97826000  0.56615000  1.0 -0.5018314262
O  O751  1  0.58789000  0.52174000  0.37549000  1.0 -0.5018314262
O  O752  1  0.91211000  0.28760000  0.93385000  1.0 -0.5018314262
O  O753  1  0.12451000  0.64625000  0.21240000  1.0 -0.5018314262
O  O754  1  0.56615000  0.85375000  0.97826000  1.0 -0.5018314262
O  O755  1  0.37549000  0.58789000  0.52174000  1.0 -0.5018314262
O  O756  1  0.93385000  0.91211000  0.28760000  1.0 -0.5018314262
O  O757  1  0.78760000  0.87549000  0.35375000  1.0 -0.5018314262
O  O758  1  0.02174000  0.43385000  0.14625000  1.0 -0.5018314262
O  O759  1  0.47826000  0.62451000  0.41211000  1.0 -0.5018314262
O  O760  1  0.71240000  0.06615000  0.08789000  1.0 -0.5018314262
O  O761  1  0.35375000  0.78760000  0.87549000  1.0 -0.5018314262
O  O762  1  0.14625000  0.02174000  0.43385000  1.0 -0.5018314262
O  O763  1  0.41211000  0.47826000  0.62451000  1.0 -0.5018314262
O  O764  1  0.08789000  0.71240000  0.06615000  1.0 -0.5018314262
O  O765  1  0.87549000  0.35375000  0.78760000  1.0 -0.5018314262
O  O766  1  0.43385000  0.14625000  0.02174000  1.0 -0.5018314262
O  O767  1  0.62451000  0.41211000  0.47826000  1.0 -0.5018314262
O  O768  1  0.06615000  0.08789000  0.71240000  1.0 -0.5018314262
