# DDEC6 charges by PACMAN v1.1 (https://github.com/mtap-research/PACMAN-charge/)
data_QOZFUG_FSR_pacman
_symmetry_space_group_name_H-M   'P 1'
_cell_length_a   13.66200000
_cell_length_b   23.19700000
_cell_length_c   18.91400000
_cell_angle_alpha   90.00000000
_cell_angle_beta   110.07400000
_cell_angle_gamma   90.00000000
_symmetry_Int_Tables_number   1
_chemical_formula_structural   Cu3H72C72(N12O)2
_chemical_formula_sum   'Cu6 H144 C144 N48 O4'
_cell_volume   5630.03039705
_cell_formula_units_Z   2
loop_
 _symmetry_equiv_pos_site_id
 _symmetry_equiv_pos_as_xyz
  1  'x, y, z'
loop_
 _atom_site_type_symbol
 _atom_site_label
 _atom_site_symmetry_multiplicity
 _atom_site_fract_x
 _atom_site_fract_y
 _atom_site_fract_z
 _atom_site_occupancy
 _atom_site_charge
Cu  Cu1  1  0.62718000  0.78813000  0.00636000  1.0 0.6169438518
Cu  Cu2  1  0.37282000  0.28813000  0.49364000  1.0 0.6169438518
Cu  Cu3  1  0.37282000  0.21187000  0.99364000  1.0 0.6169438518
Cu  Cu4  1  0.62718000  0.71187000  0.50636000  1.0 0.6169438518
Cu  Cu5  1  0.00000000  0.50000000  0.50000000  1.0 0.3308865881
Cu  Cu6  1  0.00000000  0.00000000  0.00000000  1.0 0.3308865881
H  H1  1  0.17780000  0.86940000  0.61650000  1.0 0.0786161678
H  H2  1  0.82220000  0.36940000  0.88350000  1.0 0.0786161678
H  H3  1  0.82220000  0.13060000  0.38350000  1.0 0.0786161678
H  H4  1  0.17780000  0.63060000  0.11650000  1.0 0.0786161678
H  H5  1  0.02710000  0.70510000  0.61740000  1.0 0.1097962273
H  H6  1  0.97290000  0.20510000  0.88260000  1.0 0.1097962273
H  H7  1  0.97290000  0.29490000  0.38260000  1.0 0.1097962273
H  H8  1  0.02710000  0.79490000  0.11740000  1.0 0.1097962273
H  H9  1  0.32140000  0.72420000  0.76780000  1.0 0.1097962273
H  H10  1  0.67860000  0.22420000  0.73220000  1.0 0.1097962273
H  H11  1  0.67860000  0.27580000  0.23220000  1.0 0.1097962273
H  H12  1  0.32140000  0.77580000  0.26780000  1.0 0.1097962273
H  H13  1  0.32780000  0.87670000  0.75720000  1.0 0.1187046295
H  H14  1  0.67220000  0.37670000  0.74280000  1.0 0.1187046295
H  H15  1  0.67220000  0.12330000  0.24280000  1.0 0.1187046295
H  H16  1  0.32780000  0.62330000  0.25720000  1.0 0.1187046295
H  H17  1  0.37000000  0.86160000  0.69210000  1.0 0.1187046295
H  H18  1  0.63000000  0.36160000  0.80790000  1.0 0.1187046295
H  H19  1  0.63000000  0.13840000  0.30790000  1.0 0.1187046295
H  H20  1  0.37000000  0.63840000  0.19210000  1.0 0.1187046295
H  H21  1  0.44300000  0.84900000  0.88560000  1.0 0.1097962273
H  H22  1  0.55700000  0.34900000  0.61440000  1.0 0.1097962273
H  H23  1  0.55700000  0.15100000  0.11440000  1.0 0.1097962273
H  H24  1  0.44300000  0.65100000  0.38560000  1.0 0.1097962273
H  H25  1  0.63130000  0.73810000  0.84560000  1.0 0.1187046295
H  H26  1  0.36870000  0.23810000  0.65440000  1.0 0.1187046295
H  H27  1  0.36870000  0.26190000  0.15440000  1.0 0.1187046295
H  H28  1  0.63130000  0.76190000  0.34560000  1.0 0.1187046295
H  H29  1  0.50400000  0.76070000  0.71130000  1.0 0.0603705065
H  H30  1  0.49600000  0.26070000  0.78870000  1.0 0.0603705065
H  H31  1  0.49600000  0.23930000  0.28870000  1.0 0.0603705065
H  H32  1  0.50400000  0.73930000  0.21130000  1.0 0.0603705065
H  H33  1  0.12360000  0.64390000  0.74340000  1.0 0.1187046295
H  H34  1  0.87640000  0.14390000  0.75660000  1.0 0.1187046295
H  H35  1  0.87640000  0.35610000  0.25660000  1.0 0.1187046295
H  H36  1  0.12360000  0.85610000  0.24340000  1.0 0.1187046295
H  H37  1  0.24560000  0.64390000  0.76730000  1.0 0.1187046295
H  H38  1  0.75440000  0.14390000  0.73270000  1.0 0.1187046295
H  H39  1  0.75440000  0.35610000  0.23270000  1.0 0.1187046295
H  H40  1  0.24560000  0.85610000  0.26730000  1.0 0.1187046295
H  H41  1  0.02490000  0.58390000  0.63030000  1.0 0.1097962273
H  H42  1  0.97510000  0.08390000  0.86970000  1.0 0.1097962273
H  H43  1  0.97510000  0.41610000  0.36970000  1.0 0.1097962273
H  H44  1  0.02490000  0.91610000  0.13030000  1.0 0.1097962273
H  H45  1  0.24760000  0.54150000  0.55310000  1.0 0.1187046295
H  H46  1  0.75240000  0.04150000  0.94690000  1.0 0.1187046295
H  H47  1  0.75240000  0.45850000  0.44690000  1.0 0.1187046295
H  H48  1  0.24760000  0.95850000  0.05310000  1.0 0.1187046295
H  H49  1  0.32170000  0.60640000  0.66120000  1.0 0.1253431595
H  H50  1  0.67830000  0.10640000  0.83880000  1.0 0.1253431595
H  H51  1  0.67830000  0.39360000  0.33880000  1.0 0.1253431595
H  H52  1  0.32170000  0.89360000  0.16120000  1.0 0.1253431595
H  H53  1  0.02870000  0.81820000  0.50190000  1.0 0.1097962273
H  H54  1  0.97130000  0.31820000  0.99810000  1.0 0.1097962273
H  H55  1  0.97130000  0.18180000  0.49810000  1.0 0.1097962273
H  H56  1  0.02870000  0.68180000  0.00190000  1.0 0.1097962273
H  H57  1  0.97580000  0.84340000  0.55670000  1.0 0.1187046295
H  H58  1  0.02420000  0.34340000  0.94330000  1.0 0.1187046295
H  H59  1  0.02420000  0.15660000  0.44330000  1.0 0.1187046295
H  H60  1  0.97580000  0.65660000  0.05670000  1.0 0.1187046295
H  H61  1  0.43550000  0.79010000  0.44190000  1.0 0.1097962273
H  H62  1  0.56450000  0.29010000  0.05810000  1.0 0.1097962273
H  H63  1  0.56450000  0.20990000  0.55810000  1.0 0.1097962273
H  H64  1  0.43550000  0.70990000  0.94190000  1.0 0.1097962273
H  H65  1  0.48340000  0.66510000  0.60350000  1.0 0.0907805144
H  H66  1  0.51660000  0.16510000  0.89650000  1.0 0.0907805144
H  H67  1  0.51660000  0.33490000  0.39650000  1.0 0.0907805144
H  H68  1  0.48340000  0.83490000  0.10350000  1.0 0.0907805144
H  H69  1  0.28640000  0.72830000  0.57620000  1.0 0.1016693798
H  H70  1  0.71360000  0.22830000  0.92380000  1.0 0.1016693798
H  H71  1  0.71360000  0.27170000  0.42380000  1.0 0.1016693798
H  H72  1  0.28640000  0.77170000  0.07620000  1.0 0.1016693798
H  H73  1  0.27800000  0.84430000  0.44930000  1.0 0.1187046295
H  H74  1  0.72200000  0.34430000  0.05070000  1.0 0.1187046295
H  H75  1  0.72200000  0.15570000  0.55070000  1.0 0.1187046295
H  H76  1  0.27800000  0.65570000  0.94930000  1.0 0.1187046295
H  H77  1  0.22830000  0.82320000  0.50820000  1.0 0.1187046295
H  H78  1  0.77170000  0.32320000  0.99180000  1.0 0.1097962273
H  H79  1  0.77170000  0.17680000  0.49180000  1.0 0.1097962273
H  H80  1  0.22830000  0.67680000  0.00820000  1.0 0.1097962273
H  H81  1  0.23500000  0.70520000  0.40430000  1.0 0.1187046295
H  H82  1  0.76500000  0.20520000  0.09570000  1.0 0.1187046295
H  H83  1  0.76500000  0.29480000  0.59570000  1.0 0.1187046295
H  H84  1  0.23500000  0.79480000  0.90430000  1.0 0.1187046295
H  H85  1  0.92170000  0.72100000  0.25020000  1.0 0.0907805144
H  H86  1  0.07830000  0.22100000  0.24980000  1.0 0.0907805144
H  H87  1  0.07830000  0.27900000  0.74980000  1.0 0.0907805144
H  H88  1  0.92170000  0.77900000  0.75020000  1.0 0.0907805144
H  H89  1  0.07810000  0.86700000  0.39900000  1.0 0.0506047189
H  H90  1  0.92190000  0.36700000  0.10100000  1.0 0.0506047189
H  H91  1  0.92190000  0.13300000  0.60100000  1.0 0.0506047189
H  H92  1  0.07810000  0.63300000  0.89900000  1.0 0.0506047189
H  H93  1  0.87220000  0.84400000  0.32930000  1.0 0.1187046295
H  H94  1  0.12780000  0.34400000  0.17070000  1.0 0.1187046295
H  H95  1  0.12780000  0.15600000  0.67070000  1.0 0.1187046295
H  H96  1  0.87220000  0.65600000  0.82930000  1.0 0.1187046295
H  H97  1  0.91410000  0.86850000  0.26780000  1.0 0.1187046295
H  H98  1  0.08590000  0.36850000  0.23220000  1.0 0.1187046295
H  H99  1  0.08590000  0.13150000  0.73220000  1.0 0.1187046295
H  H100  1  0.91410000  0.63150000  0.76780000  1.0 0.1187046295
H  H101  1  0.63270000  0.71890000  0.15810000  1.0 0.1187046295
H  H102  1  0.36730000  0.21890000  0.34190000  1.0 0.1187046295
H  H103  1  0.36730000  0.28110000  0.84190000  1.0 0.1187046295
H  H104  1  0.63270000  0.78110000  0.65810000  1.0 0.1187046295
H  H105  1  0.77190000  0.74030000  0.30120000  1.0 0.0603705065
H  H106  1  0.22810000  0.24030000  0.19880000  1.0 0.0603705065
H  H107  1  0.22810000  0.25970000  0.69880000  1.0 0.0603705065
H  H108  1  0.77190000  0.75970000  0.80120000  1.0 0.0603705065
H  H109  1  0.80190000  0.85030000  0.13490000  1.0 0.1097962273
H  H110  1  0.19810000  0.35030000  0.36510000  1.0 0.1097962273
H  H111  1  0.19810000  0.14970000  0.86510000  1.0 0.1097962273
H  H112  1  0.80190000  0.64970000  0.63490000  1.0 0.1097962273
H  H113  1  0.81530000  0.79400000  0.56100000  1.0 0.1097962273
H  H114  1  0.18470000  0.29400000  0.93900000  1.0 0.1097962273
H  H115  1  0.18470000  0.20600000  0.43900000  1.0 0.1097962273
H  H116  1  0.81530000  0.70600000  0.06100000  1.0 0.1097962273
H  H117  1  0.95620000  0.72470000  0.44460000  1.0 0.1253431595
H  H118  1  0.04380000  0.22470000  0.05540000  1.0 0.1253431595
H  H119  1  0.04380000  0.27530000  0.55540000  1.0 0.1253431595
H  H120  1  0.95620000  0.77530000  0.94460000  1.0 0.1253431595
H  H121  1  0.77670000  0.65800000  0.41670000  1.0 0.0907805144
H  H122  1  0.22330000  0.15800000  0.08330000  1.0 0.0907805144
H  H123  1  0.22330000  0.34200000  0.58330000  1.0 0.0907805144
H  H124  1  0.77670000  0.84200000  0.91670000  1.0 0.0907805144
H  H125  1  0.80670000  0.56010000  0.34570000  1.0 0.0786161678
H  H126  1  0.19330000  0.06010000  0.15430000  1.0 0.0786161678
H  H127  1  0.19330000  0.43990000  0.65430000  1.0 0.0786161678
H  H128  1  0.80670000  0.93990000  0.84570000  1.0 0.0786161678
H  H129  1  0.86110000  0.62490000  0.26060000  1.0 0.1097962273
H  H130  1  0.13890000  0.12490000  0.23940000  1.0 0.1097962273
H  H131  1  0.13890000  0.37510000  0.73940000  1.0 0.1097962273
H  H132  1  0.86110000  0.87510000  0.76060000  1.0 0.1097962273
H  H133  1  0.13830000  0.57590000  0.42060000  1.0 0.1016693798
H  H134  1  0.86170000  0.07590000  0.07940000  1.0 0.1016693798
H  H135  1  0.86170000  0.42410000  0.57940000  1.0 0.1016693798
H  H136  1  0.13830000  0.92410000  0.92060000  1.0 0.1016693798
H  H137  1  0.05170000  0.64100000  0.24360000  1.0 0.1187046295
H  H138  1  0.94830000  0.14100000  0.25640000  1.0 0.1187046295
H  H139  1  0.94830000  0.35900000  0.75640000  1.0 0.1187046295
H  H140  1  0.05170000  0.85900000  0.74360000  1.0 0.1187046295
H  H141  1  0.15280000  0.62930000  0.31310000  1.0 0.1097962273
H  H142  1  0.84720000  0.12930000  0.18690000  1.0 0.1097962273
H  H143  1  0.84720000  0.37070000  0.68690000  1.0 0.1097962273
H  H144  1  0.15280000  0.87070000  0.81310000  1.0 0.1097962273
C  C1  1  0.17610000  0.82260000  0.64010000  1.0 -0.2170008414
C  C2  1  0.82390000  0.32260000  0.85990000  1.0 -0.2170008414
C  C3  1  0.82390000  0.17740000  0.35990000  1.0 -0.2170008414
C  C4  1  0.17610000  0.67740000  0.14010000  1.0 -0.2170008414
C  C5  1  0.09140000  0.78550000  0.60860000  1.0 0.1016693798
C  C6  1  0.90860000  0.28550000  0.89140000  1.0 0.1016693798
C  C7  1  0.90860000  0.21450000  0.39140000  1.0 0.1016693798
C  C8  1  0.09140000  0.71450000  0.10860000  1.0 0.1016693798
C  C9  1  0.09380000  0.73030000  0.63640000  1.0 -0.232000531
C  C10  1  0.90620000  0.23030000  0.86360000  1.0 -0.232000531
C  C11  1  0.90620000  0.26970000  0.36360000  1.0 -0.232000531
C  C12  1  0.09380000  0.76970000  0.13640000  1.0 -0.232000531
C  C13  1  0.17810000  0.71120000  0.69560000  1.0 0.1097962273
C  C14  1  0.82190000  0.21120000  0.80440000  1.0 0.1097962273
C  C15  1  0.82190000  0.28880000  0.30440000  1.0 0.1097962273
C  C16  1  0.17810000  0.78880000  0.19560000  1.0 0.1097962273
C  C17  1  0.26220000  0.74870000  0.72860000  1.0 -0.232000531
C  C18  1  0.73780000  0.24870000  0.77140000  1.0 -0.232000531
C  C19  1  0.73780000  0.25130000  0.27140000  1.0 -0.232000531
C  C20  1  0.26220000  0.75130000  0.22860000  1.0 -0.232000531
C  C21  1  0.26200000  0.80320000  0.70070000  1.0 0.1097962273
C  C22  1  0.73800000  0.30320000  0.79930000  1.0 0.1097962273
C  C23  1  0.73800000  0.19680000  0.29930000  1.0 0.1016693798
C  C24  1  0.26200000  0.69680000  0.20070000  1.0 0.1097962273
C  C25  1  0.35080000  0.84540000  0.73280000  1.0 -0.1844627403
C  C26  1  0.64920000  0.34540000  0.76720000  1.0 -0.1844627403
C  C27  1  0.64920000  0.15460000  0.26720000  1.0 -0.1844627403
C  C28  1  0.35080000  0.65460000  0.23280000  1.0 -0.1844627403
C  C29  1  0.47440000  0.82440000  0.86100000  1.0 0.0786161678
C  C30  1  0.52560000  0.32440000  0.63900000  1.0 0.0786161678
C  C31  1  0.52560000  0.17560000  0.13900000  1.0 0.0786161678
C  C32  1  0.47440000  0.67560000  0.36100000  1.0 0.0786161678
C  C33  1  0.57660000  0.76380000  0.83870000  1.0 -0.0684531758
C  C34  1  0.42340000  0.26380000  0.66130000  1.0 -0.0684531758
C  C35  1  0.42340000  0.23620000  0.16130000  1.0 -0.0684531758
C  C36  1  0.57660000  0.73620000  0.33870000  1.0 -0.0684531758
C  C37  1  0.50750000  0.77820000  0.77180000  1.0 -0.092628117
C  C38  1  0.49250000  0.27820000  0.72820000  1.0 -0.092628117
C  C39  1  0.49250000  0.22180000  0.22820000  1.0 -0.092628117
C  C40  1  0.50750000  0.72180000  0.27180000  1.0 -0.092628117
C  C41  1  0.18130000  0.64970000  0.72540000  1.0 -0.1844627403
C  C42  1  0.81870000  0.14970000  0.77460000  1.0 -0.1844627403
C  C43  1  0.81870000  0.35030000  0.27460000  1.0 -0.1844627403
C  C44  1  0.18130000  0.85030000  0.22540000  1.0 -0.1844627403
C  C45  1  0.08930000  0.58150000  0.62390000  1.0 0.0603705065
C  C46  1  0.91070000  0.08150000  0.87610000  1.0 0.0603705065
C  C47  1  0.91070000  0.41850000  0.37610000  1.0 0.0603705065
C  C48  1  0.08930000  0.91850000  0.12390000  1.0 0.0603705065
C  C49  1  0.21160000  0.55820000  0.58160000  1.0 -0.0684531758
C  C50  1  0.78840000  0.05820000  0.91840000  1.0 -0.0684531758
C  C51  1  0.78840000  0.44180000  0.41840000  1.0 -0.0684531758
C  C52  1  0.21160000  0.94180000  0.08160000  1.0 -0.0684531758
C  C53  1  0.25280000  0.59410000  0.64160000  1.0 -0.1202372418
C  C54  1  0.74720000  0.09410000  0.85840000  1.0 -0.1202372418
C  C55  1  0.74720000  0.40590000  0.35840000  1.0 -0.1202372418
C  C56  1  0.25280000  0.90590000  0.14160000  1.0 -0.1202372418
C  C57  1  0.00220000  0.80840000  0.54180000  1.0 -0.1897546382
C  C58  1  0.99780000  0.30840000  0.95820000  1.0 -0.1897546382
C  C59  1  0.99780000  0.19160000  0.45820000  1.0 -0.1897546382
C  C60  1  0.00220000  0.69160000  0.04180000  1.0 -0.1897546382
C  C61  1  0.42480000  0.76760000  0.47930000  1.0 0.0386496365
C  C62  1  0.57520000  0.26760000  0.02070000  1.0 0.0386496365
C  C63  1  0.57520000  0.23240000  0.52070000  1.0 0.0386496365
C  C64  1  0.42480000  0.73240000  0.97930000  1.0 0.0386496365
C  C65  1  0.44330000  0.70420000  0.56580000  1.0 -0.0467200123
C  C66  1  0.55670000  0.20420000  0.93420000  1.0 -0.0467200123
C  C67  1  0.55670000  0.29580000  0.43420000  1.0 -0.0467200123
C  C68  1  0.44330000  0.79580000  0.06580000  1.0 -0.0467200123
C  C69  1  0.35110000  0.73170000  0.55460000  1.0 -0.107944324
C  C70  1  0.64890000  0.23170000  0.94540000  1.0 -0.107944324
C  C71  1  0.64890000  0.26830000  0.44540000  1.0 -0.107944324
C  C72  1  0.35110000  0.76830000  0.05460000  1.0 -0.107944324
C  C73  1  0.25380000  0.81050000  0.46880000  1.0 -0.1897546382
C  C74  1  0.74620000  0.31050000  0.03120000  1.0 -0.1897546382
C  C75  1  0.74620000  0.18950000  0.53120000  1.0 -0.1897546382
C  C76  1  0.25380000  0.68950000  0.96880000  1.0 -0.1897546382
C  C77  1  0.16360000  0.78320000  0.40530000  1.0 0.1097962273
C  C78  1  0.83640000  0.28320000  0.09470000  1.0 0.1097962273
C  C79  1  0.83640000  0.21680000  0.59470000  1.0 0.1097962273
C  C80  1  0.16360000  0.71680000  0.90530000  1.0 0.1097962273
C  C81  1  0.16750000  0.72780000  0.38060000  1.0 -0.255772359
C  C82  1  0.83250000  0.22780000  0.11940000  1.0 -0.255772359
C  C83  1  0.83250000  0.27220000  0.61940000  1.0 -0.255772359
C  C84  1  0.16750000  0.77220000  0.88060000  1.0 -0.255772359
C  C85  1  0.08220000  0.70500000  0.32210000  1.0 0.0907805144
C  C86  1  0.91780000  0.20500000  0.17790000  1.0 0.0907805144
C  C87  1  0.91780000  0.29500000  0.67790000  1.0 0.0907805144
C  C88  1  0.08220000  0.79500000  0.82210000  1.0 0.0907805144
C  C89  1  0.99310000  0.74020000  0.29000000  1.0 -0.2096765444
C  C90  1  0.00690000  0.24020000  0.21000000  1.0 -0.2096765444
C  C91  1  0.00690000  0.25980000  0.71000000  1.0 -0.2096765444
C  C92  1  0.99310000  0.75980000  0.79000000  1.0 -0.2096765444
C  C93  1  0.98910000  0.79430000  0.31620000  1.0 0.0907805144
C  C94  1  0.01090000  0.29430000  0.18380000  1.0 0.0907805144
C  C95  1  0.01090000  0.20570000  0.68380000  1.0 0.0907805144
C  C96  1  0.98910000  0.70570000  0.81620000  1.0 0.0907805144
C  C97  1  0.07550000  0.81730000  0.37380000  1.0 -0.2042548091
C  C98  1  0.92450000  0.31730000  0.12620000  1.0 -0.2042548091
C  C99  1  0.92450000  0.18270000  0.62620000  1.0 -0.2042548091
C  C100  1  0.07550000  0.68270000  0.87380000  1.0 -0.2042548091
C  C101  1  0.89500000  0.83350000  0.28770000  1.0 -0.1739685045
C  C102  1  0.10500000  0.33350000  0.21230000  1.0 -0.1739685045
C  C103  1  0.10500000  0.16650000  0.71230000  1.0 -0.1739685045
C  C104  1  0.89500000  0.66650000  0.78770000  1.0 -0.1739685045
C  C105  1  0.68290000  0.74780000  0.16930000  1.0 -0.0764656805
C  C106  1  0.31710000  0.24780000  0.33070000  1.0 -0.0764656805
C  C107  1  0.31710000  0.25220000  0.83070000  1.0 -0.0764656805
C  C108  1  0.68290000  0.75220000  0.66930000  1.0 -0.0764656805
C  C109  1  0.74980000  0.75890000  0.23790000  1.0 -0.092628117
C  C110  1  0.25020000  0.25890000  0.26210000  1.0 -0.092628117
C  C111  1  0.25020000  0.24110000  0.76210000  1.0 -0.092628117
C  C112  1  0.74980000  0.74110000  0.73790000  1.0 -0.092628117
C  C113  1  0.77540000  0.82020000  0.15540000  1.0 0.0603705065
C  C114  1  0.22460000  0.32020000  0.34460000  1.0 0.0603705065
C  C115  1  0.22460000  0.17980000  0.84460000  1.0 0.0603705065
C  C116  1  0.77540000  0.67980000  0.65540000  1.0 0.0603705065
C  C117  1  0.83000000  0.76750000  0.52920000  1.0 0.0386496365
C  C118  1  0.17000000  0.26750000  0.97080000  1.0 0.0386496365
C  C119  1  0.17000000  0.23250000  0.47080000  1.0 0.0386496365
C  C120  1  0.83000000  0.73250000  0.02920000  1.0 0.0386496365
C  C121  1  0.90810000  0.72180000  0.46440000  1.0 -0.1619992026
C  C122  1  0.09190000  0.22180000  0.03560000  1.0 -0.1619992026
C  C123  1  0.09190000  0.27820000  0.53560000  1.0 -0.1619992026
C  C124  1  0.90810000  0.77820000  0.96440000  1.0 -0.1619992026
C  C125  1  0.81750000  0.69640000  0.45310000  1.0 -0.03850712
C  C126  1  0.18250000  0.19640000  0.04690000  1.0 -0.03850712
C  C127  1  0.18250000  0.30360000  0.54690000  1.0 -0.03850712
C  C128  1  0.81750000  0.80360000  0.95310000  1.0 -0.03850712
C  C129  1  0.89360000  0.56590000  0.35750000  1.0 -0.0148664036
C  C130  1  0.10640000  0.06590000  0.14250000  1.0 -0.0148664036
C  C131  1  0.10640000  0.43410000  0.64250000  1.0 -0.0148664036
C  C132  1  0.89360000  0.93410000  0.85750000  1.0 -0.0148664036
C  C133  1  0.91580000  0.60070000  0.30600000  1.0 -0.1202372418
C  C134  1  0.08420000  0.10070000  0.19400000  1.0 -0.1202372418
C  C135  1  0.08420000  0.39930000  0.69400000  1.0 -0.1202372418
C  C136  1  0.91580000  0.89930000  0.80600000  1.0 -0.1202372418
C  C137  1  0.06000000  0.57870000  0.39610000  1.0 0.0506047189
C  C138  1  0.94000000  0.07870000  0.10390000  1.0 0.0506047189
C  C139  1  0.94000000  0.42130000  0.60390000  1.0 0.0506047189
C  C140  1  0.06000000  0.92130000  0.89610000  1.0 0.0506047189
C  C141  1  0.08170000  0.64340000  0.29800000  1.0 -0.1897546382
C  C142  1  0.91830000  0.14340000  0.20200000  1.0 -0.1897546382
C  C143  1  0.91830000  0.35660000  0.70200000  1.0 -0.1897546382
C  C144  1  0.08170000  0.85660000  0.79800000  1.0 -0.1897546382
N  N1  1  0.44250000  0.81780000  0.78730000  1.0 0.0313278446
N  N2  1  0.55750000  0.31780000  0.71270000  1.0 0.0313278446
N  N3  1  0.55750000  0.18220000  0.21270000  1.0 0.0313278446
N  N4  1  0.44250000  0.68220000  0.28730000  1.0 0.0313278446
N  N5  1  0.55620000  0.79200000  0.89580000  1.0 -0.2791347609
N  N6  1  0.44380000  0.29200000  0.60420000  1.0 -0.271424622
N  N7  1  0.44380000  0.20800000  0.10420000  1.0 -0.271424622
N  N8  1  0.55620000  0.70800000  0.39580000  1.0 -0.2791347609
N  N9  1  0.17490000  0.60860000  0.66760000  1.0 0.0313278446
N  N10  1  0.82510000  0.10860000  0.83240000  1.0 0.0313278446
N  N11  1  0.82510000  0.39140000  0.33240000  1.0 0.0313278446
N  N12  1  0.17490000  0.89140000  0.16760000  1.0 0.0313278446
N  N13  1  0.10690000  0.55090000  0.57040000  1.0 -0.271424622
N  N14  1  0.89310000  0.05090000  0.92960000  1.0 -0.271424622
N  N15  1  0.89310000  0.44910000  0.42960000  1.0 -0.271424622
N  N16  1  0.10690000  0.94910000  0.07040000  1.0 -0.271424622
N  N17  1  0.48920000  0.72770000  0.51800000  1.0 -0.2791347609
N  N18  1  0.51080000  0.22770000  0.98200000  1.0 -0.271424622
N  N19  1  0.51080000  0.27230000  0.48200000  1.0 -0.2791347609
N  N20  1  0.48920000  0.77230000  0.01800000  1.0 -0.2791347609
N  N21  1  0.34130000  0.77140000  0.50120000  1.0 0.0386496365
N  N22  1  0.65870000  0.27140000  0.99880000  1.0 0.0386496365
N  N23  1  0.65870000  0.22860000  0.49880000  1.0 0.0386496365
N  N24  1  0.34130000  0.72860000  0.00120000  1.0 0.0386496365
N  N25  1  0.69820000  0.78480000  0.11690000  1.0 -0.271424622
N  N26  1  0.30180000  0.28480000  0.38310000  1.0 -0.271424622
N  N27  1  0.30180000  0.21520000  0.88310000  1.0 -0.271424622
N  N28  1  0.69820000  0.71520000  0.61690000  1.0 -0.271424622
N  N29  1  0.80840000  0.80510000  0.22840000  1.0 0.0313278446
N  N30  1  0.19160000  0.30510000  0.27160000  1.0 0.0313278446
N  N31  1  0.19160000  0.19490000  0.77160000  1.0 0.0313278446
N  N32  1  0.80840000  0.69490000  0.72840000  1.0 0.0313278446
N  N33  1  0.76610000  0.72440000  0.49490000  1.0 -0.2896589481
N  N34  1  0.23390000  0.22440000  0.00510000  1.0 -0.2896589481
N  N35  1  0.23390000  0.27560000  0.50510000  1.0 -0.2896589481
N  N36  1  0.76610000  0.77560000  0.99490000  1.0 -0.2896589481
N  N37  1  0.91650000  0.76780000  0.51240000  1.0 0.0313278446
N  N38  1  0.08350000  0.26780000  0.98760000  1.0 0.0313278446
N  N39  1  0.08350000  0.23220000  0.48760000  1.0 0.0313278446
N  N40  1  0.91650000  0.73220000  0.01240000  1.0 0.0313278446
N  N41  1  0.98430000  0.55280000  0.41380000  1.0 -0.2791347609
N  N42  1  0.01570000  0.05280000  0.08620000  1.0 -0.2791347609
N  N43  1  0.01570000  0.44720000  0.58620000  1.0 -0.2791347609
N  N44  1  0.98430000  0.94720000  0.91380000  1.0 -0.2896589481
N  N45  1  0.02190000  0.60740000  0.33150000  1.0 0.0386496365
N  N46  1  0.97810000  0.10740000  0.16850000  1.0 0.0386496365
N  N47  1  0.97810000  0.39260000  0.66850000  1.0 0.0386496365
N  N48  1  0.02190000  0.89260000  0.83150000  1.0 0.0386496365
O  O1  1  0.63190000  0.88970000  0.01000000  1.0 -0.590642079
O  O2  1  0.36810000  0.38970000  0.49000000  1.0 -0.590642079
O  O3  1  0.36810000  0.11030000  0.99000000  1.0 -0.5967640721
O  O4  1  0.63190000  0.61030000  0.51000000  1.0 -0.590642079
