# DDEC6 charges by PACMAN v1.1 (https://github.com/mtap-research/PACMAN-charge/)
data_QOZGAP_ASR_pacman
_symmetry_space_group_name_H-M   'P 1'
_cell_length_a   9.47900000
_cell_length_b   14.67190000
_cell_length_c   9.54540000
_cell_angle_alpha   90.00000000
_cell_angle_beta   110.41900000
_cell_angle_gamma   90.00000000
_symmetry_Int_Tables_number   1
_chemical_formula_structural   CuH8C14(N4O3)2
_chemical_formula_sum   'Cu2 H16 C28 N16 O12'
_cell_volume   1244.11262951
_cell_formula_units_Z   2
loop_
 _symmetry_equiv_pos_site_id
 _symmetry_equiv_pos_as_xyz
  1  'x, y, z'
loop_
 _atom_site_type_symbol
 _atom_site_label
 _atom_site_symmetry_multiplicity
 _atom_site_fract_x
 _atom_site_fract_y
 _atom_site_fract_z
 _atom_site_occupancy
 _atom_site_charge
Cu  Cu1  1  0.50000000  0.50000000  0.00000000  1.0 0.7625157251
Cu  Cu2  1  0.00000000  0.00000000  0.00000000  1.0 0.7625157251
H  H1  1  0.35340000  0.21930000  0.36840000  1.0 0.2875150456
H  H2  1  0.14660000  0.71930000  0.63160000  1.0 0.2875150456
H  H3  1  0.64660000  0.78070000  0.63160000  1.0 0.2875150456
H  H4  1  0.85340000  0.28070000  0.36840000  1.0 0.2875150456
H  H5  1  0.53850000  0.37570000  0.27600000  1.0 0.1281565044
H  H6  1  0.96150000  0.87570000  0.72400000  1.0 0.1281565044
H  H7  1  0.46150000  0.62430000  0.72400000  1.0 0.1281565044
H  H8  1  0.03850000  0.12430000  0.27600000  1.0 0.1281565044
H  H9  1  0.19540000  0.22990000  0.01250000  1.0 0.1379029735
H  H10  1  0.30460000  0.72990000  0.98750000  1.0 0.1379029735
H  H11  1  0.80460000  0.77010000  0.98750000  1.0 0.1379029735
H  H12  1  0.69540000  0.27010000  0.01250000  1.0 0.1379029735
H  H13  1  0.30320000  0.89590000  0.44260000  1.0 0.1379029735
H  H14  1  0.19680000  0.39590000  0.55740000  1.0 0.1379029735
H  H15  1  0.69680000  0.10410000  0.55740000  1.0 0.1379029735
H  H16  1  0.80320000  0.60410000  0.44260000  1.0 0.1379029735
C  C1  1  0.45700000  0.35470000  0.19190000  1.0 0.0716391033
C  C2  1  0.04300000  0.85470000  0.80810000  1.0 0.0716391033
C  C3  1  0.54300000  0.64530000  0.80810000  1.0 0.0716391033
C  C4  1  0.95700000  0.14530000  0.19190000  1.0 0.0716391033
C  C5  1  0.26970000  0.27600000  0.04830000  1.0 0.0716391033
C  C6  1  0.23030000  0.77600000  0.95170000  1.0 0.0716391033
C  C7  1  0.73030000  0.72400000  0.95170000  1.0 0.0716391033
C  C8  1  0.76970000  0.22400000  0.04830000  1.0 0.0716391033
C  C9  1  0.49740000  0.14970000  0.30130000  1.0 0.4651772989
C  C10  1  0.00260000  0.64970000  0.69870000  1.0 0.4651772989
C  C11  1  0.50260000  0.85030000  0.69870000  1.0 0.4651772989
C  C12  1  0.99740000  0.35030000  0.30130000  1.0 0.4651772989
C  C13  1  0.49670000  0.07170000  0.40390000  1.0 -0.0283732025
C  C14  1  0.00330000  0.57170000  0.59610000  1.0 -0.0283732025
C  C15  1  0.50330000  0.92830000  0.59610000  1.0 -0.0283732025
C  C16  1  0.99670000  0.42830000  0.40390000  1.0 -0.0283732025
C  C17  1  0.37530000  0.00930000  0.36670000  1.0 -0.0283732025
C  C18  1  0.12470000  0.50930000  0.63330000  1.0 -0.0283732025
C  C19  1  0.62470000  0.99070000  0.63330000  1.0 -0.0283732025
C  C20  1  0.87530000  0.49070000  0.36670000  1.0 -0.0283732025
C  C21  1  0.38350000  0.93860000  0.46590000  1.0 -0.1134098754
C  C22  1  0.11650000  0.43860000  0.53410000  1.0 -0.1134098754
C  C23  1  0.61650000  0.06140000  0.53410000  1.0 -0.1134098754
C  C24  1  0.88350000  0.56140000  0.46590000  1.0 -0.1134098754
C  C25  1  0.24700000  0.01810000  0.22000000  1.0 0.530255632
C  C26  1  0.25300000  0.51810000  0.78000000  1.0 0.530255632
C  C27  1  0.75300000  0.98190000  0.78000000  1.0 0.530255632
C  C28  1  0.74700000  0.48190000  0.22000000  1.0 0.530255632
N  N1  1  0.41010000  0.39200000  0.06150000  1.0 -0.1698707328
N  N2  1  0.08990000  0.89200000  0.93850000  1.0 -0.1698707328
N  N3  1  0.58990000  0.60800000  0.93850000  1.0 -0.1698707328
N  N4  1  0.91010000  0.10800000  0.06150000  1.0 -0.1698707328
N  N5  1  0.29000000  0.34460000  0.96950000  1.0 -0.1545446762
N  N6  1  0.21000000  0.84460000  0.03050000  1.0 -0.1545446762
N  N7  1  0.71000000  0.65540000  0.03050000  1.0 -0.1545446762
N  N8  1  0.79000000  0.15540000  0.96950000  1.0 -0.1545446762
N  N9  1  0.37180000  0.28140000  0.18910000  1.0 0.1281565044
N  N10  1  0.12820000  0.78140000  0.81090000  1.0 0.1379029735
N  N11  1  0.62820000  0.71860000  0.81090000  1.0 0.1379029735
N  N12  1  0.87180000  0.21860000  0.18910000  1.0 0.1281565044
N  N13  1  0.39780000  0.21700000  0.30150000  1.0 -0.3500790433
N  N14  1  0.10220000  0.71700000  0.69850000  1.0 -0.3500790433
N  N15  1  0.60220000  0.78300000  0.69850000  1.0 -0.3500790433
N  N16  1  0.89780000  0.28300000  0.30150000  1.0 -0.3500790433
O  O1  1  0.58550000  0.15460000  0.23470000  1.0 -0.4613974379
O  O2  1  0.91450000  0.65460000  0.76530000  1.0 -0.4613974379
O  O3  1  0.41450000  0.84540000  0.76530000  1.0 -0.4613974379
O  O4  1  0.08550000  0.34540000  0.23470000  1.0 -0.4613974379
O  O5  1  0.26060000  0.06360000  0.11830000  1.0 -0.5268696831
O  O6  1  0.23940000  0.56360000  0.88170000  1.0 -0.5268696831
O  O7  1  0.73940000  0.93640000  0.88170000  1.0 -0.5268696831
O  O8  1  0.76060000  0.43640000  0.11830000  1.0 -0.5268696831
O  O9  1  0.12690000  0.97830000  0.21570000  1.0 -0.5115583823
O  O10  1  0.37310000  0.47830000  0.78430000  1.0 -0.5115583823
O  O11  1  0.87310000  0.02170000  0.78430000  1.0 -0.5115583823
O  O12  1  0.62690000  0.52170000  0.21570000  1.0 -0.5115583823
