# DDEC6 charges by PACMAN v1.1 (https://github.com/mtap-research/PACMAN-charge/)
data_QUBWIU_ion_pacman
_symmetry_space_group_name_H-M   'P 1'
_cell_length_a   17.04100000
_cell_length_b   17.04100000
_cell_length_c   25.37100000
_cell_angle_alpha   90.00000000
_cell_angle_beta   90.00000000
_cell_angle_gamma   90.00000000
_symmetry_Int_Tables_number   1
_chemical_formula_structural   Na5Sm4Cu8H96C48N8(ClO11)10
_chemical_formula_sum   'Na10 Sm8 Cu16 H192 C96 N16 Cl20 O220'
_cell_volume   7367.62882265
_cell_formula_units_Z   2
loop_
 _symmetry_equiv_pos_site_id
 _symmetry_equiv_pos_as_xyz
  1  'x, y, z'
loop_
 _atom_site_type_symbol
 _atom_site_label
 _atom_site_symmetry_multiplicity
 _atom_site_fract_x
 _atom_site_fract_y
 _atom_site_fract_z
 _atom_site_occupancy
 _atom_site_charge
Na  Na1  1  0.23360000  0.19430000  0.11389000  1.0 0.8546569244
Na  Na2  1  0.76640000  0.80570000  0.11389000  1.0 0.855470036
Na  Na3  1  0.19430000  0.76640000  0.88611000  1.0 0.8546569244
Na  Na4  1  0.80570000  0.23360000  0.88611000  1.0 0.8546569244
Na  Na5  1  0.26640000  0.69430000  0.38611000  1.0 0.855470036
Na  Na6  1  0.73360000  0.30570000  0.38611000  1.0 0.8546569244
Na  Na7  1  0.30570000  0.26640000  0.61389000  1.0 0.8546569244
Na  Na8  1  0.69430000  0.73360000  0.61389000  1.0 0.8546569244
Na  Na9  1  0.00000000  0.00000000  0.00000000  1.0 0.855470036
Na  Na10  1  0.50000000  0.50000000  0.50000000  1.0 0.855470036
Sm  Sm1  1  0.27553000  0.11819000  0.80808000  1.0 2.0532490507
Sm  Sm2  1  0.72447000  0.88181000  0.80808000  1.0 2.0532490507
Sm  Sm3  1  0.11819000  0.72447000  0.19192000  1.0 2.0532490507
Sm  Sm4  1  0.88181000  0.27553000  0.19192000  1.0 2.0532490507
Sm  Sm5  1  0.22447000  0.61819000  0.69192000  1.0 2.0532490507
Sm  Sm6  1  0.77553000  0.38181000  0.69192000  1.0 2.0532490507
Sm  Sm7  1  0.38181000  0.22447000  0.30808000  1.0 2.0532490507
Sm  Sm8  1  0.61819000  0.77553000  0.30808000  1.0 2.0532490507
Cu  Cu1  1  0.12896000  0.37850000  0.16824000  1.0 0.823684086
Cu  Cu2  1  0.87104000  0.62150000  0.16824000  1.0 0.823684086
Cu  Cu3  1  0.37850000  0.87104000  0.83176000  1.0 0.823684086
Cu  Cu4  1  0.62150000  0.12896000  0.83176000  1.0 0.823684086
Cu  Cu5  1  0.37104000  0.87850000  0.33176000  1.0 0.823684086
Cu  Cu6  1  0.62896000  0.12150000  0.33176000  1.0 0.823684086
Cu  Cu7  1  0.12150000  0.37104000  0.66824000  1.0 0.823684086
Cu  Cu8  1  0.87850000  0.62896000  0.66824000  1.0 0.823684086
Cu  Cu9  1  0.11999000  0.18517000  0.00864000  1.0 0.8042289586
Cu  Cu10  1  0.88001000  0.81483000  0.00864000  1.0 0.8042289586
Cu  Cu11  1  0.18517000  0.88001000  0.99136000  1.0 0.8042289586
Cu  Cu12  1  0.81483000  0.11999000  0.99136000  1.0 0.8042289586
Cu  Cu13  1  0.38001000  0.68517000  0.49136000  1.0 0.8042289586
Cu  Cu14  1  0.61999000  0.31483000  0.49136000  1.0 0.8042289586
Cu  Cu15  1  0.31483000  0.38001000  0.50864000  1.0 0.8042289586
Cu  Cu16  1  0.68517000  0.61999000  0.50864000  1.0 0.8042289586
H  H1  1  0.41120000  0.13070000  0.87510000  1.0 0.370922272
H  H2  1  0.58880000  0.86930000  0.87510000  1.0 0.370922272
H  H3  1  0.13070000  0.58880000  0.12490000  1.0 0.370922272
H  H4  1  0.86930000  0.41120000  0.12490000  1.0 0.370922272
H  H5  1  0.08880000  0.63070000  0.62490000  1.0 0.370922272
H  H6  1  0.91120000  0.36930000  0.62490000  1.0 0.370922272
H  H7  1  0.36930000  0.08880000  0.37510000  1.0 0.370922272
H  H8  1  0.63070000  0.91120000  0.37510000  1.0 0.370922272
H  H9  1  0.34820000  0.14140000  0.90930000  1.0 0.370922272
H  H10  1  0.65180000  0.85860000  0.90930000  1.0 0.370922272
H  H11  1  0.14140000  0.65180000  0.09070000  1.0 0.370922272
H  H12  1  0.85860000  0.34820000  0.09070000  1.0 0.370922272
H  H13  1  0.15180000  0.64140000  0.59070000  1.0 0.370922272
H  H14  1  0.84820000  0.35860000  0.59070000  1.0 0.370922272
H  H15  1  0.35860000  0.15180000  0.40930000  1.0 0.370922272
H  H16  1  0.64140000  0.84820000  0.40930000  1.0 0.370922272
H  H17  1  0.37040000  0.25600000  0.82800000  1.0 0.3408774853
H  H18  1  0.62960000  0.74400000  0.82800000  1.0 0.3408774853
H  H19  1  0.25600000  0.62960000  0.17200000  1.0 0.3408774853
H  H20  1  0.74400000  0.37040000  0.17200000  1.0 0.3408774853
H  H21  1  0.12960000  0.75600000  0.67200000  1.0 0.3408774853
H  H22  1  0.87040000  0.24400000  0.67200000  1.0 0.3408774853
H  H23  1  0.24400000  0.12960000  0.32800000  1.0 0.3408774853
H  H24  1  0.75600000  0.87040000  0.32800000  1.0 0.3408774853
H  H25  1  0.33740000  0.27080000  0.77950000  1.0 0.3408774853
H  H26  1  0.66260000  0.72920000  0.77950000  1.0 0.3408774853
H  H27  1  0.27080000  0.66260000  0.22050000  1.0 0.3408774853
H  H28  1  0.72920000  0.33740000  0.22050000  1.0 0.3408774853
H  H29  1  0.16260000  0.77080000  0.72050000  1.0 0.3408774853
H  H30  1  0.83740000  0.22920000  0.72050000  1.0 0.3408774853
H  H31  1  0.22920000  0.16260000  0.27950000  1.0 0.3408774853
H  H32  1  0.77080000  0.83740000  0.27950000  1.0 0.3408774853
H  H33  1  0.11200000  0.08270000  0.81130000  1.0 0.3408774853
H  H34  1  0.88800000  0.91730000  0.81130000  1.0 0.3408774853
H  H35  1  0.08270000  0.88800000  0.18870000  1.0 0.3408774853
H  H36  1  0.91730000  0.11200000  0.18870000  1.0 0.3408774853
H  H37  1  0.38800000  0.58270000  0.68870000  1.0 0.3408774853
H  H38  1  0.61200000  0.41730000  0.68870000  1.0 0.3408774853
H  H39  1  0.41730000  0.38800000  0.31130000  1.0 0.3408774853
H  H40  1  0.58270000  0.61200000  0.31130000  1.0 0.3408774853
H  H41  1  0.12240000  0.11730000  0.76290000  1.0 0.3408774853
H  H42  1  0.87760000  0.88270000  0.76290000  1.0 0.3408774853
H  H43  1  0.11730000  0.87760000  0.23710000  1.0 0.3408774853
H  H44  1  0.88270000  0.12240000  0.23710000  1.0 0.3408774853
H  H45  1  0.37760000  0.61730000  0.73710000  1.0 0.3408774853
H  H46  1  0.62240000  0.38270000  0.73710000  1.0 0.3408774853
H  H47  1  0.38270000  0.37760000  0.26290000  1.0 0.3408774853
H  H48  1  0.61730000  0.62240000  0.26290000  1.0 0.3408774853
H  H49  1  0.18540000  0.06370000  0.89630000  1.0 0.3578837411
H  H50  1  0.81460000  0.93630000  0.89630000  1.0 0.3578837411
H  H51  1  0.06370000  0.81460000  0.10370000  1.0 0.3578837411
H  H52  1  0.93630000  0.18540000  0.10370000  1.0 0.3578837411
H  H53  1  0.31460000  0.56370000  0.60370000  1.0 0.3578837411
H  H54  1  0.68540000  0.43630000  0.60370000  1.0 0.3578837411
H  H55  1  0.43630000  0.31460000  0.39630000  1.0 0.3578837411
H  H56  1  0.56370000  0.68540000  0.39630000  1.0 0.3578837411
H  H57  1  0.18790000  0.99960000  0.86280000  1.0 0.3578837411
H  H58  1  0.81210000  0.00040000  0.86280000  1.0 0.3578837411
H  H59  1  0.99960000  0.81210000  0.13720000  1.0 0.3578837411
H  H60  1  0.00040000  0.18790000  0.13720000  1.0 0.3578837411
H  H61  1  0.31210000  0.49960000  0.63720000  1.0 0.3578837411
H  H62  1  0.68790000  0.50040000  0.63720000  1.0 0.3578837411
H  H63  1  0.50040000  0.31210000  0.36280000  1.0 0.3578837411
H  H64  1  0.49960000  0.68790000  0.36280000  1.0 0.3578837411
H  H65  1  0.34210000  0.11110000  0.16200000  1.0 0.3578837411
H  H66  1  0.65790000  0.88890000  0.16200000  1.0 0.3578837411
H  H67  1  0.11110000  0.65790000  0.83800000  1.0 0.3578837411
H  H68  1  0.88890000  0.34210000  0.83800000  1.0 0.3578837411
H  H69  1  0.15790000  0.61110000  0.33800000  1.0 0.3578837411
H  H70  1  0.84210000  0.38890000  0.33800000  1.0 0.3578837411
H  H71  1  0.38890000  0.15790000  0.66200000  1.0 0.3578837411
H  H72  1  0.61110000  0.84210000  0.66200000  1.0 0.3578837411
H  H73  1  0.38120000  0.13720000  0.11860000  1.0 0.3546305195
H  H74  1  0.61880000  0.86280000  0.11860000  1.0 0.3578837411
H  H75  1  0.13720000  0.61880000  0.88140000  1.0 0.3578837411
H  H76  1  0.86280000  0.38120000  0.88140000  1.0 0.3578837411
H  H77  1  0.11880000  0.63720000  0.38140000  1.0 0.3578837411
H  H78  1  0.88120000  0.36280000  0.38140000  1.0 0.3578837411
H  H79  1  0.36280000  0.11880000  0.61860000  1.0 0.3546305195
H  H80  1  0.63720000  0.88120000  0.61860000  1.0 0.3578837411
H  H81  1  0.95870000  0.01950000  0.10400000  1.0 0.1491888723
H  H82  1  0.04130000  0.98050000  0.10400000  1.0 0.1491888723
H  H83  1  0.01950000  0.04130000  0.89600000  1.0 0.1491888723
H  H84  1  0.98050000  0.95870000  0.89600000  1.0 0.1491888723
H  H85  1  0.54130000  0.51950000  0.39600000  1.0 0.1491888723
H  H86  1  0.45870000  0.48050000  0.39600000  1.0 0.1491888723
H  H87  1  0.48050000  0.54130000  0.60400000  1.0 0.1491888723
H  H88  1  0.51950000  0.45870000  0.60400000  1.0 0.1491888723
H  H89  1  0.34110000  0.90590000  0.69020000  1.0 0.1583500056
H  H90  1  0.65890000  0.09410000  0.69020000  1.0 0.1583500056
H  H91  1  0.90590000  0.65890000  0.30980000  1.0 0.1583500056
H  H92  1  0.09410000  0.34110000  0.30980000  1.0 0.1583500056
H  H93  1  0.15890000  0.40590000  0.80980000  1.0 0.1583500056
H  H94  1  0.84110000  0.59410000  0.80980000  1.0 0.1583500056
H  H95  1  0.59410000  0.15890000  0.19020000  1.0 0.1583500056
H  H96  1  0.40590000  0.84110000  0.19020000  1.0 0.1583500056
H  H97  1  0.27680000  0.86350000  0.72410000  1.0 0.1583500056
H  H98  1  0.72320000  0.13650000  0.72410000  1.0 0.1583500056
H  H99  1  0.86350000  0.72320000  0.27590000  1.0 0.1583500056
H  H100  1  0.13650000  0.27680000  0.27590000  1.0 0.1583500056
H  H101  1  0.22320000  0.36350000  0.77590000  1.0 0.1583500056
H  H102  1  0.77680000  0.63650000  0.77590000  1.0 0.1583500056
H  H103  1  0.63650000  0.22320000  0.22410000  1.0 0.1583500056
H  H104  1  0.36350000  0.77680000  0.22410000  1.0 0.1583500056
H  H105  1  0.36160000  0.75160000  0.71410000  1.0 0.1491888723
H  H106  1  0.63840000  0.24840000  0.71410000  1.0 0.1491888723
H  H107  1  0.75160000  0.63840000  0.28590000  1.0 0.1491888723
H  H108  1  0.24840000  0.36160000  0.28590000  1.0 0.1491888723
H  H109  1  0.13840000  0.25160000  0.78590000  1.0 0.1491888723
H  H110  1  0.86160000  0.74840000  0.78590000  1.0 0.1491888723
H  H111  1  0.74840000  0.13840000  0.21410000  1.0 0.1491888723
H  H112  1  0.25160000  0.86160000  0.21410000  1.0 0.1491888723
H  H113  1  0.41890000  0.73820000  0.76180000  1.0 0.1491888723
H  H114  1  0.58110000  0.26180000  0.76180000  1.0 0.1491888723
H  H115  1  0.73820000  0.58110000  0.23820000  1.0 0.1491888723
H  H116  1  0.26180000  0.41890000  0.23820000  1.0 0.1491888723
H  H117  1  0.08110000  0.23820000  0.73820000  1.0 0.1491888723
H  H118  1  0.91890000  0.76180000  0.73820000  1.0 0.1491888723
H  H119  1  0.76180000  0.08110000  0.26180000  1.0 0.1491888723
H  H120  1  0.23820000  0.91890000  0.26180000  1.0 0.1491888723
H  H121  1  0.46360000  0.92660000  0.71920000  1.0 0.1583500056
H  H122  1  0.53640000  0.07340000  0.71920000  1.0 0.1583500056
H  H123  1  0.92660000  0.53640000  0.28080000  1.0 0.1583500056
H  H124  1  0.07340000  0.46360000  0.28080000  1.0 0.1583500056
H  H125  1  0.03640000  0.42660000  0.78080000  1.0 0.1583500056
H  H126  1  0.96360000  0.57340000  0.78080000  1.0 0.1583500056
H  H127  1  0.57340000  0.03640000  0.21920000  1.0 0.1583500056
H  H128  1  0.42660000  0.96360000  0.21920000  1.0 0.1583500056
H  H129  1  0.48570000  0.83830000  0.70970000  1.0 0.1583500056
H  H130  1  0.51430000  0.16170000  0.70970000  1.0 0.1583500056
H  H131  1  0.83830000  0.51430000  0.29030000  1.0 0.1583500056
H  H132  1  0.16170000  0.48570000  0.29030000  1.0 0.1583500056
H  H133  1  0.01430000  0.33830000  0.79030000  1.0 0.1583500056
H  H134  1  0.98570000  0.66170000  0.79030000  1.0 0.1583500056
H  H135  1  0.66170000  0.01430000  0.20970000  1.0 0.1583500056
H  H136  1  0.33830000  0.98570000  0.20970000  1.0 0.1583500056
H  H137  1  0.03360000  0.37340000  0.00630000  1.0 0.1583500056
H  H138  1  0.96640000  0.62660000  0.00630000  1.0 0.1583500056
H  H139  1  0.37340000  0.96640000  0.99370000  1.0 0.1583500056
H  H140  1  0.62660000  0.03360000  0.99370000  1.0 0.1583500056
H  H141  1  0.46640000  0.87340000  0.49370000  1.0 0.1583500056
H  H142  1  0.53360000  0.12660000  0.49370000  1.0 0.1583500056
H  H143  1  0.12660000  0.46640000  0.50630000  1.0 0.1583500056
H  H144  1  0.87340000  0.53360000  0.50630000  1.0 0.1583500056
H  H145  1  0.12290000  0.38340000  0.99310000  1.0 0.1583500056
H  H146  1  0.87710000  0.61660000  0.99310000  1.0 0.1583500056
H  H147  1  0.38340000  0.87710000  0.00690000  1.0 0.1583500056
H  H148  1  0.61660000  0.12290000  0.00690000  1.0 0.1583500056
H  H149  1  0.37710000  0.88340000  0.50690000  1.0 0.1583500056
H  H150  1  0.62290000  0.11660000  0.50690000  1.0 0.1583500056
H  H151  1  0.11660000  0.37710000  0.49310000  1.0 0.1583500056
H  H152  1  0.88340000  0.62290000  0.49310000  1.0 0.1583500056
H  H153  1  0.99830000  0.26480000  0.91350000  1.0 0.1426519698
H  H154  1  0.00170000  0.73520000  0.91350000  1.0 0.1426519698
H  H155  1  0.26480000  0.00170000  0.08650000  1.0 0.1426519698
H  H156  1  0.73520000  0.99830000  0.08650000  1.0 0.1426519698
H  H157  1  0.50170000  0.76480000  0.58650000  1.0 0.1426519698
H  H158  1  0.49830000  0.23520000  0.58650000  1.0 0.1426519698
H  H159  1  0.23520000  0.50170000  0.41350000  1.0 0.1426519698
H  H160  1  0.76480000  0.49830000  0.41350000  1.0 0.1426519698
H  H161  1  0.96680000  0.30900000  0.96310000  1.0 0.1583500056
H  H162  1  0.03320000  0.69100000  0.96310000  1.0 0.1583500056
H  H163  1  0.30900000  0.03320000  0.03690000  1.0 0.1583500056
H  H164  1  0.69100000  0.96680000  0.03690000  1.0 0.1583500056
H  H165  1  0.53320000  0.80900000  0.53690000  1.0 0.1583500056
H  H166  1  0.46680000  0.19100000  0.53690000  1.0 0.1583500056
H  H167  1  0.19100000  0.53320000  0.46310000  1.0 0.1583500056
H  H168  1  0.80900000  0.46680000  0.46310000  1.0 0.1583500056
H  H169  1  0.10260000  0.30920000  0.89290000  1.0 0.1491888723
H  H170  1  0.89740000  0.69080000  0.89290000  1.0 0.1491888723
H  H171  1  0.30920000  0.89740000  0.10710000  1.0 0.1491888723
H  H172  1  0.69080000  0.10260000  0.10710000  1.0 0.1491888723
H  H173  1  0.39740000  0.80920000  0.60710000  1.0 0.1491888723
H  H174  1  0.60260000  0.19080000  0.60710000  1.0 0.1491888723
H  H175  1  0.19080000  0.39740000  0.39290000  1.0 0.1491888723
H  H176  1  0.80920000  0.60260000  0.39290000  1.0 0.1491888723
H  H177  1  0.17470000  0.32230000  0.93040000  1.0 0.1583500056
H  H178  1  0.82530000  0.67770000  0.93040000  1.0 0.1583500056
H  H179  1  0.32230000  0.82530000  0.06960000  1.0 0.1583500056
H  H180  1  0.67770000  0.17470000  0.06960000  1.0 0.1583500056
H  H181  1  0.32530000  0.82230000  0.56960000  1.0 0.1583500056
H  H182  1  0.67470000  0.17770000  0.56960000  1.0 0.1583500056
H  H183  1  0.17770000  0.32530000  0.43040000  1.0 0.1583500056
H  H184  1  0.82230000  0.67470000  0.43040000  1.0 0.1583500056
H  H185  1  0.95910000  0.97950000  0.10400000  1.0 0.1491888723
H  H186  1  0.04090000  0.02050000  0.10400000  1.0 0.1491888723
H  H187  1  0.97950000  0.04090000  0.89600000  1.0 0.1426519698
H  H188  1  0.02050000  0.95910000  0.89600000  1.0 0.1491888723
H  H189  1  0.54090000  0.47950000  0.39600000  1.0 0.1491888723
H  H190  1  0.45910000  0.52050000  0.39600000  1.0 0.1491888723
H  H191  1  0.52050000  0.54090000  0.60400000  1.0 0.1491888723
H  H192  1  0.47950000  0.45910000  0.60400000  1.0 0.1491888723
C  C1  1  0.30670000  0.97130000  0.75420000  1.0 0.6201439098
C  C2  1  0.69330000  0.02870000  0.75420000  1.0 0.6201439098
C  C3  1  0.97130000  0.69330000  0.24580000  1.0 0.6201439098
C  C4  1  0.02870000  0.30670000  0.24580000  1.0 0.6201439098
C  C5  1  0.19330000  0.47130000  0.74580000  1.0 0.6201439098
C  C6  1  0.80670000  0.52870000  0.74580000  1.0 0.6201439098
C  C7  1  0.52870000  0.19330000  0.25420000  1.0 0.6201439098
C  C8  1  0.47130000  0.80670000  0.25420000  1.0 0.6201439098
C  C9  1  0.32410000  0.89490000  0.72590000  1.0 -0.2517072066
C  C10  1  0.67590000  0.10510000  0.72590000  1.0 -0.2517072066
C  C11  1  0.89490000  0.67590000  0.27410000  1.0 -0.2517072066
C  C12  1  0.10510000  0.32410000  0.27410000  1.0 -0.2517072066
C  C13  1  0.17590000  0.39490000  0.77410000  1.0 -0.2517072066
C  C14  1  0.82410000  0.60510000  0.77410000  1.0 -0.2517072066
C  C15  1  0.60510000  0.17590000  0.22590000  1.0 -0.2517072066
C  C16  1  0.39490000  0.82410000  0.22590000  1.0 -0.2517072066
C  C17  1  0.30500000  0.74370000  0.78410000  1.0 0.6357331258
C  C18  1  0.69500000  0.25630000  0.78410000  1.0 0.6357331258
C  C19  1  0.74370000  0.69500000  0.21590000  1.0 0.6357331258
C  C20  1  0.25630000  0.30500000  0.21590000  1.0 0.6357331258
C  C21  1  0.19500000  0.24370000  0.71590000  1.0 0.6357331258
C  C22  1  0.80500000  0.75630000  0.71590000  1.0 0.6357331258
C  C23  1  0.75630000  0.19500000  0.28410000  1.0 0.6357331258
C  C24  1  0.24370000  0.80500000  0.28410000  1.0 0.6357331258
C  C25  1  0.37230000  0.76610000  0.75040000  1.0 -0.3221122279
C  C26  1  0.62770000  0.23390000  0.75040000  1.0 -0.3221122279
C  C27  1  0.76610000  0.62770000  0.24960000  1.0 -0.3221122279
C  C28  1  0.23390000  0.37230000  0.24960000  1.0 -0.3221122279
C  C29  1  0.12770000  0.26610000  0.74960000  1.0 -0.3221122279
C  C30  1  0.87230000  0.73390000  0.74960000  1.0 -0.3221122279
C  C31  1  0.73390000  0.12770000  0.25040000  1.0 -0.3221122279
C  C32  1  0.26610000  0.87230000  0.25040000  1.0 -0.3221122279
C  C33  1  0.52310000  0.87880000  0.78100000  1.0 0.6357331258
C  C34  1  0.47690000  0.12120000  0.78100000  1.0 0.6357331258
C  C35  1  0.87880000  0.47690000  0.21900000  1.0 0.6357331258
C  C36  1  0.12120000  0.52310000  0.21900000  1.0 0.6292518804
C  C37  1  0.97690000  0.37880000  0.71900000  1.0 0.6357331258
C  C38  1  0.02310000  0.62120000  0.71900000  1.0 0.6357331258
C  C39  1  0.62120000  0.97690000  0.28100000  1.0 0.6357331258
C  C40  1  0.37880000  0.02310000  0.28100000  1.0 0.6292518804
C  C41  1  0.46660000  0.87540000  0.73570000  1.0 -0.2872073126
C  C42  1  0.53340000  0.12460000  0.73570000  1.0 -0.2872073126
C  C43  1  0.87540000  0.53340000  0.26430000  1.0 -0.2872073126
C  C44  1  0.12460000  0.46660000  0.26430000  1.0 -0.2872073126
C  C45  1  0.03340000  0.37540000  0.76430000  1.0 -0.2872073126
C  C46  1  0.96660000  0.62460000  0.76430000  1.0 -0.2872073126
C  C47  1  0.62460000  0.03340000  0.23570000  1.0 -0.2872073126
C  C48  1  0.37540000  0.96660000  0.23570000  1.0 -0.2872073126
C  C49  1  0.10430000  0.32420000  0.06080000  1.0 0.6292518804
C  C50  1  0.89570000  0.67580000  0.06080000  1.0 0.6292518804
C  C51  1  0.32420000  0.89570000  0.93920000  1.0 0.6292518804
C  C52  1  0.67580000  0.10430000  0.93920000  1.0 0.6292518804
C  C53  1  0.39570000  0.82420000  0.43920000  1.0 0.6292518804
C  C54  1  0.60430000  0.17580000  0.43920000  1.0 0.6292518804
C  C55  1  0.17580000  0.39570000  0.56080000  1.0 0.6292518804
C  C56  1  0.82420000  0.60430000  0.56080000  1.0 0.6292518804
C  C57  1  0.08390000  0.34660000  0.00600000  1.0 -0.2872073126
C  C58  1  0.91610000  0.65340000  0.00600000  1.0 -0.2872073126
C  C59  1  0.34660000  0.91610000  0.99400000  1.0 -0.2872073126
C  C60  1  0.65340000  0.08390000  0.99400000  1.0 -0.2872073126
C  C61  1  0.41610000  0.84660000  0.49400000  1.0 -0.2872073126
C  C62  1  0.58390000  0.15340000  0.49400000  1.0 -0.2872073126
C  C63  1  0.15340000  0.41610000  0.50600000  1.0 -0.2872073126
C  C64  1  0.84660000  0.58390000  0.50600000  1.0 -0.2872073126
C  C65  1  0.96100000  0.19120000  0.97060000  1.0 0.6201439098
C  C66  1  0.03900000  0.80880000  0.97060000  1.0 0.6201439098
C  C67  1  0.19120000  0.03900000  0.02940000  1.0 0.6201439098
C  C68  1  0.80880000  0.96100000  0.02940000  1.0 0.6201439098
C  C69  1  0.53900000  0.69120000  0.52940000  1.0 0.6201439098
C  C70  1  0.46100000  0.30880000  0.52940000  1.0 0.6201439098
C  C71  1  0.30880000  0.53900000  0.47060000  1.0 0.6201439098
C  C72  1  0.69120000  0.46100000  0.47060000  1.0 0.6201439098
C  C73  1  0.99890000  0.26520000  0.95170000  1.0 -0.2841189882
C  C74  1  0.00110000  0.73480000  0.95170000  1.0 -0.2872073126
C  C75  1  0.26520000  0.00110000  0.04830000  1.0 -0.2841189882
C  C76  1  0.73480000  0.99890000  0.04830000  1.0 -0.2872073126
C  C77  1  0.50110000  0.76520000  0.54830000  1.0 -0.2841189882
C  C78  1  0.49890000  0.23480000  0.54830000  1.0 -0.2841189882
C  C79  1  0.23480000  0.50110000  0.45170000  1.0 -0.2872073126
C  C80  1  0.76520000  0.49890000  0.45170000  1.0 -0.2841189882
C  C81  1  0.16400000  0.20970000  0.90640000  1.0 0.6292518804
C  C82  1  0.83600000  0.79030000  0.90640000  1.0 0.6292518804
C  C83  1  0.20970000  0.83600000  0.09360000  1.0 0.6292518804
C  C84  1  0.79030000  0.16400000  0.09360000  1.0 0.6292518804
C  C85  1  0.33600000  0.70970000  0.59360000  1.0 0.6292518804
C  C86  1  0.66400000  0.29030000  0.59360000  1.0 0.6292518804
C  C87  1  0.29030000  0.33600000  0.40640000  1.0 0.6292518804
C  C88  1  0.70970000  0.66400000  0.40640000  1.0 0.6292518804
C  C89  1  0.13180000  0.28690000  0.92210000  1.0 -0.2841189882
C  C90  1  0.86820000  0.71310000  0.92210000  1.0 -0.2841189882
C  C91  1  0.28690000  0.86820000  0.07790000  1.0 -0.2841189882
C  C92  1  0.71310000  0.13180000  0.07790000  1.0 -0.2841189882
C  C93  1  0.36820000  0.78690000  0.57790000  1.0 -0.2841189882
C  C94  1  0.63180000  0.21310000  0.57790000  1.0 -0.2841189882
C  C95  1  0.21310000  0.36820000  0.42210000  1.0 -0.2841189882
C  C96  1  0.78690000  0.63180000  0.42210000  1.0 -0.2841189882
N  N1  1  0.38570000  0.85090000  0.75380000  1.0 0.0092596355
N  N2  1  0.61430000  0.14910000  0.75380000  1.0 0.0092596355
N  N3  1  0.85090000  0.61430000  0.24620000  1.0 0.0092596355
N  N4  1  0.14910000  0.38570000  0.24620000  1.0 0.0092596355
N  N5  1  0.11430000  0.35090000  0.74620000  1.0 0.0092596355
N  N6  1  0.88570000  0.64910000  0.74620000  1.0 0.0092596355
N  N7  1  0.64910000  0.11430000  0.25380000  1.0 0.0092596355
N  N8  1  0.35090000  0.88570000  0.25380000  1.0 0.0092596355
N  N9  1  0.07930000  0.27950000  0.96890000  1.0 -0.0171215214
N  N10  1  0.92070000  0.72050000  0.96890000  1.0 -0.0171215214
N  N11  1  0.27950000  0.92070000  0.03110000  1.0 -0.0171215214
N  N12  1  0.72050000  0.07930000  0.03110000  1.0 -0.0171215214
N  N13  1  0.42070000  0.77950000  0.53110000  1.0 -0.0171215214
N  N14  1  0.57930000  0.22050000  0.53110000  1.0 -0.0171215214
N  N15  1  0.22050000  0.42070000  0.46890000  1.0 -0.0171215214
N  N16  1  0.77950000  0.57930000  0.46890000  1.0 -0.0171215214
Cl  Cl1  1  0.14580000  0.06846000  0.19492000  1.0 1.2145437495
Cl  Cl2  1  0.85420000  0.93154000  0.19492000  1.0 1.2151889102
Cl  Cl3  1  0.06846000  0.85420000  0.80508000  1.0 1.2151889102
Cl  Cl4  1  0.93154000  0.14580000  0.80508000  1.0 1.2151889102
Cl  Cl5  1  0.35420000  0.56846000  0.30508000  1.0 1.2151889102
Cl  Cl6  1  0.64580000  0.43154000  0.30508000  1.0 1.2145437495
Cl  Cl7  1  0.43154000  0.35420000  0.69492000  1.0 1.2151889102
Cl  Cl8  1  0.56846000  0.64580000  0.69492000  1.0 1.2151889102
Cl  Cl9  1  0.34230000  0.24390000  0.99960000  1.0 1.261862968
Cl  Cl10  1  0.65770000  0.75610000  0.99960000  1.0 1.261862968
Cl  Cl11  1  0.24390000  0.65770000  0.00040000  1.0 1.261862968
Cl  Cl12  1  0.75610000  0.34230000  0.00040000  1.0 1.261862968
Cl  Cl13  1  0.15770000  0.74390000  0.50040000  1.0 1.261862968
Cl  Cl14  1  0.84230000  0.25610000  0.50040000  1.0 1.261862968
Cl  Cl15  1  0.25610000  0.15770000  0.49960000  1.0 1.261862968
Cl  Cl16  1  0.74390000  0.84230000  0.49960000  1.0 1.261862968
Cl  Cl17  1  0.50000000  0.00000000  0.60508000  1.0 1.2301127211
Cl  Cl18  1  0.00000000  0.50000000  0.39492000  1.0 1.2301127211
Cl  Cl19  1  0.00000000  0.50000000  0.89492000  1.0 1.2301127211
Cl  Cl20  1  0.50000000  0.00000000  0.10508000  1.0 1.2301127211
O  O1  1  0.32260000  0.97630000  0.80280000  1.0 -0.6219466134
O  O2  1  0.67740000  0.02370000  0.80280000  1.0 -0.6219466134
O  O3  1  0.97630000  0.67740000  0.19720000  1.0 -0.6219466134
O  O4  1  0.02370000  0.32260000  0.19720000  1.0 -0.6219466134
O  O5  1  0.17740000  0.47630000  0.69720000  1.0 -0.6219466134
O  O6  1  0.82260000  0.52370000  0.69720000  1.0 -0.6219466134
O  O7  1  0.52370000  0.17740000  0.30280000  1.0 -0.6219466134
O  O8  1  0.47630000  0.82260000  0.30280000  1.0 -0.6219466134
O  O9  1  0.27640000  0.02520000  0.72890000  1.0 -0.5168131023
O  O10  1  0.72360000  0.97480000  0.72890000  1.0 -0.5168131023
O  O11  1  0.02520000  0.72360000  0.27110000  1.0 -0.5168131023
O  O12  1  0.97480000  0.27640000  0.27110000  1.0 -0.5168131023
O  O13  1  0.22360000  0.52520000  0.77110000  1.0 -0.5168131023
O  O14  1  0.77640000  0.47480000  0.77110000  1.0 -0.5168131023
O  O15  1  0.47480000  0.22360000  0.22890000  1.0 -0.5168131023
O  O16  1  0.52520000  0.77640000  0.22890000  1.0 -0.5168131023
O  O17  1  0.29760000  0.78410000  0.82690000  1.0 -0.5797018214
O  O18  1  0.70240000  0.21590000  0.82690000  1.0 -0.5797018214
O  O19  1  0.78410000  0.70240000  0.17310000  1.0 -0.5797018214
O  O20  1  0.21590000  0.29760000  0.17310000  1.0 -0.5797018214
O  O21  1  0.20240000  0.28410000  0.67310000  1.0 -0.5797018214
O  O22  1  0.79760000  0.71590000  0.67310000  1.0 -0.5797018214
O  O23  1  0.71590000  0.20240000  0.32690000  1.0 -0.5797018214
O  O24  1  0.28410000  0.79760000  0.32690000  1.0 -0.5797018214
O  O25  1  0.26110000  0.68880000  0.77160000  1.0 -0.5990588619
O  O26  1  0.73890000  0.31120000  0.77160000  1.0 -0.5990588619
O  O27  1  0.68880000  0.73890000  0.22840000  1.0 -0.5990588619
O  O28  1  0.31120000  0.26110000  0.22840000  1.0 -0.5990588619
O  O29  1  0.23890000  0.18880000  0.72840000  1.0 -0.5990588619
O  O30  1  0.76110000  0.81120000  0.72840000  1.0 -0.5990588619
O  O31  1  0.81120000  0.23890000  0.27160000  1.0 -0.5990588619
O  O32  1  0.18880000  0.76110000  0.27160000  1.0 -0.5990588619
O  O33  1  0.59370000  0.88020000  0.76950000  1.0 -0.6219466134
O  O34  1  0.40630000  0.11980000  0.76950000  1.0 -0.6219466134
O  O35  1  0.88020000  0.40630000  0.23050000  1.0 -0.6219466134
O  O36  1  0.11980000  0.59370000  0.23050000  1.0 -0.6219466134
O  O37  1  0.90630000  0.38020000  0.73050000  1.0 -0.6219466134
O  O38  1  0.09370000  0.61980000  0.73050000  1.0 -0.6219466134
O  O39  1  0.61980000  0.90630000  0.26950000  1.0 -0.6219466134
O  O40  1  0.38020000  0.09370000  0.26950000  1.0 -0.6219466134
O  O41  1  0.49650000  0.88490000  0.82740000  1.0 -0.5101256809
O  O42  1  0.50350000  0.11510000  0.82740000  1.0 -0.5101256809
O  O43  1  0.88490000  0.50350000  0.17260000  1.0 -0.5101256809
O  O44  1  0.11510000  0.49650000  0.17260000  1.0 -0.5101256809
O  O45  1  0.00350000  0.38490000  0.67260000  1.0 -0.5101256809
O  O46  1  0.99650000  0.61510000  0.67260000  1.0 -0.5101256809
O  O47  1  0.61510000  0.00350000  0.32740000  1.0 -0.5101256809
O  O48  1  0.38490000  0.99650000  0.32740000  1.0 -0.5101256809
O  O49  1  0.10790000  0.37960000  0.09380000  1.0 -0.5101256809
O  O50  1  0.89210000  0.62040000  0.09380000  1.0 -0.5101256809
O  O51  1  0.37960000  0.89210000  0.90620000  1.0 -0.5101256809
O  O52  1  0.62040000  0.10790000  0.90620000  1.0 -0.5101256809
O  O53  1  0.39210000  0.87960000  0.40620000  1.0 -0.5101256809
O  O54  1  0.60790000  0.12040000  0.40620000  1.0 -0.5101256809
O  O55  1  0.12040000  0.39210000  0.59380000  1.0 -0.5101256809
O  O56  1  0.87960000  0.60790000  0.59380000  1.0 -0.5101256809
O  O57  1  0.11520000  0.25250000  0.07220000  1.0 -0.5610823705
O  O58  1  0.88480000  0.74750000  0.07220000  1.0 -0.5610823705
O  O59  1  0.25250000  0.88480000  0.92780000  1.0 -0.5610823705
O  O60  1  0.74750000  0.11520000  0.92780000  1.0 -0.5610823705
O  O61  1  0.38480000  0.75250000  0.42780000  1.0 -0.5610823705
O  O62  1  0.61520000  0.24750000  0.42780000  1.0 -0.5610823705
O  O63  1  0.24750000  0.38480000  0.57220000  1.0 -0.5610823705
O  O64  1  0.75250000  0.61520000  0.57220000  1.0 -0.5610823705
O  O65  1  0.99930000  0.14500000  0.99890000  1.0 -0.5797018214
O  O66  1  0.00070000  0.85500000  0.99890000  1.0 -0.5797018214
O  O67  1  0.14500000  0.00070000  0.00110000  1.0 -0.5797018214
O  O68  1  0.85500000  0.99930000  0.00110000  1.0 -0.5797018214
O  O69  1  0.50070000  0.64500000  0.50110000  1.0 -0.5797018214
O  O70  1  0.49930000  0.35500000  0.50110000  1.0 -0.5797018214
O  O71  1  0.35500000  0.50070000  0.49890000  1.0 -0.5797018214
O  O72  1  0.64500000  0.49930000  0.49890000  1.0 -0.5797018214
O  O73  1  0.89310000  0.17900000  0.95360000  1.0 -0.5610823705
O  O74  1  0.10690000  0.82100000  0.95360000  1.0 -0.5610823705
O  O75  1  0.17900000  0.10690000  0.04640000  1.0 -0.5610823705
O  O76  1  0.82100000  0.89310000  0.04640000  1.0 -0.5610823705
O  O77  1  0.60690000  0.67900000  0.54640000  1.0 -0.5610823705
O  O78  1  0.39310000  0.32100000  0.54640000  1.0 -0.5610823705
O  O79  1  0.32100000  0.60690000  0.45360000  1.0 -0.5610823705
O  O80  1  0.67900000  0.39310000  0.45360000  1.0 -0.5610823705
O  O81  1  0.19650000  0.20420000  0.86260000  1.0 -0.6364910706
O  O82  1  0.80350000  0.79580000  0.86260000  1.0 -0.6364910706
O  O83  1  0.20420000  0.80350000  0.13740000  1.0 -0.6364910706
O  O84  1  0.79580000  0.19650000  0.13740000  1.0 -0.6364910706
O  O85  1  0.30350000  0.70420000  0.63740000  1.0 -0.6364910706
O  O86  1  0.69650000  0.29580000  0.63740000  1.0 -0.6364910706
O  O87  1  0.29580000  0.30350000  0.36260000  1.0 -0.6364910706
O  O88  1  0.70420000  0.69650000  0.36260000  1.0 -0.6364910706
O  O89  1  0.15920000  0.15410000  0.93950000  1.0 -0.4987347825
O  O90  1  0.84080000  0.84590000  0.93950000  1.0 -0.4987347825
O  O91  1  0.15410000  0.84080000  0.06050000  1.0 -0.4987347825
O  O92  1  0.84590000  0.15920000  0.06050000  1.0 -0.4987347825
O  O93  1  0.34080000  0.65410000  0.56050000  1.0 -0.4987347825
O  O94  1  0.65920000  0.34590000  0.56050000  1.0 -0.4987347825
O  O95  1  0.34590000  0.34080000  0.43950000  1.0 -0.4987347825
O  O96  1  0.65410000  0.65920000  0.43950000  1.0 -0.4987347825
O  O97  1  0.36540000  0.11510000  0.88330000  1.0 -0.7783436879
O  O98  1  0.63460000  0.88490000  0.88330000  1.0 -0.7783436879
O  O99  1  0.11510000  0.63460000  0.11670000  1.0 -0.7783436879
O  O100  1  0.88490000  0.36540000  0.11670000  1.0 -0.7783436879
O  O101  1  0.13460000  0.61510000  0.61670000  1.0 -0.7783436879
O  O102  1  0.86540000  0.38490000  0.61670000  1.0 -0.7783436879
O  O103  1  0.38490000  0.13460000  0.38330000  1.0 -0.7783436879
O  O104  1  0.61510000  0.86540000  0.38330000  1.0 -0.7783436879
O  O105  1  0.32760000  0.25550000  0.81070000  1.0 -0.7444899782
O  O106  1  0.67240000  0.74450000  0.81070000  1.0 -0.7444899782
O  O107  1  0.25550000  0.67240000  0.18930000  1.0 -0.7444899782
O  O108  1  0.74450000  0.32760000  0.18930000  1.0 -0.7444899782
O  O109  1  0.17240000  0.75550000  0.68930000  1.0 -0.7444899782
O  O110  1  0.82760000  0.24450000  0.68930000  1.0 -0.7444899782
O  O111  1  0.24450000  0.17240000  0.31070000  1.0 -0.7444899782
O  O112  1  0.75550000  0.82760000  0.31070000  1.0 -0.7444899782
O  O113  1  0.14030000  0.08250000  0.78370000  1.0 -0.7687852114
O  O114  1  0.85970000  0.91750000  0.78370000  1.0 -0.7687852114
O  O115  1  0.08250000  0.85970000  0.21630000  1.0 -0.7687852114
O  O116  1  0.91750000  0.14030000  0.21630000  1.0 -0.7687852114
O  O117  1  0.35970000  0.58250000  0.71630000  1.0 -0.7687852114
O  O118  1  0.64030000  0.41750000  0.71630000  1.0 -0.7687852114
O  O119  1  0.41750000  0.35970000  0.28370000  1.0 -0.7687852114
O  O120  1  0.58250000  0.64030000  0.28370000  1.0 -0.7687852114
O  O121  1  0.21490000  0.03640000  0.87640000  1.0 -0.7624582752
O  O122  1  0.78510000  0.96360000  0.87640000  1.0 -0.7624582752
O  O123  1  0.03640000  0.78510000  0.12360000  1.0 -0.7624582752
O  O124  1  0.96360000  0.21490000  0.12360000  1.0 -0.7624582752
O  O125  1  0.28510000  0.53640000  0.62360000  1.0 -0.7624582752
O  O126  1  0.71490000  0.46360000  0.62360000  1.0 -0.7624582752
O  O127  1  0.46360000  0.28510000  0.37640000  1.0 -0.7624582752
O  O128  1  0.53640000  0.71490000  0.37640000  1.0 -0.7624582752
O  O129  1  0.11520000  0.13620000  0.17540000  1.0 -0.4296378001
O  O130  1  0.88480000  0.86380000  0.17540000  1.0 -0.4296378001
O  O131  1  0.13620000  0.88480000  0.82460000  1.0 -0.4296378001
O  O132  1  0.86380000  0.11520000  0.82460000  1.0 -0.4296378001
O  O133  1  0.38480000  0.63620000  0.32460000  1.0 -0.4296378001
O  O134  1  0.61520000  0.36380000  0.32460000  1.0 -0.4296378001
O  O135  1  0.36380000  0.38480000  0.67540000  1.0 -0.4296378001
O  O136  1  0.63620000  0.61520000  0.67540000  1.0 -0.4296378001
O  O137  1  0.23400000  0.08780000  0.17290000  1.0 -0.5379836961
O  O138  1  0.76600000  0.91220000  0.17290000  1.0 -0.5379836961
O  O139  1  0.08780000  0.76600000  0.82710000  1.0 -0.5379836961
O  O140  1  0.91220000  0.23400000  0.82710000  1.0 -0.5379836961
O  O141  1  0.26600000  0.58780000  0.32710000  1.0 -0.5379836961
O  O142  1  0.73400000  0.41220000  0.32710000  1.0 -0.5379836961
O  O143  1  0.41220000  0.26600000  0.67290000  1.0 -0.5379836961
O  O144  1  0.58780000  0.73400000  0.67290000  1.0 -0.5379836961
O  O145  1  0.13730000  0.00020000  0.16250000  1.0 -0.4884628757
O  O146  1  0.86270000  0.99980000  0.16250000  1.0 -0.4884628757
O  O147  1  0.00020000  0.86270000  0.83750000  1.0 -0.4884628757
O  O148  1  0.99980000  0.13730000  0.83750000  1.0 -0.4884628757
O  O149  1  0.36270000  0.50020000  0.33750000  1.0 -0.4884628757
O  O150  1  0.63730000  0.49980000  0.33750000  1.0 -0.4884628757
O  O151  1  0.49980000  0.36270000  0.66250000  1.0 -0.4884628757
O  O152  1  0.50020000  0.63730000  0.66250000  1.0 -0.4884628757
O  O153  1  0.16630000  0.05290000  0.24470000  1.0 -0.4037605628
O  O154  1  0.83370000  0.94710000  0.24470000  1.0 -0.4037605628
O  O155  1  0.05290000  0.83370000  0.75530000  1.0 -0.4037605628
O  O156  1  0.94710000  0.16630000  0.75530000  1.0 -0.4037605628
O  O157  1  0.33370000  0.55290000  0.25530000  1.0 -0.4037605628
O  O158  1  0.66630000  0.44710000  0.25530000  1.0 -0.4037605628
O  O159  1  0.44710000  0.33370000  0.74470000  1.0 -0.4037605628
O  O160  1  0.55290000  0.66630000  0.74470000  1.0 -0.4037605628
O  O161  1  0.27230000  0.25950000  0.02750000  1.0 -0.5516909464
O  O162  1  0.72770000  0.74050000  0.02750000  1.0 -0.5516909464
O  O163  1  0.25950000  0.72770000  0.97250000  1.0 -0.5516909464
O  O164  1  0.74050000  0.27230000  0.97250000  1.0 -0.5516909464
O  O165  1  0.22770000  0.75950000  0.47250000  1.0 -0.5516909464
O  O166  1  0.77230000  0.24050000  0.47250000  1.0 -0.5516909464
O  O167  1  0.24050000  0.22770000  0.52750000  1.0 -0.5516909464
O  O168  1  0.75950000  0.77230000  0.52750000  1.0 -0.5516909464
O  O169  1  0.35750000  0.16250000  0.99280000  1.0 -0.4884628757
O  O170  1  0.64250000  0.83750000  0.99280000  1.0 -0.4884628757
O  O171  1  0.16250000  0.64250000  0.00720000  1.0 -0.4884628757
O  O172  1  0.83750000  0.35750000  0.00720000  1.0 -0.4884628757
O  O173  1  0.14250000  0.66250000  0.50720000  1.0 -0.4884628757
O  O174  1  0.85750000  0.33750000  0.50720000  1.0 -0.4884628757
O  O175  1  0.33750000  0.14250000  0.49280000  1.0 -0.4884628757
O  O176  1  0.66250000  0.85750000  0.49280000  1.0 -0.4884628757
O  O177  1  0.40640000  0.28730000  0.01600000  1.0 -0.4387400403
O  O178  1  0.59360000  0.71270000  0.01600000  1.0 -0.4387400403
O  O179  1  0.28730000  0.59360000  0.98400000  1.0 -0.4387400403
O  O180  1  0.71270000  0.40640000  0.98400000  1.0 -0.4387400403
O  O181  1  0.09360000  0.78730000  0.48400000  1.0 -0.4387400403
O  O182  1  0.90640000  0.21270000  0.48400000  1.0 -0.4387400403
O  O183  1  0.21270000  0.09360000  0.51600000  1.0 -0.4387400403
O  O184  1  0.78730000  0.90640000  0.51600000  1.0 -0.4387400403
O  O185  1  0.32440000  0.27330000  0.94610000  1.0 -0.4785296126
O  O186  1  0.67560000  0.72670000  0.94610000  1.0 -0.4785296126
O  O187  1  0.27330000  0.67560000  0.05390000  1.0 -0.4785296126
O  O188  1  0.72670000  0.32440000  0.05390000  1.0 -0.4785296126
O  O189  1  0.17560000  0.77330000  0.55390000  1.0 -0.4785296126
O  O190  1  0.82440000  0.22670000  0.55390000  1.0 -0.4785296126
O  O191  1  0.22670000  0.17560000  0.44610000  1.0 -0.4785296126
O  O192  1  0.77330000  0.82440000  0.44610000  1.0 -0.4785296126
O  O193  1  0.35090000  0.15160000  0.14330000  1.0 -0.7088394268
O  O194  1  0.64910000  0.84840000  0.14330000  1.0 -0.7088394268
O  O195  1  0.15160000  0.64910000  0.85670000  1.0 -0.7088394268
O  O196  1  0.84840000  0.35090000  0.85670000  1.0 -0.7088394268
O  O197  1  0.14910000  0.65160000  0.35670000  1.0 -0.7088394268
O  O198  1  0.85090000  0.34840000  0.35670000  1.0 -0.7088394268
O  O199  1  0.34840000  0.14910000  0.64330000  1.0 -0.7088394268
O  O200  1  0.65160000  0.85090000  0.64330000  1.0 -0.7088394268
O  O201  1  0.00000000  0.00000000  0.09050000  1.0 -0.5610823705
O  O202  1  0.00000000  0.00000000  0.90950000  1.0 -0.5610823705
O  O203  1  0.50000000  0.50000000  0.40950000  1.0 -0.5610823705
O  O204  1  0.50000000  0.50000000  0.59050000  1.0 -0.5610823705
O  O205  1  0.48500000  0.06600000  0.57760000  1.0 -0.4296378001
O  O206  1  0.51500000  0.93400000  0.57760000  1.0 -0.4296378001
O  O207  1  0.43280000  0.99120000  0.64000000  1.0 -0.4884628757
O  O208  1  0.56720000  0.00880000  0.64000000  1.0 -0.4884628757
O  O209  1  0.06600000  0.51500000  0.42240000  1.0 -0.4296378001
O  O210  1  0.93400000  0.48500000  0.42240000  1.0 -0.4296378001
O  O211  1  0.99120000  0.56720000  0.36000000  1.0 -0.4884628757
O  O212  1  0.00880000  0.43280000  0.36000000  1.0 -0.4884628757
O  O213  1  0.01500000  0.56600000  0.92240000  1.0 -0.4296378001
O  O214  1  0.98500000  0.43400000  0.92240000  1.0 -0.4296378001
O  O215  1  0.06720000  0.49120000  0.86000000  1.0 -0.4884628757
O  O216  1  0.93280000  0.50880000  0.86000000  1.0 -0.4884628757
O  O217  1  0.43400000  0.01500000  0.07760000  1.0 -0.4296378001
O  O218  1  0.56600000  0.98500000  0.07760000  1.0 -0.4296378001
O  O219  1  0.50880000  0.06720000  0.14000000  1.0 -0.4884628757
O  O220  1  0.49120000  0.93280000  0.14000000  1.0 -0.4884628757
