# DDEC6 charges by PACMAN v1.1 (https://github.com/mtap-research/PACMAN-charge/)
data_QUFTAM_FSR_pacman
_symmetry_space_group_name_H-M   'P 1'
_cell_length_a   11.57670000
_cell_length_b   11.57670000
_cell_length_c   11.23400000
_cell_angle_alpha   79.89950000
_cell_angle_beta   100.10100000
_cell_angle_gamma   70.90160000
_symmetry_Int_Tables_number   1
_chemical_formula_structural   NaCuH7C7SO8
_chemical_formula_sum   'Na4 Cu4 H28 C28 S4 O32'
_cell_volume   1356.11118791
_cell_formula_units_Z   4
loop_
 _symmetry_equiv_pos_site_id
 _symmetry_equiv_pos_as_xyz
  1  'x, y, z'
loop_
 _atom_site_type_symbol
 _atom_site_label
 _atom_site_symmetry_multiplicity
 _atom_site_fract_x
 _atom_site_fract_y
 _atom_site_fract_z
 _atom_site_occupancy
 _atom_site_charge
Na  Na1  1  0.85820000  0.85820000  0.75000000  1.0 0.8611867938
Na  Na2  1  0.14180000  0.14180000  0.25000000  1.0 0.8611867938
Na  Na3  1  0.04930000  0.04930000  0.75000000  1.0 0.8912521713
Na  Na4  1  0.95070000  0.95070000  0.25000000  1.0 0.8912521713
Cu  Cu1  1  0.77570000  0.83470000  0.01930000  1.0 0.8912521713
Cu  Cu2  1  0.83470000  0.77570000  0.48070000  1.0 0.8912521713
Cu  Cu3  1  0.22430000  0.16530000  0.98070000  1.0 0.8912521713
Cu  Cu4  1  0.16530000  0.22430000  0.51930000  1.0 0.8912521713
H  H1  1  0.66060000  0.02240000  0.85810000  1.0 0.3867968681
H  H2  1  0.02240000  0.66060000  0.64190000  1.0 0.3867968681
H  H3  1  0.33940000  0.97760000  0.14190000  1.0 0.3867968681
H  H4  1  0.97760000  0.33940000  0.35810000  1.0 0.3867968681
H  H5  1  0.77850000  0.03590000  0.90030000  1.0 0.3867968681
H  H6  1  0.03590000  0.77850000  0.59970000  1.0 0.3867968681
H  H7  1  0.22150000  0.96410000  0.09970000  1.0 0.3867968681
H  H8  1  0.96410000  0.22150000  0.40030000  1.0 0.3867968681
H  H9  1  0.67270000  0.01770000  0.08850000  1.0 0.3206457335
H  H10  1  0.01770000  0.67270000  0.41150000  1.0 0.3206457335
H  H11  1  0.32730000  0.98230000  0.91150000  1.0 0.3206457335
H  H12  1  0.98230000  0.32730000  0.58850000  1.0 0.3206457335
H  H13  1  0.69790000  0.91810000  0.18010000  1.0 0.3289874259
H  H14  1  0.91810000  0.69790000  0.31990000  1.0 0.3289874259
H  H15  1  0.30210000  0.08190000  0.81990000  1.0 0.3289874259
H  H16  1  0.08190000  0.30210000  0.68010000  1.0 0.3289874259
H  H17  1  0.12560000  0.64700000  0.86150000  1.0 0.1254611972
H  H18  1  0.64700000  0.12560000  0.63850000  1.0 0.1254611972
H  H19  1  0.87440000  0.35300000  0.13850000  1.0 0.1254611972
H  H20  1  0.35300000  0.87440000  0.36150000  1.0 0.1254611972
H  H21  1  0.18090000  0.39750000  0.25130000  1.0 0.1352851304
H  H22  1  0.39750000  0.18090000  0.24870000  1.0 0.1352851304
H  H23  1  0.81910000  0.60250000  0.74870000  1.0 0.1352851304
H  H24  1  0.60250000  0.81910000  0.75130000  1.0 0.1352851304
H  H25  1  0.13920000  0.60960000  0.22390000  1.0 0.1244396034
H  H26  1  0.60960000  0.13920000  0.27610000  1.0 0.1244396034
H  H27  1  0.86080000  0.39040000  0.77610000  1.0 0.1244396034
H  H28  1  0.39040000  0.86080000  0.72390000  1.0 0.1244396034
C  C1  1  0.12250000  0.64950000  0.03610000  1.0 -0.1311592471
C  C2  1  0.64950000  0.12250000  0.46390000  1.0 -0.1311592471
C  C3  1  0.87750000  0.35050000  0.96390000  1.0 -0.1311592471
C  C4  1  0.35050000  0.87750000  0.53610000  1.0 -0.1311592471
C  C5  1  0.13330000  0.59630000  0.93880000  1.0 -0.0905102727
C  C6  1  0.59630000  0.13330000  0.56120000  1.0 -0.0905102727
C  C7  1  0.86670000  0.40370000  0.06120000  1.0 -0.0905102727
C  C8  1  0.40370000  0.86670000  0.43880000  1.0 -0.0905102727
C  C9  1  0.15600000  0.46700000  0.94960000  1.0 -0.1858192694
C  C10  1  0.46700000  0.15600000  0.55040000  1.0 -0.1858192694
C  C11  1  0.84400000  0.53300000  0.05040000  1.0 -0.1858192694
C  C12  1  0.53300000  0.84400000  0.44960000  1.0 -0.1858192694
C  C13  1  0.17160000  0.38880000  0.06930000  1.0 0.3472920272
C  C14  1  0.38880000  0.17160000  0.43070000  1.0 0.3472920272
C  C15  1  0.82840000  0.61120000  0.93070000  1.0 0.3472920272
C  C16  1  0.61120000  0.82840000  0.56930000  1.0 0.3472920272
C  C17  1  0.16690000  0.44710000  0.17160000  1.0 -0.2095605519
C  C18  1  0.44710000  0.16690000  0.32840000  1.0 -0.2095605519
C  C19  1  0.83310000  0.55290000  0.82840000  1.0 -0.2095605519
C  C20  1  0.55290000  0.83310000  0.67160000  1.0 -0.2095605519
C  C21  1  0.14250000  0.57410000  0.15590000  1.0 -0.0638623026
C  C22  1  0.57410000  0.14250000  0.34410000  1.0 -0.0638623026
C  C23  1  0.85750000  0.42590000  0.84410000  1.0 -0.0638623026
C  C24  1  0.42590000  0.85750000  0.65590000  1.0 -0.0638623026
C  C25  1  0.15200000  0.42020000  0.83410000  1.0 0.5848397228
C  C26  1  0.42020000  0.15200000  0.66590000  1.0 0.5848397228
C  C27  1  0.84800000  0.57980000  0.16590000  1.0 0.5848397228
C  C28  1  0.57980000  0.84800000  0.33410000  1.0 0.5848397228
S  S1  1  0.08510000  0.81250000  0.01630000  1.0 1.230010173
S  S2  1  0.81250000  0.08510000  0.48370000  1.0 1.230010173
S  S3  1  0.91490000  0.18750000  0.98370000  1.0 1.230010173
S  S4  1  0.18750000  0.91490000  0.51630000  1.0 1.230010173
O  O1  1  0.03980000  0.86860000  0.88240000  1.0 -0.7103462008
O  O2  1  0.86860000  0.03980000  0.61760000  1.0 -0.7103462008
O  O3  1  0.96020000  0.13140000  0.11760000  1.0 -0.7103462008
O  O4  1  0.13140000  0.96020000  0.38240000  1.0 -0.7103462008
O  O5  1  0.98690000  0.85450000  0.08170000  1.0 -0.7103462008
O  O6  1  0.85450000  0.98690000  0.41830000  1.0 -0.7103462008
O  O7  1  0.01310000  0.14550000  0.91830000  1.0 -0.7103462008
O  O8  1  0.14550000  0.01310000  0.58170000  1.0 -0.7103462008
O  O9  1  0.19970000  0.83010000  0.07150000  1.0 -0.5978723255
O  O10  1  0.83010000  0.19970000  0.42850000  1.0 -0.5978723255
O  O11  1  0.80030000  0.16990000  0.92850000  1.0 -0.5978723255
O  O12  1  0.16990000  0.80030000  0.57150000  1.0 -0.5978723255
O  O13  1  0.12650000  0.49730000  0.73040000  1.0 -0.5282210794
O  O14  1  0.49730000  0.12650000  0.76960000  1.0 -0.5282210794
O  O15  1  0.87350000  0.50270000  0.26960000  1.0 -0.5282210794
O  O16  1  0.50270000  0.87350000  0.23040000  1.0 -0.5282210794
O  O17  1  0.17510000  0.30470000  0.83900000  1.0 -0.5445644644
O  O18  1  0.30470000  0.17510000  0.66100000  1.0 -0.5445644644
O  O19  1  0.82490000  0.69530000  0.16100000  1.0 -0.5445644644
O  O20  1  0.69530000  0.82490000  0.33900000  1.0 -0.5445644644
O  O21  1  0.18860000  0.26900000  0.09180000  1.0 -0.6135635164
O  O22  1  0.26900000  0.18860000  0.40820000  1.0 -0.6135635164
O  O23  1  0.81140000  0.73100000  0.90820000  1.0 -0.6135635164
O  O24  1  0.73100000  0.81140000  0.59180000  1.0 -0.6135635164
O  O25  1  0.73650000  0.98050000  0.87730000  1.0 -0.7191275444
O  O26  1  0.98050000  0.73650000  0.62270000  1.0 -0.7191275444
O  O27  1  0.26350000  0.01950000  0.12270000  1.0 -0.7191275444
O  O28  1  0.01950000  0.26350000  0.37730000  1.0 -0.7191275444
O  O29  1  0.72530000  0.94950000  0.13060000  1.0 -0.633073428
O  O30  1  0.94950000  0.72530000  0.36940000  1.0 -0.633073428
O  O31  1  0.27470000  0.05050000  0.86940000  1.0 -0.633073428
O  O32  1  0.05050000  0.27470000  0.63060000  1.0 -0.633073428
