# DDEC6 charges by PACMAN v1.1 (https://github.com/mtap-research/PACMAN-charge/)
data_QUGPAJ_ASR_pacman
_symmetry_space_group_name_H-M   'P 1'
_cell_length_a   20.57320000
_cell_length_b   20.57320000
_cell_length_c   20.57320000
_cell_angle_alpha   104.40900000
_cell_angle_beta   104.40900000
_cell_angle_gamma   104.40900000
_symmetry_Int_Tables_number   1
_chemical_formula_structural   NdRe6C6(Se4N3)2
_chemical_formula_sum   'Nd6 Re36 C36 Se48 N36'
_cell_volume   7707.28699902
_cell_formula_units_Z   6
loop_
 _symmetry_equiv_pos_site_id
 _symmetry_equiv_pos_as_xyz
  1  'x, y, z'
loop_
 _atom_site_type_symbol
 _atom_site_label
 _atom_site_symmetry_multiplicity
 _atom_site_fract_x
 _atom_site_fract_y
 _atom_site_fract_z
 _atom_site_occupancy
 _atom_site_charge
Nd  Nd1  1  0.52268000  0.21861000  0.68145000  1.0 1.0534619125
Nd  Nd2  1  0.21861000  0.68145000  0.52268000  1.0 1.0391144784
Nd  Nd3  1  0.68145000  0.52268000  0.21861000  1.0 1.0182122024
Nd  Nd4  1  0.02268000  0.18145000  0.71861000  1.0 1.0534619125
Nd  Nd5  1  0.71861000  0.02268000  0.18145000  1.0 1.0391144784
Nd  Nd6  1  0.18145000  0.71861000  0.02268000  1.0 1.0391144784
Re  Re1  1  0.89640000  0.43903000  0.97777000  1.0 0.0295652867
Re  Re2  1  0.43903000  0.97777000  0.89640000  1.0 0.0295652867
Re  Re3  1  0.97777000  0.89640000  0.43903000  1.0 0.0295652867
Re  Re4  1  0.39640000  0.47777000  0.93903000  1.0 0.0295652867
Re  Re5  1  0.93903000  0.39640000  0.47777000  1.0 0.0295652867
Re  Re6  1  0.47777000  0.93903000  0.39640000  1.0 0.0210599234
Re  Re7  1  0.78359000  0.32320000  0.91883000  1.0 0.0111134897
Re  Re8  1  0.32320000  0.91883000  0.78359000  1.0 0.0111134897
Re  Re9  1  0.91883000  0.78359000  0.32320000  1.0 0.0111134897
Re  Re10  1  0.28359000  0.41883000  0.82320000  1.0 0.0111134897
Re  Re11  1  0.82320000  0.28359000  0.41883000  1.0 0.0111134897
Re  Re12  1  0.41883000  0.82320000  0.28359000  1.0 0.0111134897
Re  Re13  1  0.95621000  0.38026000  0.06508000  1.0 0.0031442916
Re  Re14  1  0.38026000  0.06508000  0.95621000  1.0 -0.0014561905
Re  Re15  1  0.06508000  0.95621000  0.38026000  1.0 -0.0014561905
Re  Re16  1  0.45621000  0.56508000  0.88026000  1.0 0.0111134897
Re  Re17  1  0.88026000  0.45621000  0.56508000  1.0 -0.0055628573
Re  Re18  1  0.56508000  0.88026000  0.45621000  1.0 0.0031442916
Re  Re19  1  0.82889000  0.38823000  0.05708000  1.0 0.0111134897
Re  Re20  1  0.38823000  0.05708000  0.82889000  1.0 0.0210599234
Re  Re21  1  0.05708000  0.82889000  0.38823000  1.0 0.0210599234
Re  Re22  1  0.32889000  0.55708000  0.88823000  1.0 0.0210599234
Re  Re23  1  0.88823000  0.32889000  0.55708000  1.0 0.0210599234
Re  Re24  1  0.55708000  0.88823000  0.32889000  1.0 0.0210599234
Re  Re25  1  0.91106000  0.31503000  0.92661000  1.0 0.0210599234
Re  Re26  1  0.31503000  0.92661000  0.91106000  1.0 0.0295652867
Re  Re27  1  0.92661000  0.91106000  0.31503000  1.0 0.0111134897
Re  Re28  1  0.41106000  0.42661000  0.81503000  1.0 0.0210599234
Re  Re29  1  0.81503000  0.41106000  0.42661000  1.0 0.0210599234
Re  Re30  1  0.42661000  0.81503000  0.41106000  1.0 0.0295652867
Re  Re31  1  0.84366000  0.26411000  0.00563000  1.0 0.0111134897
Re  Re32  1  0.26411000  0.00563000  0.84366000  1.0 0.0295652867
Re  Re33  1  0.00563000  0.84366000  0.26411000  1.0 0.0210599234
Re  Re34  1  0.34366000  0.50563000  0.76411000  1.0 0.0210599234
Re  Re35  1  0.76411000  0.34366000  0.50563000  1.0 0.0210599234
Re  Re36  1  0.50563000  0.76411000  0.34366000  1.0 0.0210599234
C  C1  1  0.92170000  0.53520000  0.95920000  1.0 0.0706856267
C  C2  1  0.53520000  0.95920000  0.92170000  1.0 0.0706856267
C  C3  1  0.95920000  0.92170000  0.53520000  1.0 0.0706856267
C  C4  1  0.42170000  0.45920000  0.03520000  1.0 0.0706856267
C  C5  1  0.03520000  0.42170000  0.45920000  1.0 0.0706856267
C  C6  1  0.45920000  0.03520000  0.42170000  1.0 0.0706856267
C  C7  1  0.68620000  0.29270000  0.83630000  1.0 0.2525434287
C  C8  1  0.29270000  0.83630000  0.68620000  1.0 0.2525434287
C  C9  1  0.83630000  0.68620000  0.29270000  1.0 0.2593738468
C  C10  1  0.18620000  0.33630000  0.79270000  1.0 0.2525434287
C  C11  1  0.79270000  0.18620000  0.33630000  1.0 0.2525434287
C  C12  1  0.33630000  0.79270000  0.18620000  1.0 0.2525434287
C  C13  1  0.05360000  0.41160000  0.14980000  1.0 0.1825905772
C  C14  1  0.41160000  0.14980000  0.05360000  1.0 0.1825905772
C  C15  1  0.14980000  0.05360000  0.41160000  1.0 0.1869903313
C  C16  1  0.55360000  0.64980000  0.91160000  1.0 0.1825905772
C  C17  1  0.91160000  0.55360000  0.64980000  1.0 0.1869903313
C  C18  1  0.64980000  0.91160000  0.55360000  1.0 0.1825905772
C  C19  1  0.77810000  0.43340000  0.13110000  1.0 0.2323762856
C  C20  1  0.43340000  0.13110000  0.77810000  1.0 0.2323762856
C  C21  1  0.13110000  0.77810000  0.43340000  1.0 0.2323762856
C  C22  1  0.27810000  0.63110000  0.93340000  1.0 0.2323762856
C  C23  1  0.93340000  0.27810000  0.63110000  1.0 0.2323762856
C  C24  1  0.63110000  0.93340000  0.27810000  1.0 0.2323762856
C  C25  1  0.95630000  0.26880000  0.85170000  1.0 0.2032095434
C  C26  1  0.26880000  0.85170000  0.95630000  1.0 0.2032095434
C  C27  1  0.85170000  0.95630000  0.26880000  1.0 0.2090590777
C  C28  1  0.45630000  0.35170000  0.76880000  1.0 0.2032095434
C  C29  1  0.76880000  0.45630000  0.35170000  1.0 0.2032095434
C  C30  1  0.35170000  0.76880000  0.45630000  1.0 0.2032095434
C  C31  1  0.81620000  0.16730000  0.01770000  1.0 0.0785110227
C  C32  1  0.16730000  0.01770000  0.81620000  1.0 0.0706856267
C  C33  1  0.01770000  0.81620000  0.16730000  1.0 0.0785110227
C  C34  1  0.31620000  0.51770000  0.66730000  1.0 0.0706856267
C  C35  1  0.66730000  0.31620000  0.51770000  1.0 0.0785110227
C  C36  1  0.51770000  0.66730000  0.31620000  1.0 0.0785110227
Se  Se1  1  0.80187000  0.20564000  0.87228000  1.0 0.1309786048
Se  Se2  1  0.20564000  0.87228000  0.80187000  1.0 0.1351265343
Se  Se3  1  0.87228000  0.80187000  0.20564000  1.0 0.1309786048
Se  Se4  1  0.30187000  0.37228000  0.70564000  1.0 0.119229907
Se  Se5  1  0.70564000  0.30187000  0.37228000  1.0 0.119229907
Se  Se6  1  0.37228000  0.70564000  0.30187000  1.0 0.119229907
Se  Se7  1  0.88861000  0.33058000  0.13835000  1.0 0.0785110227
Se  Se8  1  0.33058000  0.13835000  0.88861000  1.0 0.0706856267
Se  Se9  1  0.13835000  0.88861000  0.33058000  1.0 0.0706856267
Se  Se10  1  0.38861000  0.63835000  0.83058000  1.0 0.0608030552
Se  Se11  1  0.83058000  0.38861000  0.63835000  1.0 0.0706856267
Se  Se12  1  0.63835000  0.83058000  0.38861000  1.0 0.0706856267
Se  Se13  1  0.72297000  0.27485000  0.99801000  1.0 0.0785110227
Se  Se14  1  0.27485000  0.99801000  0.72297000  1.0 0.0785110227
Se  Se15  1  0.99801000  0.72297000  0.27485000  1.0 0.0785110227
Se  Se16  1  0.22297000  0.49801000  0.77485000  1.0 0.0706856267
Se  Se17  1  0.77485000  0.22297000  0.49801000  1.0 0.0785110227
Se  Se18  1  0.49801000  0.77485000  0.22297000  1.0 0.0785110227
Se  Se19  1  0.77315000  0.44315000  0.97120000  1.0 0.1009977044
Se  Se20  1  0.44315000  0.97120000  0.77315000  1.0 0.0918277057
Se  Se21  1  0.97120000  0.77315000  0.44315000  1.0 0.1093407696
Se  Se22  1  0.27315000  0.47120000  0.94315000  1.0 0.0918277057
Se  Se23  1  0.94315000  0.27315000  0.47120000  1.0 0.1009977044
Se  Se24  1  0.47120000  0.94315000  0.27315000  1.0 0.1093407696
Se  Se25  1  0.01745000  0.42784000  0.98665000  1.0 0.0918277057
Se  Se26  1  0.42784000  0.98665000  0.01745000  1.0 0.0785110227
Se  Se27  1  0.98665000  0.01745000  0.42784000  1.0 0.0918277057
Se  Se28  1  0.51745000  0.48665000  0.92784000  1.0 0.0706856267
Se  Se29  1  0.92784000  0.51745000  0.48665000  1.0 0.0918277057
Se  Se30  1  0.48665000  0.92784000  0.51745000  1.0 0.0785110227
Se  Se31  1  0.85186000  0.37271000  0.84569000  1.0 0.0608030552
Se  Se32  1  0.37271000  0.84569000  0.85186000  1.0 0.0608030552
Se  Se33  1  0.84569000  0.85186000  0.37271000  1.0 0.0706856267
Se  Se34  1  0.35186000  0.34569000  0.87271000  1.0 0.0608030552
Se  Se35  1  0.87271000  0.35186000  0.34569000  1.0 0.0608030552
Se  Se36  1  0.34569000  0.87271000  0.35186000  1.0 0.0608030552
Se  Se37  1  0.93769000  0.49812000  0.11043000  1.0 0.0706856267
Se  Se38  1  0.49812000  0.11043000  0.93769000  1.0 0.0608030552
Se  Se39  1  0.11043000  0.93769000  0.49812000  1.0 0.0706856267
Se  Se40  1  0.43769000  0.61043000  0.99812000  1.0 0.0608030552
Se  Se41  1  0.99812000  0.43769000  0.61043000  1.0 0.0706856267
Se  Se42  1  0.61043000  0.99812000  0.43769000  1.0 0.0706856267
Se  Se43  1  0.96647000  0.25994000  0.01287000  1.0 0.119229907
Se  Se44  1  0.25994000  0.01287000  0.96647000  1.0 0.119229907
Se  Se45  1  0.01287000  0.96647000  0.25994000  1.0 0.1351265343
Se  Se46  1  0.46647000  0.51287000  0.75994000  1.0 0.1093407696
Se  Se47  1  0.75994000  0.46647000  0.51287000  1.0 0.1309786048
Se  Se48  1  0.51287000  0.75994000  0.46647000  1.0 0.1093407696
N  N1  1  0.94030000  0.58620000  0.94810000  1.0 -0.317946406
N  N2  1  0.58620000  0.94810000  0.94030000  1.0 -0.317946406
N  N3  1  0.94810000  0.94030000  0.58620000  1.0 -0.317946406
N  N4  1  0.44030000  0.44810000  0.08620000  1.0 -0.317946406
N  N5  1  0.08620000  0.44030000  0.44810000  1.0 -0.317946406
N  N6  1  0.44810000  0.08620000  0.44030000  1.0 -0.317946406
N  N7  1  0.62500000  0.27440000  0.79460000  1.0 -0.7065765975
N  N8  1  0.27440000  0.79460000  0.62500000  1.0 -0.7065765975
N  N9  1  0.79460000  0.62500000  0.27440000  1.0 -0.7298710612
N  N10  1  0.12500000  0.29460000  0.77440000  1.0 -0.7065765975
N  N11  1  0.77440000  0.12500000  0.29460000  1.0 -0.7298710612
N  N12  1  0.29460000  0.77440000  0.12500000  1.0 -0.7065765975
N  N13  1  0.09890000  0.42380000  0.18920000  1.0 -0.3096590573
N  N14  1  0.42380000  0.18920000  0.09890000  1.0 -0.3096590573
N  N15  1  0.18920000  0.09890000  0.42380000  1.0 -0.3096590573
N  N16  1  0.59890000  0.68920000  0.92380000  1.0 -0.3045965799
N  N17  1  0.92380000  0.59890000  0.68920000  1.0 -0.3045965799
N  N18  1  0.68920000  0.92380000  0.59890000  1.0 -0.3045965799
N  N19  1  0.76030000  0.46100000  0.16960000  1.0 -0.6094427524
N  N20  1  0.46100000  0.16960000  0.76030000  1.0 -0.5989473629
N  N21  1  0.16960000  0.76030000  0.46100000  1.0 -0.5989473629
N  N22  1  0.26030000  0.66960000  0.96100000  1.0 -0.6192649969
N  N23  1  0.96100000  0.26030000  0.66960000  1.0 -0.5989473629
N  N24  1  0.66960000  0.96100000  0.26030000  1.0 -0.6094427524
N  N25  1  0.98140000  0.24240000  0.81340000  1.0 -0.6094427524
N  N26  1  0.24240000  0.81340000  0.98140000  1.0 -0.6250451175
N  N27  1  0.81340000  0.98140000  0.24240000  1.0 -0.6192649969
N  N28  1  0.48140000  0.31340000  0.74240000  1.0 -0.6192649969
N  N29  1  0.74240000  0.48140000  0.31340000  1.0 -0.6250451175
N  N30  1  0.31340000  0.74240000  0.48140000  1.0 -0.6094427524
N  N31  1  0.80420000  0.11450000  0.02430000  1.0 -0.3096590573
N  N32  1  0.11450000  0.02430000  0.80420000  1.0 -0.3096590573
N  N33  1  0.02430000  0.80420000  0.11450000  1.0 -0.3096590573
N  N34  1  0.30420000  0.52430000  0.61450000  1.0 -0.3096590573
N  N35  1  0.61450000  0.30420000  0.52430000  1.0 -0.3096590573
N  N36  1  0.52430000  0.61450000  0.30420000  1.0 -0.3096590573
