# DDEC6 charges by PACMAN v1.1 (https://github.com/mtap-research/PACMAN-charge/)
data_QUGPAJ_FSR_pacman
_symmetry_space_group_name_H-M   'P 1'
_cell_length_a   20.57320000
_cell_length_b   20.57320000
_cell_length_c   20.57320000
_cell_angle_alpha   104.40900000
_cell_angle_beta   104.40900000
_cell_angle_gamma   104.40900000
_symmetry_Int_Tables_number   1
_chemical_formula_structural   NdRe6H14C15Se8(N3O2)3
_chemical_formula_sum   'Nd6 Re36 H84 C90 Se48 N54 O36'
_cell_volume   7707.28699902
_cell_formula_units_Z   6
loop_
 _symmetry_equiv_pos_site_id
 _symmetry_equiv_pos_as_xyz
  1  'x, y, z'
loop_
 _atom_site_type_symbol
 _atom_site_label
 _atom_site_symmetry_multiplicity
 _atom_site_fract_x
 _atom_site_fract_y
 _atom_site_fract_z
 _atom_site_occupancy
 _atom_site_charge
Nd  Nd1  1  0.52268000  0.21861000  0.68145000  1.0 1.9917854833
Nd  Nd2  1  0.21861000  0.68145000  0.52268000  1.0 1.9917854833
Nd  Nd3  1  0.68145000  0.52268000  0.21861000  1.0 1.9917854833
Nd  Nd4  1  0.02268000  0.18145000  0.71861000  1.0 1.9917854833
Nd  Nd5  1  0.71861000  0.02268000  0.18145000  1.0 1.9917854833
Nd  Nd6  1  0.18145000  0.71861000  0.02268000  1.0 1.9917854833
Re  Re1  1  0.89640000  0.43903000  0.97777000  1.0 0.2214688024
Re  Re2  1  0.43903000  0.97777000  0.89640000  1.0 0.2214688024
Re  Re3  1  0.97777000  0.89640000  0.43903000  1.0 0.2214688024
Re  Re4  1  0.39640000  0.47777000  0.93903000  1.0 0.2214688024
Re  Re5  1  0.93903000  0.39640000  0.47777000  1.0 0.2214688024
Re  Re6  1  0.47777000  0.93903000  0.39640000  1.0 0.2214688024
Re  Re7  1  0.78359000  0.32320000  0.91883000  1.0 0.1806882209
Re  Re8  1  0.32320000  0.91883000  0.78359000  1.0 0.1806882209
Re  Re9  1  0.91883000  0.78359000  0.32320000  1.0 0.1806882209
Re  Re10  1  0.28359000  0.41883000  0.82320000  1.0 0.1806882209
Re  Re11  1  0.82320000  0.28359000  0.41883000  1.0 0.1806882209
Re  Re12  1  0.41883000  0.82320000  0.28359000  1.0 0.17374966
Re  Re13  1  0.95621000  0.38026000  0.06508000  1.0 0.1865866642
Re  Re14  1  0.38026000  0.06508000  0.95621000  1.0 0.1865866642
Re  Re15  1  0.06508000  0.95621000  0.38026000  1.0 0.1865866642
Re  Re16  1  0.45621000  0.56508000  0.88026000  1.0 0.1865866642
Re  Re17  1  0.88026000  0.45621000  0.56508000  1.0 0.1865866642
Re  Re18  1  0.56508000  0.88026000  0.45621000  1.0 0.1865866642
Re  Re19  1  0.82889000  0.38823000  0.05708000  1.0 0.1806882209
Re  Re20  1  0.38823000  0.05708000  0.82889000  1.0 0.1806882209
Re  Re21  1  0.05708000  0.82889000  0.38823000  1.0 0.1806882209
Re  Re22  1  0.32889000  0.55708000  0.88823000  1.0 0.1806882209
Re  Re23  1  0.88823000  0.32889000  0.55708000  1.0 0.1806882209
Re  Re24  1  0.55708000  0.88823000  0.32889000  1.0 0.1806882209
Re  Re25  1  0.91106000  0.31503000  0.92661000  1.0 0.1118496053
Re  Re26  1  0.31503000  0.92661000  0.91106000  1.0 0.1118496053
Re  Re27  1  0.92661000  0.91106000  0.31503000  1.0 0.1118496053
Re  Re28  1  0.41106000  0.42661000  0.81503000  1.0 0.1118496053
Re  Re29  1  0.81503000  0.41106000  0.42661000  1.0 0.1118496053
Re  Re30  1  0.42661000  0.81503000  0.41106000  1.0 0.1118496053
Re  Re31  1  0.84366000  0.26411000  0.00563000  1.0 0.1590907826
Re  Re32  1  0.26411000  0.00563000  0.84366000  1.0 0.1590907826
Re  Re33  1  0.00563000  0.84366000  0.26411000  1.0 0.1590907826
Re  Re34  1  0.34366000  0.50563000  0.76411000  1.0 0.1590907826
Re  Re35  1  0.76411000  0.34366000  0.50563000  1.0 0.1590907826
Re  Re36  1  0.50563000  0.76411000  0.34366000  1.0 0.1590907826
H  H1  1  0.60090000  0.15880000  0.80890000  1.0 0.0948021851
H  H2  1  0.15880000  0.80890000  0.60090000  1.0 0.1005558295
H  H3  1  0.80890000  0.60090000  0.15880000  1.0 0.1005558295
H  H4  1  0.10090000  0.30890000  0.65880000  1.0 0.1005558295
H  H5  1  0.65880000  0.10090000  0.30890000  1.0 0.1005558295
H  H6  1  0.30890000  0.65880000  0.10090000  1.0 0.1005558295
H  H7  1  0.64360000  0.11090000  0.88970000  1.0 0.1195673104
H  H8  1  0.11090000  0.88970000  0.64360000  1.0 0.1195673104
H  H9  1  0.88970000  0.64360000  0.11090000  1.0 0.1195673104
H  H10  1  0.14360000  0.38970000  0.61090000  1.0 0.1195673104
H  H11  1  0.61090000  0.14360000  0.38970000  1.0 0.1195673104
H  H12  1  0.38970000  0.61090000  0.14360000  1.0 0.1195673104
H  H13  1  0.69280000  0.06880000  0.86520000  1.0 0.1384591568
H  H14  1  0.06880000  0.86520000  0.69280000  1.0 0.1384591568
H  H15  1  0.86520000  0.69280000  0.06880000  1.0 0.1384591568
H  H16  1  0.19280000  0.36520000  0.56880000  1.0 0.1384591568
H  H17  1  0.56880000  0.19280000  0.36520000  1.0 0.1384591568
H  H18  1  0.36520000  0.56880000  0.19280000  1.0 0.1384591568
H  H19  1  0.61390000  0.02680000  0.85710000  1.0 0.1302857865
H  H20  1  0.02680000  0.85710000  0.61390000  1.0 0.1302857865
H  H21  1  0.85710000  0.61390000  0.02680000  1.0 0.1302857865
H  H22  1  0.11390000  0.35710000  0.52680000  1.0 0.1302857865
H  H23  1  0.52680000  0.11390000  0.35710000  1.0 0.1302857865
H  H24  1  0.35710000  0.52680000  0.11390000  1.0 0.1302857865
H  H25  1  0.58700000  0.03800000  0.68080000  1.0 0.1384591568
H  H26  1  0.03800000  0.68080000  0.58700000  1.0 0.1384591568
H  H27  1  0.68080000  0.58700000  0.03800000  1.0 0.1384591568
H  H28  1  0.08700000  0.18080000  0.53800000  1.0 0.1384591568
H  H29  1  0.53800000  0.08700000  0.18080000  1.0 0.1384591568
H  H30  1  0.18080000  0.53800000  0.08700000  1.0 0.1384591568
H  H31  1  0.57450000  0.97710000  0.71520000  1.0 0.1302857865
H  H32  1  0.97710000  0.71520000  0.57450000  1.0 0.1302857865
H  H33  1  0.71520000  0.57450000  0.97710000  1.0 0.1302857865
H  H34  1  0.07450000  0.21520000  0.47710000  1.0 0.1302857865
H  H35  1  0.47710000  0.07450000  0.21520000  1.0 0.1302857865
H  H36  1  0.21520000  0.47710000  0.07450000  1.0 0.1302857865
H  H37  1  0.65180000  0.01550000  0.71620000  1.0 0.1486813343
H  H38  1  0.01550000  0.71620000  0.65180000  1.0 0.1486813343
H  H39  1  0.71620000  0.65180000  0.01550000  1.0 0.1486813343
H  H40  1  0.15180000  0.21620000  0.51550000  1.0 0.1486813343
H  H41  1  0.51550000  0.15180000  0.21620000  1.0 0.1486813343
H  H42  1  0.21620000  0.51550000  0.15180000  1.0 0.1486813343
H  H43  1  0.43380000  0.03760000  0.63400000  1.0 0.1005558295
H  H44  1  0.03760000  0.63400000  0.43380000  1.0 0.1005558295
H  H45  1  0.63400000  0.43380000  0.03760000  1.0 0.1005558295
H  H46  1  0.93380000  0.13400000  0.53760000  1.0 0.1005558295
H  H47  1  0.53760000  0.93380000  0.13400000  1.0 0.1005558295
H  H48  1  0.13400000  0.53760000  0.93380000  1.0 0.1005558295
H  H49  1  0.34870000  0.92420000  0.59940000  1.0 0.1302857865
H  H50  1  0.92420000  0.59940000  0.34870000  1.0 0.1302857865
H  H51  1  0.59940000  0.34870000  0.92420000  1.0 0.1302857865
H  H52  1  0.84870000  0.09940000  0.42420000  1.0 0.1302857865
H  H53  1  0.42420000  0.84870000  0.09940000  1.0 0.1302857865
H  H54  1  0.09940000  0.42420000  0.84870000  1.0 0.1302857865
H  H55  1  0.31950000  0.89430000  0.51510000  1.0 0.1384591568
H  H56  1  0.89430000  0.51510000  0.31950000  1.0 0.1384591568
H  H57  1  0.51510000  0.31950000  0.89430000  1.0 0.1384591568
H  H58  1  0.81950000  0.01510000  0.39430000  1.0 0.1384591568
H  H59  1  0.39430000  0.81950000  0.01510000  1.0 0.1384591568
H  H60  1  0.01510000  0.39430000  0.81950000  1.0 0.1384591568
H  H61  1  0.27040000  0.91840000  0.55780000  1.0 0.1384591568
H  H62  1  0.91840000  0.55780000  0.27040000  1.0 0.1384591568
H  H63  1  0.55780000  0.27040000  0.91840000  1.0 0.1384591568
H  H64  1  0.77040000  0.05780000  0.41840000  1.0 0.1384591568
H  H65  1  0.41840000  0.77040000  0.05780000  1.0 0.1384591568
H  H66  1  0.05780000  0.41840000  0.77040000  1.0 0.1384591568
H  H67  1  0.33000000  0.06750000  0.49790000  1.0 0.1590907826
H  H68  1  0.06750000  0.49790000  0.33000000  1.0 0.1590907826
H  H69  1  0.49790000  0.33000000  0.06750000  1.0 0.1590907826
H  H70  1  0.83000000  0.99790000  0.56750000  1.0 0.1590907826
H  H71  1  0.56750000  0.83000000  0.99790000  1.0 0.1590907826
H  H72  1  0.99790000  0.56750000  0.83000000  1.0 0.1590907826
H  H73  1  0.26000000  0.00880000  0.49130000  1.0 0.1195673104
H  H74  1  0.00880000  0.49130000  0.26000000  1.0 0.1195673104
H  H75  1  0.49130000  0.26000000  0.00880000  1.0 0.1195673104
H  H76  1  0.76000000  0.99130000  0.50880000  1.0 0.1195673104
H  H77  1  0.50880000  0.76000000  0.99130000  1.0 0.1195673104
H  H78  1  0.99130000  0.50880000  0.76000000  1.0 0.1195673104
H  H79  1  0.31220000  0.98730000  0.45160000  1.0 0.1195673104
H  H80  1  0.98730000  0.45160000  0.31220000  1.0 0.1195673104
H  H81  1  0.45160000  0.31220000  0.98730000  1.0 0.1195673104
H  H82  1  0.81220000  0.95160000  0.48730000  1.0 0.1195673104
H  H83  1  0.48730000  0.81220000  0.95160000  1.0 0.1195673104
H  H84  1  0.95160000  0.48730000  0.81220000  1.0 0.1195673104
C  C1  1  0.92170000  0.53520000  0.95920000  1.0 -0.0212399223
C  C2  1  0.53520000  0.95920000  0.92170000  1.0 -0.0212399223
C  C3  1  0.95920000  0.92170000  0.53520000  1.0 -0.0212399223
C  C4  1  0.42170000  0.45920000  0.03520000  1.0 -0.0212399223
C  C5  1  0.03520000  0.42170000  0.45920000  1.0 -0.0212399223
C  C6  1  0.45920000  0.03520000  0.42170000  1.0 -0.0212399223
C  C7  1  0.68620000  0.29270000  0.83630000  1.0 0.1195673104
C  C8  1  0.29270000  0.83630000  0.68620000  1.0 0.1195673104
C  C9  1  0.83630000  0.68620000  0.29270000  1.0 0.1195673104
C  C10  1  0.18620000  0.33630000  0.79270000  1.0 0.1195673104
C  C11  1  0.79270000  0.18620000  0.33630000  1.0 0.1195673104
C  C12  1  0.33630000  0.79270000  0.18620000  1.0 0.1195673104
C  C13  1  0.05360000  0.41160000  0.14980000  1.0 0.0692782611
C  C14  1  0.41160000  0.14980000  0.05360000  1.0 0.0692782611
C  C15  1  0.14980000  0.05360000  0.41160000  1.0 0.0692782611
C  C16  1  0.55360000  0.64980000  0.91160000  1.0 0.0692782611
C  C17  1  0.91160000  0.55360000  0.64980000  1.0 0.0692782611
C  C18  1  0.64980000  0.91160000  0.55360000  1.0 0.0692782611
C  C19  1  0.77810000  0.43340000  0.13110000  1.0 0.0815147015
C  C20  1  0.43340000  0.13110000  0.77810000  1.0 0.0815147015
C  C21  1  0.13110000  0.77810000  0.43340000  1.0 0.0815147015
C  C22  1  0.27810000  0.63110000  0.93340000  1.0 0.0815147015
C  C23  1  0.93340000  0.27810000  0.63110000  1.0 0.0815147015
C  C24  1  0.63110000  0.93340000  0.27810000  1.0 0.0815147015
C  C25  1  0.95630000  0.26880000  0.85170000  1.0 0.1806882209
C  C26  1  0.26880000  0.85170000  0.95630000  1.0 0.1806882209
C  C27  1  0.85170000  0.95630000  0.26880000  1.0 0.1865866642
C  C28  1  0.45630000  0.35170000  0.76880000  1.0 0.1865866642
C  C29  1  0.76880000  0.45630000  0.35170000  1.0 0.1806882209
C  C30  1  0.35170000  0.76880000  0.45630000  1.0 0.1806882209
C  C31  1  0.81620000  0.16730000  0.01770000  1.0 -0.0385775351
C  C32  1  0.16730000  0.01770000  0.81620000  1.0 -0.0385775351
C  C33  1  0.01770000  0.81620000  0.16730000  1.0 -0.0385775351
C  C34  1  0.31620000  0.51770000  0.66730000  1.0 -0.0385775351
C  C35  1  0.66730000  0.31620000  0.51770000  1.0 -0.0385775351
C  C36  1  0.51770000  0.66730000  0.31620000  1.0 -0.0385775351
C  C37  1  0.59370000  0.11880000  0.77030000  1.0 0.2214688024
C  C38  1  0.11880000  0.77030000  0.59370000  1.0 0.2214688024
C  C39  1  0.77030000  0.59370000  0.11880000  1.0 0.2214688024
C  C40  1  0.09370000  0.27030000  0.61880000  1.0 0.2214688024
C  C41  1  0.61880000  0.09370000  0.27030000  1.0 0.2214688024
C  C42  1  0.27030000  0.61880000  0.09370000  1.0 0.2214688024
C  C43  1  0.64460000  0.06990000  0.85500000  1.0 -0.2935854428
C  C44  1  0.06990000  0.85500000  0.64460000  1.0 -0.2935854428
C  C45  1  0.85500000  0.64460000  0.06990000  1.0 -0.2935854428
C  C46  1  0.14460000  0.35500000  0.56990000  1.0 -0.2935854428
C  C47  1  0.56990000  0.14460000  0.35500000  1.0 -0.2935854428
C  C48  1  0.35500000  0.56990000  0.14460000  1.0 -0.2935854428
C  C49  1  0.60700000  0.02200000  0.72000000  1.0 -0.340654379
C  C50  1  0.02200000  0.72000000  0.60700000  1.0 -0.340654379
C  C51  1  0.72000000  0.60700000  0.02200000  1.0 -0.340654379
C  C52  1  0.10700000  0.22000000  0.52200000  1.0 -0.340654379
C  C53  1  0.52200000  0.10700000  0.22000000  1.0 -0.340654379
C  C54  1  0.22000000  0.52200000  0.10700000  1.0 -0.340654379
C  C55  1  0.40760000  0.05340000  0.60060000  1.0 0.2214688024
C  C56  1  0.05340000  0.60060000  0.40760000  1.0 0.2214688024
C  C57  1  0.60060000  0.40760000  0.05340000  1.0 0.2214688024
C  C58  1  0.90760000  0.10060000  0.55340000  1.0 0.2214688024
C  C59  1  0.55340000  0.90760000  0.10060000  1.0 0.2214688024
C  C60  1  0.10060000  0.55340000  0.90760000  1.0 0.2145434386
C  C61  1  0.31870000  0.92820000  0.55700000  1.0 -0.340654379
C  C62  1  0.92820000  0.55700000  0.31870000  1.0 -0.340654379
C  C63  1  0.55700000  0.31870000  0.92820000  1.0 -0.340654379
C  C64  1  0.81870000  0.05700000  0.42820000  1.0 -0.340654379
C  C65  1  0.42820000  0.81870000  0.05700000  1.0 -0.340654379
C  C66  1  0.05700000  0.42820000  0.81870000  1.0 -0.340654379
C  C67  1  0.30900000  0.01800000  0.49400000  1.0 -0.2609356476
C  C68  1  0.01800000  0.49400000  0.30900000  1.0 -0.2609356476
C  C69  1  0.49400000  0.30900000  0.01800000  1.0 -0.2609356476
C  C70  1  0.80900000  0.99400000  0.51800000  1.0 -0.2609356476
C  C71  1  0.51800000  0.80900000  0.99400000  1.0 -0.2609356476
C  C72  1  0.99400000  0.51800000  0.80900000  1.0 -0.2609356476
C  C73  1  0.64800000  0.15000000  0.61400000  1.0 0.17374966
C  C74  1  0.15000000  0.61400000  0.64800000  1.0 0.17374966
C  C75  1  0.61400000  0.64800000  0.15000000  1.0 0.17374966
C  C76  1  0.14800000  0.11400000  0.65000000  1.0 0.17374966
C  C77  1  0.65000000  0.14800000  0.11400000  1.0 0.17374966
C  C78  1  0.11400000  0.65000000  0.14800000  1.0 0.17374966
C  C79  1  0.75400000  0.11400000  0.62200000  1.0 -0.0707923625
C  C80  1  0.11400000  0.62200000  0.75400000  1.0 -0.0707923625
C  C81  1  0.62200000  0.75400000  0.11400000  1.0 -0.0707923625
C  C82  1  0.25400000  0.12200000  0.61400000  1.0 -0.0707923625
C  C83  1  0.61400000  0.25400000  0.12200000  1.0 -0.0707923625
C  C84  1  0.12200000  0.61400000  0.25400000  1.0 -0.0707923625
C  C85  1  0.76700000  0.23300000  0.70600000  1.0 -0.0212399223
C  C86  1  0.23300000  0.70600000  0.76700000  1.0 -0.0110330474
C  C87  1  0.70600000  0.76700000  0.23300000  1.0 -0.0110330474
C  C88  1  0.26700000  0.20600000  0.73300000  1.0 -0.0110330474
C  C89  1  0.73300000  0.26700000  0.20600000  1.0 -0.0110330474
C  C90  1  0.20600000  0.73300000  0.26700000  1.0 -0.0110330474
Se  Se1  1  0.80187000  0.20564000  0.87228000  1.0 0.0692782611
Se  Se2  1  0.20564000  0.87228000  0.80187000  1.0 0.0815147015
Se  Se3  1  0.87228000  0.80187000  0.20564000  1.0 0.0692782611
Se  Se4  1  0.30187000  0.37228000  0.70564000  1.0 0.0692782611
Se  Se5  1  0.70564000  0.30187000  0.37228000  1.0 0.0692782611
Se  Se6  1  0.37228000  0.70564000  0.30187000  1.0 0.0692782611
Se  Se7  1  0.88861000  0.33058000  0.13835000  1.0 0.1302857865
Se  Se8  1  0.33058000  0.13835000  0.88861000  1.0 0.1195673104
Se  Se9  1  0.13835000  0.88861000  0.33058000  1.0 0.1195673104
Se  Se10  1  0.38861000  0.63835000  0.83058000  1.0 0.1195673104
Se  Se11  1  0.83058000  0.38861000  0.63835000  1.0 0.1195673104
Se  Se12  1  0.63835000  0.83058000  0.38861000  1.0 0.1302857865
Se  Se13  1  0.72297000  0.27485000  0.99801000  1.0 0.0379917576
Se  Se14  1  0.27485000  0.99801000  0.72297000  1.0 0.0379917576
Se  Se15  1  0.99801000  0.72297000  0.27485000  1.0 0.0379917576
Se  Se16  1  0.22297000  0.49801000  0.77485000  1.0 0.0379917576
Se  Se17  1  0.77485000  0.22297000  0.49801000  1.0 0.0379917576
Se  Se18  1  0.49801000  0.77485000  0.22297000  1.0 0.0379917576
Se  Se19  1  0.77315000  0.44315000  0.97120000  1.0 0.0475639978
Se  Se20  1  0.44315000  0.97120000  0.77315000  1.0 0.0475639978
Se  Se21  1  0.97120000  0.77315000  0.44315000  1.0 0.0475639978
Se  Se22  1  0.27315000  0.47120000  0.94315000  1.0 0.0475639978
Se  Se23  1  0.94315000  0.27315000  0.47120000  1.0 0.0475639978
Se  Se24  1  0.47120000  0.94315000  0.27315000  1.0 0.0475639978
Se  Se25  1  0.01745000  0.42784000  0.98665000  1.0 0.0184563156
Se  Se26  1  0.42784000  0.98665000  0.01745000  1.0 0.0103083108
Se  Se27  1  0.98665000  0.01745000  0.42784000  1.0 0.0184563156
Se  Se28  1  0.51745000  0.48665000  0.92784000  1.0 0.0103083108
Se  Se29  1  0.92784000  0.51745000  0.48665000  1.0 0.0184563156
Se  Se30  1  0.48665000  0.92784000  0.51745000  1.0 0.0103083108
Se  Se31  1  0.85186000  0.37271000  0.84569000  1.0 0.1302857865
Se  Se32  1  0.37271000  0.84569000  0.85186000  1.0 0.1302857865
Se  Se33  1  0.84569000  0.85186000  0.37271000  1.0 0.1302857865
Se  Se34  1  0.35186000  0.34569000  0.87271000  1.0 0.1302857865
Se  Se35  1  0.87271000  0.35186000  0.34569000  1.0 0.1384591568
Se  Se36  1  0.34569000  0.87271000  0.35186000  1.0 0.1302857865
Se  Se37  1  0.93769000  0.49812000  0.11043000  1.0 0.0280830871
Se  Se38  1  0.49812000  0.11043000  0.93769000  1.0 0.0184563156
Se  Se39  1  0.11043000  0.93769000  0.49812000  1.0 0.0280830871
Se  Se40  1  0.43769000  0.61043000  0.99812000  1.0 0.0184563156
Se  Se41  1  0.99812000  0.43769000  0.61043000  1.0 0.0184563156
Se  Se42  1  0.61043000  0.99812000  0.43769000  1.0 0.0184563156
Se  Se43  1  0.96647000  0.25994000  0.01287000  1.0 0.2320199734
Se  Se44  1  0.25994000  0.01287000  0.96647000  1.0 0.2320199734
Se  Se45  1  0.01287000  0.96647000  0.25994000  1.0 0.2320199734
Se  Se46  1  0.46647000  0.51287000  0.75994000  1.0 0.2320199734
Se  Se47  1  0.75994000  0.46647000  0.51287000  1.0 0.2368716366
Se  Se48  1  0.51287000  0.75994000  0.46647000  1.0 0.2320199734
N  N1  1  0.94030000  0.58620000  0.94810000  1.0 -0.2986353271
N  N2  1  0.58620000  0.94810000  0.94030000  1.0 -0.2986353271
N  N3  1  0.94810000  0.94030000  0.58620000  1.0 -0.2986353271
N  N4  1  0.44030000  0.44810000  0.08620000  1.0 -0.2986353271
N  N5  1  0.08620000  0.44030000  0.44810000  1.0 -0.2986353271
N  N6  1  0.44810000  0.08620000  0.44030000  1.0 -0.2986353271
N  N7  1  0.62500000  0.27440000  0.79460000  1.0 -0.5285548757
N  N8  1  0.27440000  0.79460000  0.62500000  1.0 -0.5285548757
N  N9  1  0.79460000  0.62500000  0.27440000  1.0 -0.5285548757
N  N10  1  0.12500000  0.29460000  0.77440000  1.0 -0.5285548757
N  N11  1  0.77440000  0.12500000  0.29460000  1.0 -0.5285548757
N  N12  1  0.29460000  0.77440000  0.12500000  1.0 -0.5285548757
N  N13  1  0.09890000  0.42380000  0.18920000  1.0 -0.3592751173
N  N14  1  0.42380000  0.18920000  0.09890000  1.0 -0.3592751173
N  N15  1  0.18920000  0.09890000  0.42380000  1.0 -0.3592751173
N  N16  1  0.59890000  0.68920000  0.92380000  1.0 -0.3592751173
N  N17  1  0.92380000  0.59890000  0.68920000  1.0 -0.3592751173
N  N18  1  0.68920000  0.92380000  0.59890000  1.0 -0.3592751173
N  N19  1  0.76030000  0.46100000  0.16960000  1.0 -0.4924507313
N  N20  1  0.46100000  0.16960000  0.76030000  1.0 -0.4924507313
N  N21  1  0.16960000  0.76030000  0.46100000  1.0 -0.4924507313
N  N22  1  0.26030000  0.66960000  0.96100000  1.0 -0.4951440328
N  N23  1  0.96100000  0.26030000  0.66960000  1.0 -0.4924507313
N  N24  1  0.66960000  0.96100000  0.26030000  1.0 -0.4924507313
N  N25  1  0.98140000  0.24240000  0.81340000  1.0 -0.510595777
N  N26  1  0.24240000  0.81340000  0.98140000  1.0 -0.510595777
N  N27  1  0.81340000  0.98140000  0.24240000  1.0 -0.510595777
N  N28  1  0.48140000  0.31340000  0.74240000  1.0 -0.510595777
N  N29  1  0.74240000  0.48140000  0.31340000  1.0 -0.510595777
N  N30  1  0.31340000  0.74240000  0.48140000  1.0 -0.510595777
N  N31  1  0.80420000  0.11450000  0.02430000  1.0 -0.2317325779
N  N32  1  0.11450000  0.02430000  0.80420000  1.0 -0.2317325779
N  N33  1  0.02430000  0.80420000  0.11450000  1.0 -0.2317325779
N  N34  1  0.30420000  0.52430000  0.61450000  1.0 -0.2317325779
N  N35  1  0.61450000  0.30420000  0.52430000  1.0 -0.2317325779
N  N36  1  0.52430000  0.61450000  0.30420000  1.0 -0.2317325779
N  N37  1  0.62050000  0.07440000  0.78670000  1.0 -0.0110330474
N  N38  1  0.07440000  0.78670000  0.62050000  1.0 -0.0110330474
N  N39  1  0.78670000  0.62050000  0.07440000  1.0 -0.0110330474
N  N40  1  0.12050000  0.28670000  0.57440000  1.0 -0.0110330474
N  N41  1  0.57440000  0.12050000  0.28670000  1.0 -0.0110330474
N  N42  1  0.28670000  0.57440000  0.12050000  1.0 -0.0110330474
N  N43  1  0.34750000  0.00560000  0.55490000  1.0 -0.0110330474
N  N44  1  0.00560000  0.55490000  0.34750000  1.0 -0.0110330474
N  N45  1  0.55490000  0.34750000  0.00560000  1.0 -0.0110330474
N  N46  1  0.84750000  0.05490000  0.50560000  1.0 -0.0110330474
N  N47  1  0.50560000  0.84750000  0.05490000  1.0 -0.0110330474
N  N48  1  0.05490000  0.50560000  0.84750000  1.0 -0.0110330474
N  N49  1  0.71410000  0.16820000  0.64580000  1.0 -0.0707923625
N  N50  1  0.16820000  0.64580000  0.71410000  1.0 -0.0707923625
N  N51  1  0.64580000  0.71410000  0.16820000  1.0 -0.0707923625
N  N52  1  0.21410000  0.14580000  0.66820000  1.0 -0.0707923625
N  N53  1  0.66820000  0.21410000  0.14580000  1.0 -0.0752721214
N  N54  1  0.14580000  0.66820000  0.21410000  1.0 -0.0752721214
O  O1  1  0.55830000  0.11890000  0.70990000  1.0 -0.577067289
O  O2  1  0.11890000  0.70990000  0.55830000  1.0 -0.577067289
O  O3  1  0.70990000  0.55830000  0.11890000  1.0 -0.577067289
O  O4  1  0.05830000  0.20990000  0.61890000  1.0 -0.577067289
O  O5  1  0.61890000  0.05830000  0.20990000  1.0 -0.577067289
O  O6  1  0.20990000  0.61890000  0.05830000  1.0 -0.577067289
O  O7  1  0.59480000  0.34090000  0.67730000  1.0 -0.5285548757
O  O8  1  0.34090000  0.67730000  0.59480000  1.0 -0.5285548757
O  O9  1  0.67730000  0.59480000  0.34090000  1.0 -0.5285548757
O  O10  1  0.09480000  0.17730000  0.84090000  1.0 -0.5285548757
O  O11  1  0.84090000  0.09480000  0.17730000  1.0 -0.5244739883
O  O12  1  0.17730000  0.84090000  0.09480000  1.0 -0.5285548757
O  O13  1  0.43320000  0.11330000  0.60510000  1.0 -0.5244739883
O  O14  1  0.11330000  0.60510000  0.43320000  1.0 -0.5285548757
O  O15  1  0.60510000  0.43320000  0.11330000  1.0 -0.5244739883
O  O16  1  0.93320000  0.10510000  0.61330000  1.0 -0.5244739883
O  O17  1  0.61330000  0.93320000  0.10510000  1.0 -0.5285548757
O  O18  1  0.10510000  0.61330000  0.93320000  1.0 -0.5285548757
O  O19  1  0.49410000  0.22180000  0.55720000  1.0 -0.1333789983
O  O20  1  0.22180000  0.55720000  0.49410000  1.0 -0.1364231714
O  O21  1  0.55720000  0.49410000  0.22180000  1.0 -0.1364231714
O  O22  1  0.99410000  0.05720000  0.72180000  1.0 -0.1333789983
O  O23  1  0.72180000  0.99410000  0.05720000  1.0 -0.1333789983
O  O24  1  0.05720000  0.72180000  0.99410000  1.0 -0.1333789983
O  O25  1  0.61830000  0.20170000  0.63400000  1.0 -0.577067289
O  O26  1  0.20170000  0.63400000  0.61830000  1.0 -0.577067289
O  O27  1  0.63400000  0.61830000  0.20170000  1.0 -0.577067289
O  O28  1  0.11830000  0.13400000  0.70170000  1.0 -0.577067289
O  O29  1  0.70170000  0.11830000  0.13400000  1.0 -0.577067289
O  O30  1  0.13400000  0.70170000  0.11830000  1.0 -0.577067289
O  O31  1  0.40130000  0.24000000  0.62070000  1.0 -0.3520703846
O  O32  1  0.24000000  0.62070000  0.40130000  1.0 -0.3520703846
O  O33  1  0.62070000  0.40130000  0.24000000  1.0 -0.3520703846
O  O34  1  0.90130000  0.12070000  0.74000000  1.0 -0.3520703846
O  O35  1  0.74000000  0.90130000  0.12070000  1.0 -0.3520703846
O  O36  1  0.12070000  0.74000000  0.90130000  1.0 -0.3592751173
