# DDEC6 charges by PACMAN v1.1 (https://github.com/mtap-research/PACMAN-charge/)
data_QUGQUH_ASR_pacman
_symmetry_space_group_name_H-M   'P 1'
_cell_length_a   35.56250000
_cell_length_b   35.56250000
_cell_length_c   35.56250000
_cell_angle_alpha   109.47100000
_cell_angle_beta   109.47100000
_cell_angle_gamma   109.47100000
_symmetry_Int_Tables_number   1
_chemical_formula_structural   ErCrH8C12(NO3)2
_chemical_formula_sum   'Er48 Cr48 H384 C576 N96 O288'
_cell_volume   34622.50670709
_cell_formula_units_Z   48
loop_
 _symmetry_equiv_pos_site_id
 _symmetry_equiv_pos_as_xyz
  1  'x, y, z'
loop_
 _atom_site_type_symbol
 _atom_site_label
 _atom_site_symmetry_multiplicity
 _atom_site_fract_x
 _atom_site_fract_y
 _atom_site_fract_z
 _atom_site_occupancy
 _atom_site_charge
Er  Er1  1  0.98598000  0.32052000  0.24066000  1.0 2.0398062457
Er  Er2  1  0.92014000  0.17948000  0.16546000  1.0 2.0398062457
Er  Er3  1  0.51402000  0.75468000  0.33454000  1.0 2.0398062457
Er  Er4  1  0.57986000  0.74532000  0.25934000  1.0 2.0398062457
Er  Er5  1  0.16546000  0.92014000  0.17948000  1.0 2.0398062457
Er  Er6  1  0.24066000  0.98598000  0.32052000  1.0 2.0398062457
Er  Er7  1  0.25934000  0.57986000  0.74532000  1.0 2.0398062457
Er  Er8  1  0.33454000  0.51402000  0.75468000  1.0 2.0398062457
Er  Er9  1  0.74532000  0.25934000  0.57986000  1.0 2.0398062457
Er  Er10  1  0.75468000  0.33454000  0.51402000  1.0 2.0398062457
Er  Er11  1  0.17948000  0.16546000  0.92014000  1.0 2.0398062457
Er  Er12  1  0.32052000  0.24066000  0.98598000  1.0 2.0398062457
Er  Er13  1  0.25934000  0.17948000  0.51402000  1.0 2.0398062457
Er  Er14  1  0.33454000  0.32052000  0.57986000  1.0 2.0398062457
Er  Er15  1  0.16546000  0.74532000  0.98598000  1.0 2.0398062457
Er  Er16  1  0.24066000  0.75468000  0.92014000  1.0 2.0398062457
Er  Er17  1  0.32052000  0.57986000  0.33454000  1.0 2.0398062457
Er  Er18  1  0.17948000  0.51402000  0.25934000  1.0 2.0398062457
Er  Er19  1  0.75468000  0.92014000  0.24066000  1.0 2.0398062457
Er  Er20  1  0.74532000  0.98598000  0.16546000  1.0 2.0398062457
Er  Er21  1  0.92014000  0.24066000  0.75468000  1.0 2.0398062457
Er  Er22  1  0.98598000  0.16546000  0.74532000  1.0 2.0398062457
Er  Er23  1  0.57986000  0.33454000  0.32052000  1.0 2.0398062457
Er  Er24  1  0.51402000  0.25934000  0.17948000  1.0 2.0398062457
Er  Er25  1  0.01402000  0.67948000  0.75934000  1.0 2.0398062457
Er  Er26  1  0.07986000  0.82052000  0.83454000  1.0 2.0398062457
Er  Er27  1  0.48598000  0.24532000  0.66546000  1.0 2.0398062457
Er  Er28  1  0.42014000  0.25468000  0.74066000  1.0 2.0398062457
Er  Er29  1  0.83454000  0.07986000  0.82052000  1.0 2.0398062457
Er  Er30  1  0.75934000  0.01402000  0.67948000  1.0 2.0398062457
Er  Er31  1  0.74066000  0.42014000  0.25468000  1.0 2.0398062457
Er  Er32  1  0.66546000  0.48598000  0.24532000  1.0 2.0398062457
Er  Er33  1  0.25468000  0.74066000  0.42014000  1.0 2.0398062457
Er  Er34  1  0.24532000  0.66546000  0.48598000  1.0 2.0398062457
Er  Er35  1  0.82052000  0.83454000  0.07986000  1.0 2.0398062457
Er  Er36  1  0.67948000  0.75934000  0.01402000  1.0 2.0398062457
Er  Er37  1  0.74066000  0.82052000  0.48598000  1.0 2.0398062457
Er  Er38  1  0.66546000  0.67948000  0.42014000  1.0 2.0398062457
Er  Er39  1  0.83454000  0.25468000  0.01402000  1.0 2.0398062457
Er  Er40  1  0.75934000  0.24532000  0.07986000  1.0 2.0398062457
Er  Er41  1  0.67948000  0.42014000  0.66546000  1.0 2.0398062457
Er  Er42  1  0.82052000  0.48598000  0.74066000  1.0 2.0398062457
Er  Er43  1  0.24532000  0.07986000  0.75934000  1.0 2.0398062457
Er  Er44  1  0.25468000  0.01402000  0.83454000  1.0 2.0398062457
Er  Er45  1  0.07986000  0.75934000  0.24532000  1.0 2.0398062457
Er  Er46  1  0.01402000  0.83454000  0.25468000  1.0 2.0398062457
Er  Er47  1  0.42014000  0.66546000  0.67948000  1.0 2.0398062457
Er  Er48  1  0.48598000  0.74066000  0.82052000  1.0 2.0398062457
Cr  Cr1  1  0.92625000  0.25292000  0.12527000  1.0 1.4115457524
Cr  Cr2  1  0.87235000  0.24708000  0.17333000  1.0 1.4115457524
Cr  Cr3  1  0.57375000  0.69902000  0.32667000  1.0 1.4115457524
Cr  Cr4  1  0.62765000  0.80098000  0.37473000  1.0 1.4115457524
Cr  Cr5  1  0.17333000  0.87235000  0.24708000  1.0 1.4115457524
Cr  Cr6  1  0.12527000  0.92625000  0.25292000  1.0 1.4115457524
Cr  Cr7  1  0.37473000  0.62765000  0.80098000  1.0 1.4115457524
Cr  Cr8  1  0.32667000  0.57375000  0.69902000  1.0 1.4115457524
Cr  Cr9  1  0.80098000  0.37473000  0.62765000  1.0 1.4115457524
Cr  Cr10  1  0.69902000  0.32667000  0.57375000  1.0 1.4115457524
Cr  Cr11  1  0.24708000  0.17333000  0.87235000  1.0 1.4115457524
Cr  Cr12  1  0.25292000  0.12527000  0.92625000  1.0 1.4115457524
Cr  Cr13  1  0.37473000  0.24708000  0.57375000  1.0 1.4115457524
Cr  Cr14  1  0.32667000  0.25292000  0.62765000  1.0 1.4115457524
Cr  Cr15  1  0.17333000  0.80098000  0.92625000  1.0 1.4115457524
Cr  Cr16  1  0.12527000  0.69902000  0.87235000  1.0 1.4115457524
Cr  Cr17  1  0.25292000  0.62765000  0.32667000  1.0 1.4115457524
Cr  Cr18  1  0.24708000  0.57375000  0.37473000  1.0 1.4115457524
Cr  Cr19  1  0.69902000  0.87235000  0.12527000  1.0 1.4115457524
Cr  Cr20  1  0.80098000  0.92625000  0.17333000  1.0 1.4115457524
Cr  Cr21  1  0.87235000  0.12527000  0.69902000  1.0 1.4115457524
Cr  Cr22  1  0.92625000  0.17333000  0.80098000  1.0 1.4115457524
Cr  Cr23  1  0.62765000  0.32667000  0.25292000  1.0 1.4115457524
Cr  Cr24  1  0.57375000  0.37473000  0.24708000  1.0 1.4115457524
Cr  Cr25  1  0.07375000  0.74708000  0.87473000  1.0 1.4115457524
Cr  Cr26  1  0.12765000  0.75292000  0.82667000  1.0 1.4115457524
Cr  Cr27  1  0.42625000  0.30098000  0.67333000  1.0 1.4115457524
Cr  Cr28  1  0.37235000  0.19902000  0.62527000  1.0 1.4115457524
Cr  Cr29  1  0.82667000  0.12765000  0.75292000  1.0 1.4115457524
Cr  Cr30  1  0.87473000  0.07375000  0.74708000  1.0 1.4115457524
Cr  Cr31  1  0.62527000  0.37235000  0.19902000  1.0 1.4115457524
Cr  Cr32  1  0.67333000  0.42625000  0.30098000  1.0 1.4115457524
Cr  Cr33  1  0.19902000  0.62527000  0.37235000  1.0 1.4115457524
Cr  Cr34  1  0.30098000  0.67333000  0.42625000  1.0 1.4115457524
Cr  Cr35  1  0.75292000  0.82667000  0.12765000  1.0 1.4115457524
Cr  Cr36  1  0.74708000  0.87473000  0.07375000  1.0 1.4115457524
Cr  Cr37  1  0.62527000  0.75292000  0.42625000  1.0 1.4115457524
Cr  Cr38  1  0.67333000  0.74708000  0.37235000  1.0 1.4115457524
Cr  Cr39  1  0.82667000  0.19902000  0.07375000  1.0 1.4115457524
Cr  Cr40  1  0.87473000  0.30098000  0.12765000  1.0 1.4115457524
Cr  Cr41  1  0.74708000  0.37235000  0.67333000  1.0 1.4115457524
Cr  Cr42  1  0.75292000  0.42625000  0.62527000  1.0 1.4115457524
Cr  Cr43  1  0.30098000  0.12765000  0.87473000  1.0 1.4115457524
Cr  Cr44  1  0.19902000  0.07375000  0.82667000  1.0 1.4115457524
Cr  Cr45  1  0.12765000  0.87473000  0.30098000  1.0 1.4115457524
Cr  Cr46  1  0.07375000  0.82667000  0.19902000  1.0 1.4115457524
Cr  Cr47  1  0.37235000  0.67333000  0.74708000  1.0 1.4115457524
Cr  Cr48  1  0.42625000  0.62527000  0.75292000  1.0 1.4115457524
H  H1  1  0.84736000  0.39808000  0.36768000  1.0 0.0993887514
H  H2  1  0.79616000  0.34634000  0.29418000  1.0 0.1224564751
H  H3  1  0.81876000  0.31346000  0.24756000  1.0 0.1224564751
H  H4  1  0.94759000  0.37833000  0.35400000  1.0 0.1087459539
H  H5  1  0.03858000  0.38606000  0.36056000  1.0 0.0993887514
H  H6  1  0.10436000  0.44968000  0.42478000  1.0 0.1278795236
H  H7  1  0.16215000  0.49400000  0.41769000  1.0 0.1224564751
H  H8  1  0.08183000  0.41441000  0.28128000  1.0 0.0993887514
H  H9  1  0.96960000  0.10192000  0.94928000  1.0 0.0993887514
H  H10  1  0.94784000  0.15366000  0.94982000  1.0 0.1224564751
H  H11  1  0.93410000  0.18654000  0.00530000  1.0 0.1224564751
H  H12  1  0.97567000  0.12167000  0.06926000  1.0 0.1087459539
H  H13  1  0.97450000  0.11394000  0.15252000  1.0 0.0993887514
H  H14  1  0.97510000  0.05032000  0.15468000  1.0 0.1278795236
H  H15  1  0.92369000  0.00600000  0.16815000  1.0 0.1224564751
H  H16  1  0.86687000  0.08559000  0.16742000  1.0 0.0993887514
H  H17  1  0.65264000  0.02032000  0.55072000  1.0 0.0993887514
H  H18  1  0.70384000  0.99802000  0.55018000  1.0 0.1224564751
H  H19  1  0.68124000  0.92880000  0.49470000  1.0 0.1224564751
H  H20  1  0.55241000  0.90641000  0.43074000  1.0 0.1087459539
H  H21  1  0.46142000  0.82198000  0.34748000  1.0 0.0993887514
H  H22  1  0.39564000  0.82042000  0.34532000  1.0 0.1278795236
H  H23  1  0.33785000  0.75554000  0.33185000  1.0 0.1224564751
H  H24  1  0.41817000  0.69945000  0.33258000  1.0 0.0993887514
H  H25  1  0.53040000  0.47968000  0.13232000  1.0 0.0993887514
H  H26  1  0.55216000  0.50198000  0.20582000  1.0 0.1224564751
H  H27  1  0.56590000  0.57120000  0.25244000  1.0 0.1224564751
H  H28  1  0.52433000  0.59359000  0.14600000  1.0 0.1087459539
H  H29  1  0.52550000  0.67802000  0.13944000  1.0 0.0993887514
H  H30  1  0.52490000  0.67958000  0.07522000  1.0 0.1278795236
H  H31  1  0.57631000  0.74446000  0.08231000  1.0 0.1224564751
H  H32  1  0.63313000  0.80055000  0.21872000  1.0 0.0993887514
H  H33  1  0.94928000  0.96960000  0.10192000  1.0 0.0993887514
H  H34  1  0.94982000  0.94784000  0.15366000  1.0 0.1224564751
H  H35  1  0.00530000  0.93410000  0.18654000  1.0 0.1224564751
H  H36  1  0.06926000  0.97567000  0.12167000  1.0 0.1087459539
H  H37  1  0.15252000  0.97450000  0.11394000  1.0 0.0993887514
H  H38  1  0.15468000  0.97510000  0.05032000  1.0 0.1278795236
H  H39  1  0.16815000  0.92369000  0.00600000  1.0 0.1224564751
H  H40  1  0.16742000  0.86687000  0.08559000  1.0 0.0993887514
H  H41  1  0.36768000  0.84736000  0.39808000  1.0 0.0993887514
H  H42  1  0.29418000  0.79616000  0.34634000  1.0 0.1224564751
H  H43  1  0.24756000  0.81876000  0.31346000  1.0 0.1224564751
H  H44  1  0.35400000  0.94759000  0.37833000  1.0 0.1087459539
H  H45  1  0.36056000  0.03858000  0.38606000  1.0 0.0993887514
H  H46  1  0.42478000  0.10436000  0.44968000  1.0 0.1278795236
H  H47  1  0.41769000  0.16215000  0.49400000  1.0 0.1224564751
H  H48  1  0.28128000  0.08183000  0.41441000  1.0 0.0993887514
H  H49  1  0.13232000  0.53040000  0.47968000  1.0 0.0993887514
H  H50  1  0.20582000  0.55216000  0.50198000  1.0 0.1224564751
H  H51  1  0.25244000  0.56590000  0.57120000  1.0 0.1224564751
H  H52  1  0.14600000  0.52433000  0.59359000  1.0 0.1087459539
H  H53  1  0.13944000  0.52550000  0.67802000  1.0 0.0993887514
H  H54  1  0.07522000  0.52490000  0.67958000  1.0 0.1278795236
H  H55  1  0.08231000  0.57631000  0.74446000  1.0 0.1224564751
H  H56  1  0.21872000  0.63313000  0.80055000  1.0 0.0993887514
H  H57  1  0.55072000  0.65264000  0.02032000  1.0 0.0993887514
H  H58  1  0.55018000  0.70384000  0.99802000  1.0 0.1224564751
H  H59  1  0.49470000  0.68124000  0.92880000  1.0 0.1224564751
H  H60  1  0.43074000  0.55241000  0.90641000  1.0 0.1087459539
H  H61  1  0.34748000  0.46142000  0.82198000  1.0 0.0993887514
H  H62  1  0.34532000  0.39564000  0.82042000  1.0 0.1278795236
H  H63  1  0.33185000  0.33785000  0.75554000  1.0 0.1224564751
H  H64  1  0.33258000  0.41817000  0.69945000  1.0 0.0993887514
H  H65  1  0.47968000  0.13232000  0.53040000  1.0 0.0993887514
H  H66  1  0.50198000  0.20582000  0.55216000  1.0 0.1224564751
H  H67  1  0.57120000  0.25244000  0.56590000  1.0 0.1224564751
H  H68  1  0.59359000  0.14600000  0.52433000  1.0 0.1087459539
H  H69  1  0.67802000  0.13944000  0.52550000  1.0 0.0993887514
H  H70  1  0.67958000  0.07522000  0.52490000  1.0 0.1278795236
H  H71  1  0.74446000  0.08231000  0.57631000  1.0 0.1224564751
H  H72  1  0.80055000  0.21872000  0.63313000  1.0 0.0993887514
H  H73  1  0.02032000  0.55072000  0.65264000  1.0 0.0993887514
H  H74  1  0.99802000  0.55018000  0.70384000  1.0 0.1224564751
H  H75  1  0.92880000  0.49470000  0.68124000  1.0 0.1224564751
H  H76  1  0.90641000  0.43074000  0.55241000  1.0 0.1087459539
H  H77  1  0.82198000  0.34748000  0.46142000  1.0 0.0993887514
H  H78  1  0.82042000  0.34532000  0.39564000  1.0 0.1278795236
H  H79  1  0.75554000  0.33185000  0.33785000  1.0 0.1224564751
H  H80  1  0.69945000  0.33258000  0.41817000  1.0 0.0993887514
H  H81  1  0.10192000  0.94928000  0.96960000  1.0 0.0993887514
H  H82  1  0.15366000  0.94982000  0.94784000  1.0 0.1224564751
H  H83  1  0.18654000  0.00530000  0.93410000  1.0 0.1224564751
H  H84  1  0.12167000  0.06926000  0.97567000  1.0 0.1087459539
H  H85  1  0.11394000  0.15252000  0.97450000  1.0 0.0993887514
H  H86  1  0.05032000  0.15468000  0.97510000  1.0 0.1278795236
H  H87  1  0.00600000  0.16815000  0.92369000  1.0 0.1224564751
H  H88  1  0.08559000  0.16742000  0.86687000  1.0 0.0993887514
H  H89  1  0.39808000  0.36768000  0.84736000  1.0 0.0993887514
H  H90  1  0.34634000  0.29418000  0.79616000  1.0 0.1224564751
H  H91  1  0.31346000  0.24756000  0.81876000  1.0 0.1224564751
H  H92  1  0.37833000  0.35400000  0.94759000  1.0 0.1087459539
H  H93  1  0.38606000  0.36056000  0.03858000  1.0 0.0993887514
H  H94  1  0.44968000  0.42478000  0.10436000  1.0 0.1278795236
H  H95  1  0.49400000  0.41769000  0.16215000  1.0 0.1224564751
H  H96  1  0.41441000  0.28128000  0.08183000  1.0 0.0993887514
H  H97  1  0.13232000  0.10192000  0.65264000  1.0 0.0993887514
H  H98  1  0.20582000  0.15366000  0.70384000  1.0 0.1224564751
H  H99  1  0.25244000  0.18654000  0.68124000  1.0 0.1224564751
H  H100  1  0.14600000  0.12167000  0.55241000  1.0 0.1087459539
H  H101  1  0.13944000  0.11394000  0.46142000  1.0 0.0993887514
H  H102  1  0.07522000  0.05032000  0.39564000  1.0 0.1278795236
H  H103  1  0.08231000  0.00600000  0.33785000  1.0 0.1224564751
H  H104  1  0.21872000  0.08559000  0.41817000  1.0 0.0993887514
H  H105  1  0.55072000  0.39808000  0.53040000  1.0 0.0993887514
H  H106  1  0.55018000  0.34634000  0.55216000  1.0 0.1224564751
H  H107  1  0.49470000  0.31346000  0.56590000  1.0 0.1224564751
H  H108  1  0.43074000  0.37833000  0.52433000  1.0 0.1087459539
H  H109  1  0.34748000  0.38606000  0.52550000  1.0 0.0993887514
H  H110  1  0.34532000  0.44968000  0.52490000  1.0 0.1278795236
H  H111  1  0.33185000  0.49400000  0.57631000  1.0 0.1224564751
H  H112  1  0.33258000  0.41441000  0.63313000  1.0 0.0993887514
H  H113  1  0.94928000  0.47968000  0.84736000  1.0 0.0993887514
H  H114  1  0.94982000  0.50198000  0.79616000  1.0 0.1224564751
H  H115  1  0.00530000  0.57120000  0.81876000  1.0 0.1224564751
H  H116  1  0.06926000  0.59359000  0.94759000  1.0 0.1087459539
H  H117  1  0.15252000  0.67802000  0.03858000  1.0 0.0993887514
H  H118  1  0.15468000  0.67958000  0.10436000  1.0 0.1278795236
H  H119  1  0.16815000  0.74446000  0.16215000  1.0 0.1224564751
H  H120  1  0.16742000  0.80055000  0.08183000  1.0 0.0993887514
H  H121  1  0.36768000  0.02032000  0.96960000  1.0 0.0993887514
H  H122  1  0.29418000  0.99802000  0.94784000  1.0 0.1224564751
H  H123  1  0.24756000  0.92880000  0.93410000  1.0 0.1224564751
H  H124  1  0.35400000  0.90641000  0.97567000  1.0 0.1087459539
H  H125  1  0.36056000  0.82198000  0.97450000  1.0 0.0993887514
H  H126  1  0.42478000  0.82042000  0.97510000  1.0 0.1278795236
H  H127  1  0.41769000  0.75554000  0.92369000  1.0 0.1224564751
H  H128  1  0.28128000  0.69945000  0.86687000  1.0 0.0993887514
H  H129  1  0.39808000  0.53040000  0.55072000  1.0 0.0993887514
H  H130  1  0.34634000  0.55216000  0.55018000  1.0 0.1224564751
H  H131  1  0.31346000  0.56590000  0.49470000  1.0 0.1224564751
H  H132  1  0.37833000  0.52433000  0.43074000  1.0 0.1087459539
H  H133  1  0.38606000  0.52550000  0.34748000  1.0 0.0993887514
H  H134  1  0.44968000  0.52490000  0.34532000  1.0 0.1278795236
H  H135  1  0.49400000  0.57631000  0.33185000  1.0 0.1224564751
H  H136  1  0.41441000  0.63313000  0.33258000  1.0 0.0993887514
H  H137  1  0.10192000  0.65264000  0.13232000  1.0 0.0993887514
H  H138  1  0.15366000  0.70384000  0.20582000  1.0 0.1224564751
H  H139  1  0.18654000  0.68124000  0.25244000  1.0 0.1224564751
H  H140  1  0.12167000  0.55241000  0.14600000  1.0 0.1087459539
H  H141  1  0.11394000  0.46142000  0.13944000  1.0 0.0993887514
H  H142  1  0.05032000  0.39564000  0.07522000  1.0 0.1278795236
H  H143  1  0.00600000  0.33785000  0.08231000  1.0 0.1224564751
H  H144  1  0.08559000  0.41817000  0.21872000  1.0 0.0993887514
H  H145  1  0.02032000  0.96960000  0.36768000  1.0 0.0993887514
H  H146  1  0.99802000  0.94784000  0.29418000  1.0 0.1224564751
H  H147  1  0.92880000  0.93410000  0.24756000  1.0 0.1224564751
H  H148  1  0.90641000  0.97567000  0.35400000  1.0 0.1087459539
H  H149  1  0.82198000  0.97450000  0.36056000  1.0 0.0993887514
H  H150  1  0.82042000  0.97510000  0.42478000  1.0 0.1278795236
H  H151  1  0.75554000  0.92369000  0.41769000  1.0 0.1224564751
H  H152  1  0.69945000  0.86687000  0.28128000  1.0 0.0993887514
H  H153  1  0.47968000  0.84736000  0.94928000  1.0 0.0993887514
H  H154  1  0.50198000  0.79616000  0.94982000  1.0 0.1224564751
H  H155  1  0.57120000  0.81876000  0.00530000  1.0 0.1224564751
H  H156  1  0.59359000  0.94759000  0.06926000  1.0 0.1087459539
H  H157  1  0.67802000  0.03858000  0.15252000  1.0 0.0993887514
H  H158  1  0.67958000  0.10436000  0.15468000  1.0 0.1278795236
H  H159  1  0.74446000  0.16215000  0.16815000  1.0 0.1224564751
H  H160  1  0.80055000  0.08183000  0.16742000  1.0 0.0993887514
H  H161  1  0.96960000  0.36768000  0.02032000  1.0 0.0993887514
H  H162  1  0.94784000  0.29418000  0.99802000  1.0 0.1224564751
H  H163  1  0.93410000  0.24756000  0.92880000  1.0 0.1224564751
H  H164  1  0.97567000  0.35400000  0.90641000  1.0 0.1087459539
H  H165  1  0.97450000  0.36056000  0.82198000  1.0 0.0993887514
H  H166  1  0.97510000  0.42478000  0.82042000  1.0 0.1278795236
H  H167  1  0.92369000  0.41769000  0.75554000  1.0 0.1224564751
H  H168  1  0.86687000  0.28128000  0.69945000  1.0 0.0993887514
H  H169  1  0.84736000  0.94928000  0.47968000  1.0 0.0993887514
H  H170  1  0.79616000  0.94982000  0.50198000  1.0 0.1224564751
H  H171  1  0.81876000  0.00530000  0.57120000  1.0 0.1224564751
H  H172  1  0.94759000  0.06926000  0.59359000  1.0 0.1087459539
H  H173  1  0.03858000  0.15252000  0.67802000  1.0 0.0993887514
H  H174  1  0.10436000  0.15468000  0.67958000  1.0 0.1278795236
H  H175  1  0.16215000  0.16815000  0.74446000  1.0 0.1224564751
H  H176  1  0.08183000  0.16742000  0.80055000  1.0 0.0993887514
H  H177  1  0.53040000  0.55072000  0.39808000  1.0 0.0993887514
H  H178  1  0.55216000  0.55018000  0.34634000  1.0 0.1224564751
H  H179  1  0.56590000  0.49470000  0.31346000  1.0 0.1224564751
H  H180  1  0.52433000  0.43074000  0.37833000  1.0 0.1087459539
H  H181  1  0.52550000  0.34748000  0.38606000  1.0 0.0993887514
H  H182  1  0.52490000  0.34532000  0.44968000  1.0 0.1278795236
H  H183  1  0.57631000  0.33185000  0.49400000  1.0 0.1224564751
H  H184  1  0.63313000  0.33258000  0.41441000  1.0 0.0993887514
H  H185  1  0.65264000  0.13232000  0.10192000  1.0 0.0993887514
H  H186  1  0.70384000  0.20582000  0.15366000  1.0 0.1224564751
H  H187  1  0.68124000  0.25244000  0.18654000  1.0 0.1224564751
H  H188  1  0.55241000  0.14600000  0.12167000  1.0 0.1087459539
H  H189  1  0.46142000  0.13944000  0.11394000  1.0 0.0993887514
H  H190  1  0.39564000  0.07522000  0.05032000  1.0 0.1278795236
H  H191  1  0.33785000  0.08231000  0.00600000  1.0 0.1224564751
H  H192  1  0.41817000  0.21872000  0.08559000  1.0 0.0993887514
H  H193  1  0.15264000  0.60192000  0.63232000  1.0 0.0993887514
H  H194  1  0.20384000  0.65366000  0.70582000  1.0 0.1224564751
H  H195  1  0.18124000  0.68654000  0.75244000  1.0 0.1224564751
H  H196  1  0.05241000  0.62167000  0.64600000  1.0 0.1087459539
H  H197  1  0.96142000  0.61394000  0.63944000  1.0 0.0993887514
H  H198  1  0.89564000  0.55032000  0.57522000  1.0 0.1278795236
H  H199  1  0.83785000  0.50600000  0.58231000  1.0 0.1224564751
H  H200  1  0.91817000  0.58559000  0.71872000  1.0 0.0993887514
H  H201  1  0.03040000  0.89808000  0.05072000  1.0 0.0993887514
H  H202  1  0.05216000  0.84634000  0.05018000  1.0 0.1224564751
H  H203  1  0.06590000  0.81346000  0.99470000  1.0 0.1224564751
H  H204  1  0.02433000  0.87833000  0.93074000  1.0 0.1087459539
H  H205  1  0.02550000  0.88606000  0.84748000  1.0 0.0993887514
H  H206  1  0.02490000  0.94968000  0.84532000  1.0 0.1278795236
H  H207  1  0.07631000  0.99400000  0.83185000  1.0 0.1224564751
H  H208  1  0.13313000  0.91441000  0.83258000  1.0 0.0993887514
H  H209  1  0.34736000  0.97968000  0.44928000  1.0 0.0993887514
H  H210  1  0.29616000  0.00198000  0.44982000  1.0 0.1224564751
H  H211  1  0.31876000  0.07120000  0.50530000  1.0 0.1224564751
H  H212  1  0.44759000  0.09359000  0.56926000  1.0 0.1087459539
H  H213  1  0.53858000  0.17802000  0.65252000  1.0 0.0993887514
H  H214  1  0.60436000  0.17958000  0.65468000  1.0 0.1278795236
H  H215  1  0.66215000  0.24446000  0.66815000  1.0 0.1224564751
H  H216  1  0.58183000  0.30055000  0.66742000  1.0 0.0993887514
H  H217  1  0.46960000  0.52032000  0.86768000  1.0 0.0993887514
H  H218  1  0.44784000  0.49802000  0.79418000  1.0 0.1224564751
H  H219  1  0.43410000  0.42880000  0.74756000  1.0 0.1224564751
H  H220  1  0.47567000  0.40641000  0.85400000  1.0 0.1087459539
H  H221  1  0.47450000  0.32198000  0.86056000  1.0 0.0993887514
H  H222  1  0.47510000  0.32042000  0.92478000  1.0 0.1278795236
H  H223  1  0.42369000  0.25554000  0.91769000  1.0 0.1224564751
H  H224  1  0.36687000  0.19945000  0.78128000  1.0 0.0993887514
H  H225  1  0.05072000  0.03040000  0.89808000  1.0 0.0993887514
H  H226  1  0.05018000  0.05216000  0.84634000  1.0 0.1224564751
H  H227  1  0.99470000  0.06590000  0.81346000  1.0 0.1224564751
H  H228  1  0.93074000  0.02433000  0.87833000  1.0 0.1087459539
H  H229  1  0.84748000  0.02550000  0.88606000  1.0 0.0993887514
H  H230  1  0.84532000  0.02490000  0.94968000  1.0 0.1278795236
H  H231  1  0.83185000  0.07631000  0.99400000  1.0 0.1224564751
H  H232  1  0.83258000  0.13313000  0.91441000  1.0 0.0993887514
H  H233  1  0.63232000  0.15264000  0.60192000  1.0 0.0993887514
H  H234  1  0.70582000  0.20384000  0.65366000  1.0 0.1224564751
H  H235  1  0.75244000  0.18124000  0.68654000  1.0 0.1224564751
H  H236  1  0.64600000  0.05241000  0.62167000  1.0 0.1087459539
H  H237  1  0.63944000  0.96142000  0.61394000  1.0 0.0993887514
H  H238  1  0.57522000  0.89564000  0.55032000  1.0 0.1278795236
H  H239  1  0.58231000  0.83785000  0.50600000  1.0 0.1224564751
H  H240  1  0.71872000  0.91817000  0.58559000  1.0 0.0993887514
H  H241  1  0.86768000  0.46960000  0.52032000  1.0 0.0993887514
H  H242  1  0.79418000  0.44784000  0.49802000  1.0 0.1224564751
H  H243  1  0.74756000  0.43410000  0.42880000  1.0 0.1224564751
H  H244  1  0.85400000  0.47567000  0.40641000  1.0 0.1087459539
H  H245  1  0.86056000  0.47450000  0.32198000  1.0 0.0993887514
H  H246  1  0.92478000  0.47510000  0.32042000  1.0 0.1278795236
H  H247  1  0.91769000  0.42369000  0.25554000  1.0 0.1224564751
H  H248  1  0.78128000  0.36687000  0.19945000  1.0 0.0993887514
H  H249  1  0.44928000  0.34736000  0.97968000  1.0 0.0993887514
H  H250  1  0.44982000  0.29616000  0.00198000  1.0 0.1224564751
H  H251  1  0.50530000  0.31876000  0.07120000  1.0 0.1224564751
H  H252  1  0.56926000  0.44759000  0.09359000  1.0 0.1087459539
H  H253  1  0.65252000  0.53858000  0.17802000  1.0 0.0993887514
H  H254  1  0.65468000  0.60436000  0.17958000  1.0 0.1278795236
H  H255  1  0.66815000  0.66215000  0.24446000  1.0 0.1224564751
H  H256  1  0.66742000  0.58183000  0.30055000  1.0 0.0993887514
H  H257  1  0.52032000  0.86768000  0.46960000  1.0 0.0993887514
H  H258  1  0.49802000  0.79418000  0.44784000  1.0 0.1224564751
H  H259  1  0.42880000  0.74756000  0.43410000  1.0 0.1224564751
H  H260  1  0.40641000  0.85400000  0.47567000  1.0 0.1087459539
H  H261  1  0.32198000  0.86056000  0.47450000  1.0 0.0993887514
H  H262  1  0.32042000  0.92478000  0.47510000  1.0 0.1278795236
H  H263  1  0.25554000  0.91769000  0.42369000  1.0 0.1224564751
H  H264  1  0.19945000  0.78128000  0.36687000  1.0 0.0993887514
H  H265  1  0.97968000  0.44928000  0.34736000  1.0 0.0993887514
H  H266  1  0.00198000  0.44982000  0.29616000  1.0 0.1224564751
H  H267  1  0.07120000  0.50530000  0.31876000  1.0 0.1224564751
H  H268  1  0.09359000  0.56926000  0.44759000  1.0 0.1087459539
H  H269  1  0.17802000  0.65252000  0.53858000  1.0 0.0993887514
H  H270  1  0.17958000  0.65468000  0.60436000  1.0 0.1278795236
H  H271  1  0.24446000  0.66815000  0.66215000  1.0 0.1224564751
H  H272  1  0.30055000  0.66742000  0.58183000  1.0 0.0993887514
H  H273  1  0.89808000  0.05072000  0.03040000  1.0 0.0993887514
H  H274  1  0.84634000  0.05018000  0.05216000  1.0 0.1224564751
H  H275  1  0.81346000  0.99470000  0.06590000  1.0 0.1224564751
H  H276  1  0.87833000  0.93074000  0.02433000  1.0 0.1087459539
H  H277  1  0.88606000  0.84748000  0.02550000  1.0 0.0993887514
H  H278  1  0.94968000  0.84532000  0.02490000  1.0 0.1278795236
H  H279  1  0.99400000  0.83185000  0.07631000  1.0 0.1224564751
H  H280  1  0.91441000  0.83258000  0.13313000  1.0 0.0993887514
H  H281  1  0.60192000  0.63232000  0.15264000  1.0 0.0993887514
H  H282  1  0.65366000  0.70582000  0.20384000  1.0 0.1224564751
H  H283  1  0.68654000  0.75244000  0.18124000  1.0 0.1224564751
H  H284  1  0.62167000  0.64600000  0.05241000  1.0 0.1087459539
H  H285  1  0.61394000  0.63944000  0.96142000  1.0 0.0993887514
H  H286  1  0.55032000  0.57522000  0.89564000  1.0 0.1278795236
H  H287  1  0.50600000  0.58231000  0.83785000  1.0 0.1224564751
H  H288  1  0.58559000  0.71872000  0.91817000  1.0 0.0993887514
H  H289  1  0.86768000  0.89808000  0.34736000  1.0 0.0993887514
H  H290  1  0.79418000  0.84634000  0.29616000  1.0 0.1224564751
H  H291  1  0.74756000  0.81346000  0.31876000  1.0 0.1224564751
H  H292  1  0.85400000  0.87833000  0.44759000  1.0 0.1087459539
H  H293  1  0.86056000  0.88606000  0.53858000  1.0 0.0993887514
H  H294  1  0.92478000  0.94968000  0.60436000  1.0 0.1278795236
H  H295  1  0.91769000  0.99400000  0.66215000  1.0 0.1224564751
H  H296  1  0.78128000  0.91441000  0.58183000  1.0 0.0993887514
H  H297  1  0.44928000  0.60192000  0.46960000  1.0 0.0993887514
H  H298  1  0.44982000  0.65366000  0.44784000  1.0 0.1224564751
H  H299  1  0.50530000  0.68654000  0.43410000  1.0 0.1224564751
H  H300  1  0.56926000  0.62167000  0.47567000  1.0 0.1087459539
H  H301  1  0.65252000  0.61394000  0.47450000  1.0 0.0993887514
H  H302  1  0.65468000  0.55032000  0.47510000  1.0 0.1278795236
H  H303  1  0.66815000  0.50600000  0.42369000  1.0 0.1224564751
H  H304  1  0.66742000  0.58559000  0.36687000  1.0 0.0993887514
H  H305  1  0.05072000  0.52032000  0.15264000  1.0 0.0993887514
H  H306  1  0.05018000  0.49802000  0.20384000  1.0 0.1224564751
H  H307  1  0.99470000  0.42880000  0.18124000  1.0 0.1224564751
H  H308  1  0.93074000  0.40641000  0.05241000  1.0 0.1087459539
H  H309  1  0.84748000  0.32198000  0.96142000  1.0 0.0993887514
H  H310  1  0.84532000  0.32042000  0.89564000  1.0 0.1278795236
H  H311  1  0.83185000  0.25554000  0.83785000  1.0 0.1224564751
H  H312  1  0.83258000  0.19945000  0.91817000  1.0 0.0993887514
H  H313  1  0.63232000  0.97968000  0.03040000  1.0 0.0993887514
H  H314  1  0.70582000  0.00198000  0.05216000  1.0 0.1224564751
H  H315  1  0.75244000  0.07120000  0.06590000  1.0 0.1224564751
H  H316  1  0.64600000  0.09359000  0.02433000  1.0 0.1087459539
H  H317  1  0.63944000  0.17802000  0.02550000  1.0 0.0993887514
H  H318  1  0.57522000  0.17958000  0.02490000  1.0 0.1278795236
H  H319  1  0.58231000  0.24446000  0.07631000  1.0 0.1224564751
H  H320  1  0.71872000  0.30055000  0.13313000  1.0 0.0993887514
H  H321  1  0.60192000  0.46960000  0.44928000  1.0 0.0993887514
H  H322  1  0.65366000  0.44784000  0.44982000  1.0 0.1224564751
H  H323  1  0.68654000  0.43410000  0.50530000  1.0 0.1224564751
H  H324  1  0.62167000  0.47567000  0.56926000  1.0 0.1087459539
H  H325  1  0.61394000  0.47450000  0.65252000  1.0 0.0993887514
H  H326  1  0.55032000  0.47510000  0.65468000  1.0 0.1278795236
H  H327  1  0.50600000  0.42369000  0.66815000  1.0 0.1224564751
H  H328  1  0.58559000  0.36687000  0.66742000  1.0 0.0993887514
H  H329  1  0.89808000  0.34736000  0.86768000  1.0 0.0993887514
H  H330  1  0.84634000  0.29616000  0.79418000  1.0 0.1224564751
H  H331  1  0.81346000  0.31876000  0.74756000  1.0 0.1224564751
H  H332  1  0.87833000  0.44759000  0.85400000  1.0 0.1087459539
H  H333  1  0.88606000  0.53858000  0.86056000  1.0 0.0993887514
H  H334  1  0.94968000  0.60436000  0.92478000  1.0 0.1278795236
H  H335  1  0.99400000  0.66215000  0.91769000  1.0 0.1224564751
H  H336  1  0.91441000  0.58183000  0.78128000  1.0 0.0993887514
H  H337  1  0.97968000  0.03040000  0.63232000  1.0 0.0993887514
H  H338  1  0.00198000  0.05216000  0.70582000  1.0 0.1224564751
H  H339  1  0.07120000  0.06590000  0.75244000  1.0 0.1224564751
H  H340  1  0.09359000  0.02433000  0.64600000  1.0 0.1087459539
H  H341  1  0.17802000  0.02550000  0.63944000  1.0 0.0993887514
H  H342  1  0.17958000  0.02490000  0.57522000  1.0 0.1278795236
H  H343  1  0.24446000  0.07631000  0.58231000  1.0 0.1224564751
H  H344  1  0.30055000  0.13313000  0.71872000  1.0 0.0993887514
H  H345  1  0.52032000  0.15264000  0.05072000  1.0 0.0993887514
H  H346  1  0.49802000  0.20384000  0.05018000  1.0 0.1224564751
H  H347  1  0.42880000  0.18124000  0.99470000  1.0 0.1224564751
H  H348  1  0.40641000  0.05241000  0.93074000  1.0 0.1087459539
H  H349  1  0.32198000  0.96142000  0.84748000  1.0 0.0993887514
H  H350  1  0.32042000  0.89564000  0.84532000  1.0 0.1278795236
H  H351  1  0.25554000  0.83785000  0.83185000  1.0 0.1224564751
H  H352  1  0.19945000  0.91817000  0.83258000  1.0 0.0993887514
H  H353  1  0.03040000  0.63232000  0.97968000  1.0 0.0993887514
H  H354  1  0.05216000  0.70582000  0.00198000  1.0 0.1224564751
H  H355  1  0.06590000  0.75244000  0.07120000  1.0 0.1224564751
H  H356  1  0.02433000  0.64600000  0.09359000  1.0 0.1087459539
H  H357  1  0.02550000  0.63944000  0.17802000  1.0 0.0993887514
H  H358  1  0.02490000  0.57522000  0.17958000  1.0 0.1278795236
H  H359  1  0.07631000  0.58231000  0.24446000  1.0 0.1224564751
H  H360  1  0.13313000  0.71872000  0.30055000  1.0 0.0993887514
H  H361  1  0.15264000  0.05072000  0.52032000  1.0 0.0993887514
H  H362  1  0.20384000  0.05018000  0.49802000  1.0 0.1224564751
H  H363  1  0.18124000  0.99470000  0.42880000  1.0 0.1224564751
H  H364  1  0.05241000  0.93074000  0.40641000  1.0 0.1087459539
H  H365  1  0.96142000  0.84748000  0.32198000  1.0 0.0993887514
H  H366  1  0.89564000  0.84532000  0.32042000  1.0 0.1278795236
H  H367  1  0.83785000  0.83185000  0.25554000  1.0 0.1224564751
H  H368  1  0.91817000  0.83258000  0.19945000  1.0 0.0993887514
H  H369  1  0.46960000  0.44928000  0.60192000  1.0 0.0993887514
H  H370  1  0.44784000  0.44982000  0.65366000  1.0 0.1224564751
H  H371  1  0.43410000  0.50530000  0.68654000  1.0 0.1224564751
H  H372  1  0.47567000  0.56926000  0.62167000  1.0 0.1087459539
H  H373  1  0.47450000  0.65252000  0.61394000  1.0 0.0993887514
H  H374  1  0.47510000  0.65468000  0.55032000  1.0 0.1278795236
H  H375  1  0.42369000  0.66815000  0.50600000  1.0 0.1224564751
H  H376  1  0.36687000  0.66742000  0.58559000  1.0 0.0993887514
H  H377  1  0.34736000  0.86768000  0.89808000  1.0 0.0993887514
H  H378  1  0.29616000  0.79418000  0.84634000  1.0 0.1224564751
H  H379  1  0.31876000  0.74756000  0.81346000  1.0 0.1224564751
H  H380  1  0.44759000  0.85400000  0.87833000  1.0 0.1087459539
H  H381  1  0.53858000  0.86056000  0.88606000  1.0 0.0993887514
H  H382  1  0.60436000  0.92478000  0.94968000  1.0 0.1278795236
H  H383  1  0.66215000  0.91769000  0.99400000  1.0 0.1224564751
H  H384  1  0.58183000  0.78128000  0.91441000  1.0 0.0993887514
C  C1  1  0.85690000  0.38290000  0.34940000  1.0 -0.0039097462
C  C2  1  0.82660000  0.35320000  0.30580000  1.0 -0.1171375298
C  C3  1  0.84000000  0.33340000  0.27880000  1.0 -0.0873111804
C  C4  1  0.88550000  0.34150000  0.29580000  1.0 -0.0823606315
C  C5  1  0.91720000  0.37210000  0.34210000  1.0 0.0450204452
C  C6  1  0.90030000  0.32120000  0.26390000  1.0 0.5981135408
C  C7  1  0.06110000  0.40500000  0.35730000  1.0 0.0808463502
C  C8  1  0.10070000  0.44260000  0.39570000  1.0 -0.1436567845
C  C9  1  0.13470000  0.46960000  0.39150000  1.0 -0.0618133425
C  C10  1  0.12830000  0.46060000  0.34810000  1.0 -0.0738378452
C  C11  1  0.08680000  0.42180000  0.31080000  1.0 0.0862300287
C  C12  1  0.16250000  0.49090000  0.34100000  1.0 0.5981135408
C  C13  1  0.96650000  0.11710000  0.97400000  1.0 -0.0039097462
C  C14  1  0.95260000  0.14680000  0.97340000  1.0 -0.1171375298
C  C15  1  0.94540000  0.16660000  0.00660000  1.0 -0.0873111804
C  C16  1  0.95430000  0.15850000  0.04400000  1.0 -0.0823606315
C  C17  1  0.97000000  0.12790000  0.04510000  1.0 0.0450204452
C  C18  1  0.94270000  0.17880000  0.07910000  1.0 0.5981135408
C  C19  1  0.95230000  0.09500000  0.15610000  1.0 0.0808463502
C  C20  1  0.95310000  0.05740000  0.15810000  1.0 -0.1436567845
C  C21  1  0.92190000  0.03040000  0.16510000  1.0 -0.0618133425
C  C22  1  0.88750000  0.03940000  0.16770000  1.0 -0.0738378452
C  C23  1  0.88900000  0.07820000  0.16500000  1.0 0.0862300287
C  C24  1  0.85010000  0.00910000  0.17160000  1.0 0.5981135408
C  C25  1  0.64310000  0.99250000  0.52600000  1.0 -0.0039097462
C  C26  1  0.67340000  0.97920000  0.52660000  1.0 -0.1171375298
C  C27  1  0.66000000  0.93880000  0.49340000  1.0 -0.0873111804
C  C28  1  0.61450000  0.91030000  0.45600000  1.0 -0.0823606315
C  C29  1  0.58280000  0.92490000  0.45490000  1.0 0.0450204452
C  C30  1  0.59970000  0.86360000  0.42090000  1.0 0.5981135408
C  C31  1  0.43890000  0.79620000  0.34390000  1.0 0.0808463502
C  C32  1  0.39930000  0.79500000  0.34190000  1.0 -0.1436567845
C  C33  1  0.36530000  0.75680000  0.33490000  1.0 -0.0618133425
C  C34  1  0.37170000  0.71980000  0.33230000  1.0 -0.0738378452
C  C35  1  0.41320000  0.72400000  0.33500000  1.0 0.0862300287
C  C36  1  0.33750000  0.67850000  0.32840000  1.0 0.5981135408
C  C37  1  0.53350000  0.50750000  0.15060000  1.0 -0.0039097462
C  C38  1  0.54740000  0.52080000  0.19420000  1.0 -0.1171375298
C  C39  1  0.55460000  0.56120000  0.22120000  1.0 -0.0873111804
C  C40  1  0.54570000  0.58970000  0.20420000  1.0 -0.0823606315
C  C41  1  0.53000000  0.57510000  0.15790000  1.0 0.0450204452
C  C42  1  0.55730000  0.63640000  0.23610000  1.0 0.5981135408
C  C43  1  0.54770000  0.70380000  0.14270000  1.0 0.0808463502
C  C44  1  0.54690000  0.70500000  0.10430000  1.0 -0.1436567845
C  C45  1  0.57810000  0.74320000  0.10850000  1.0 -0.0618133425
C  C46  1  0.61250000  0.78020000  0.15190000  1.0 -0.0738378452
C  C47  1  0.61100000  0.77600000  0.18920000  1.0 0.0862300287
C  C48  1  0.64990000  0.82150000  0.15900000  1.0 0.5981135408
C  C49  1  0.97400000  0.96650000  0.11710000  1.0 -0.0039097462
C  C50  1  0.97340000  0.95260000  0.14680000  1.0 -0.1171375298
C  C51  1  0.00660000  0.94540000  0.16660000  1.0 -0.0873111804
C  C52  1  0.04400000  0.95430000  0.15850000  1.0 -0.0823606315
C  C53  1  0.04510000  0.97000000  0.12790000  1.0 0.0446284403
C  C54  1  0.07910000  0.94270000  0.17880000  1.0 0.5981135408
C  C55  1  0.15610000  0.95230000  0.09500000  1.0 0.0808463502
C  C56  1  0.15810000  0.95310000  0.05740000  1.0 -0.1436567845
C  C57  1  0.16510000  0.92190000  0.03040000  1.0 -0.0618133425
C  C58  1  0.16770000  0.88750000  0.03940000  1.0 -0.0738378452
C  C59  1  0.16500000  0.88900000  0.07820000  1.0 0.0862300287
C  C60  1  0.17160000  0.85010000  0.00910000  1.0 0.5981135408
C  C61  1  0.34940000  0.85690000  0.38290000  1.0 -0.0039097462
C  C62  1  0.30580000  0.82660000  0.35320000  1.0 -0.1171375298
C  C63  1  0.27880000  0.84000000  0.33340000  1.0 -0.0873111804
C  C64  1  0.29580000  0.88550000  0.34150000  1.0 -0.0823606315
C  C65  1  0.34210000  0.91720000  0.37210000  1.0 0.0450204452
C  C66  1  0.26390000  0.90030000  0.32120000  1.0 0.5981135408
C  C67  1  0.35730000  0.06110000  0.40500000  1.0 0.0808463502
C  C68  1  0.39570000  0.10070000  0.44260000  1.0 -0.1436567845
C  C69  1  0.39150000  0.13470000  0.46960000  1.0 -0.0618133425
C  C70  1  0.34810000  0.12830000  0.46060000  1.0 -0.0738378452
C  C71  1  0.31080000  0.08680000  0.42180000  1.0 0.0862300287
C  C72  1  0.34100000  0.16250000  0.49090000  1.0 0.5981135408
C  C73  1  0.15060000  0.53350000  0.50750000  1.0 -0.0039097462
C  C74  1  0.19420000  0.54740000  0.52080000  1.0 -0.1171375298
C  C75  1  0.22120000  0.55460000  0.56120000  1.0 -0.0873111804
C  C76  1  0.20420000  0.54570000  0.58970000  1.0 -0.0823606315
C  C77  1  0.15790000  0.53000000  0.57510000  1.0 0.0446284403
C  C78  1  0.23610000  0.55730000  0.63640000  1.0 0.5981135408
C  C79  1  0.14270000  0.54770000  0.70380000  1.0 0.0808463502
C  C80  1  0.10430000  0.54690000  0.70500000  1.0 -0.1436567845
C  C81  1  0.10850000  0.57810000  0.74320000  1.0 -0.0618133425
C  C82  1  0.15190000  0.61250000  0.78020000  1.0 -0.0738378452
C  C83  1  0.18920000  0.61100000  0.77600000  1.0 0.0862300287
C  C84  1  0.15900000  0.64990000  0.82150000  1.0 0.5981135408
C  C85  1  0.52600000  0.64310000  0.99250000  1.0 -0.0039097462
C  C86  1  0.52660000  0.67340000  0.97920000  1.0 -0.1171375298
C  C87  1  0.49340000  0.66000000  0.93880000  1.0 -0.0873111804
C  C88  1  0.45600000  0.61450000  0.91030000  1.0 -0.0823606315
C  C89  1  0.45490000  0.58280000  0.92490000  1.0 0.0450204452
C  C90  1  0.42090000  0.59970000  0.86360000  1.0 0.5981135408
C  C91  1  0.34390000  0.43890000  0.79620000  1.0 0.0808463502
C  C92  1  0.34190000  0.39930000  0.79500000  1.0 -0.1436567845
C  C93  1  0.33490000  0.36530000  0.75680000  1.0 -0.0618133425
C  C94  1  0.33230000  0.37170000  0.71980000  1.0 -0.0738378452
C  C95  1  0.33500000  0.41320000  0.72400000  1.0 0.0862300287
C  C96  1  0.32840000  0.33750000  0.67850000  1.0 0.5981135408
C  C97  1  0.50750000  0.15060000  0.53350000  1.0 -0.0039097462
C  C98  1  0.52080000  0.19420000  0.54740000  1.0 -0.1171375298
C  C99  1  0.56120000  0.22120000  0.55460000  1.0 -0.0873111804
C  C100  1  0.58970000  0.20420000  0.54570000  1.0 -0.0823606315
C  C101  1  0.57510000  0.15790000  0.53000000  1.0 0.0450204452
C  C102  1  0.63640000  0.23610000  0.55730000  1.0 0.5981135408
C  C103  1  0.70380000  0.14270000  0.54770000  1.0 0.0808463502
C  C104  1  0.70500000  0.10430000  0.54690000  1.0 -0.1436567845
C  C105  1  0.74320000  0.10850000  0.57810000  1.0 -0.0618133425
C  C106  1  0.78020000  0.15190000  0.61250000  1.0 -0.0738378452
C  C107  1  0.77600000  0.18920000  0.61100000  1.0 0.0862300287
C  C108  1  0.82150000  0.15900000  0.64990000  1.0 0.5981135408
C  C109  1  0.99250000  0.52600000  0.64310000  1.0 -0.0039097462
C  C110  1  0.97920000  0.52660000  0.67340000  1.0 -0.1171375298
C  C111  1  0.93880000  0.49340000  0.66000000  1.0 -0.0873111804
C  C112  1  0.91030000  0.45600000  0.61450000  1.0 -0.0823606315
C  C113  1  0.92490000  0.45490000  0.58280000  1.0 0.0450204452
C  C114  1  0.86360000  0.42090000  0.59970000  1.0 0.5981135408
C  C115  1  0.79620000  0.34390000  0.43890000  1.0 0.0808463502
C  C116  1  0.79500000  0.34190000  0.39930000  1.0 -0.1436567845
C  C117  1  0.75680000  0.33490000  0.36530000  1.0 -0.0618133425
C  C118  1  0.71980000  0.33230000  0.37170000  1.0 -0.0738378452
C  C119  1  0.72400000  0.33500000  0.41320000  1.0 0.0862300287
C  C120  1  0.67850000  0.32840000  0.33750000  1.0 0.5981135408
C  C121  1  0.11710000  0.97400000  0.96650000  1.0 -0.0051662776
C  C122  1  0.14680000  0.97340000  0.95260000  1.0 -0.1171375298
C  C123  1  0.16660000  0.00660000  0.94540000  1.0 -0.0873111804
C  C124  1  0.15850000  0.04400000  0.95430000  1.0 -0.0823606315
C  C125  1  0.12790000  0.04510000  0.97000000  1.0 0.0450204452
C  C126  1  0.17880000  0.07910000  0.94270000  1.0 0.5981135408
C  C127  1  0.09500000  0.15610000  0.95230000  1.0 0.0808463502
C  C128  1  0.05740000  0.15810000  0.95310000  1.0 -0.1436567845
C  C129  1  0.03040000  0.16510000  0.92190000  1.0 -0.0618133425
C  C130  1  0.03940000  0.16770000  0.88750000  1.0 -0.0738378452
C  C131  1  0.07820000  0.16500000  0.88900000  1.0 0.0862300287
C  C132  1  0.00910000  0.17160000  0.85010000  1.0 0.5981135408
C  C133  1  0.38290000  0.34940000  0.85690000  1.0 -0.0039097462
C  C134  1  0.35320000  0.30580000  0.82660000  1.0 -0.1171375298
C  C135  1  0.33340000  0.27880000  0.84000000  1.0 -0.0873111804
C  C136  1  0.34150000  0.29580000  0.88550000  1.0 -0.0823606315
C  C137  1  0.37210000  0.34210000  0.91720000  1.0 0.0450204452
C  C138  1  0.32120000  0.26390000  0.90030000  1.0 0.5981135408
C  C139  1  0.40500000  0.35730000  0.06110000  1.0 0.0808463502
C  C140  1  0.44260000  0.39570000  0.10070000  1.0 -0.1436567845
C  C141  1  0.46960000  0.39150000  0.13470000  1.0 -0.0618133425
C  C142  1  0.46060000  0.34810000  0.12830000  1.0 -0.0738378452
C  C143  1  0.42180000  0.31080000  0.08680000  1.0 0.0862300287
C  C144  1  0.49090000  0.34100000  0.16250000  1.0 0.5981135408
C  C145  1  0.15060000  0.11710000  0.64310000  1.0 -0.0039097462
C  C146  1  0.19420000  0.14680000  0.67340000  1.0 -0.1171375298
C  C147  1  0.22120000  0.16660000  0.66000000  1.0 -0.0873111804
C  C148  1  0.20420000  0.15850000  0.61450000  1.0 -0.0823606315
C  C149  1  0.15790000  0.12790000  0.58280000  1.0 0.0450204452
C  C150  1  0.23610000  0.17880000  0.59970000  1.0 0.5981135408
C  C151  1  0.14270000  0.09500000  0.43890000  1.0 0.0808463502
C  C152  1  0.10430000  0.05740000  0.39930000  1.0 -0.1436567845
C  C153  1  0.10850000  0.03040000  0.36530000  1.0 -0.0618133425
C  C154  1  0.15190000  0.03940000  0.37170000  1.0 -0.0738378452
C  C155  1  0.18920000  0.07820000  0.41320000  1.0 0.0862300287
C  C156  1  0.15900000  0.00910000  0.33750000  1.0 0.5981135408
C  C157  1  0.52600000  0.38290000  0.53350000  1.0 -0.0039097462
C  C158  1  0.52660000  0.35320000  0.54740000  1.0 -0.1171375298
C  C159  1  0.49340000  0.33340000  0.55460000  1.0 -0.0873111804
C  C160  1  0.45600000  0.34150000  0.54570000  1.0 -0.0823606315
C  C161  1  0.45490000  0.37210000  0.53000000  1.0 0.0450204452
C  C162  1  0.42090000  0.32120000  0.55730000  1.0 0.5981135408
C  C163  1  0.34390000  0.40500000  0.54770000  1.0 0.0808463502
C  C164  1  0.34190000  0.44260000  0.54690000  1.0 -0.1436567845
C  C165  1  0.33490000  0.46960000  0.57810000  1.0 -0.0618133425
C  C166  1  0.33230000  0.46060000  0.61250000  1.0 -0.0738378452
C  C167  1  0.33500000  0.42180000  0.61100000  1.0 0.0862300287
C  C168  1  0.32840000  0.49090000  0.64990000  1.0 0.5981135408
C  C169  1  0.97400000  0.50750000  0.85690000  1.0 -0.0039097462
C  C170  1  0.97340000  0.52080000  0.82660000  1.0 -0.1171375298
C  C171  1  0.00660000  0.56120000  0.84000000  1.0 -0.0873111804
C  C172  1  0.04400000  0.58970000  0.88550000  1.0 -0.0823606315
C  C173  1  0.04510000  0.57510000  0.91720000  1.0 0.0450204452
C  C174  1  0.07910000  0.63640000  0.90030000  1.0 0.5981135408
C  C175  1  0.15610000  0.70380000  0.06110000  1.0 0.0808463502
C  C176  1  0.15810000  0.70500000  0.10070000  1.0 -0.1436567845
C  C177  1  0.16510000  0.74320000  0.13470000  1.0 -0.0618133425
C  C178  1  0.16770000  0.78020000  0.12830000  1.0 -0.0738378452
C  C179  1  0.16500000  0.77600000  0.08680000  1.0 0.0862300287
C  C180  1  0.17160000  0.82150000  0.16250000  1.0 0.5981135408
C  C181  1  0.34940000  0.99250000  0.96650000  1.0 -0.0039097462
C  C182  1  0.30580000  0.97920000  0.95260000  1.0 -0.1171375298
C  C183  1  0.27880000  0.93880000  0.94540000  1.0 -0.0873111804
C  C184  1  0.29580000  0.91030000  0.95430000  1.0 -0.0823606315
C  C185  1  0.34210000  0.92490000  0.97000000  1.0 0.0450204452
C  C186  1  0.26390000  0.86360000  0.94270000  1.0 0.5981135408
C  C187  1  0.35730000  0.79620000  0.95230000  1.0 0.0808463502
C  C188  1  0.39570000  0.79500000  0.95310000  1.0 -0.1436567845
C  C189  1  0.39150000  0.75680000  0.92190000  1.0 -0.0618133425
C  C190  1  0.34810000  0.71980000  0.88750000  1.0 -0.0738378452
C  C191  1  0.31080000  0.72400000  0.88900000  1.0 0.0862300287
C  C192  1  0.34100000  0.67850000  0.85010000  1.0 0.5981135408
C  C193  1  0.38290000  0.53350000  0.52600000  1.0 -0.0039097462
C  C194  1  0.35320000  0.54740000  0.52660000  1.0 -0.1171375298
C  C195  1  0.33340000  0.55460000  0.49340000  1.0 -0.0873111804
C  C196  1  0.34150000  0.54570000  0.45600000  1.0 -0.0823606315
C  C197  1  0.37210000  0.53000000  0.45490000  1.0 0.0450204452
C  C198  1  0.32120000  0.55730000  0.42090000  1.0 0.5981135408
C  C199  1  0.40500000  0.54770000  0.34390000  1.0 0.0808463502
C  C200  1  0.44260000  0.54690000  0.34190000  1.0 -0.1436567845
C  C201  1  0.46960000  0.57810000  0.33490000  1.0 -0.0618133425
C  C202  1  0.46060000  0.61250000  0.33230000  1.0 -0.0738378452
C  C203  1  0.42180000  0.61100000  0.33500000  1.0 0.0862300287
C  C204  1  0.49090000  0.64990000  0.32840000  1.0 0.5981135408
C  C205  1  0.11710000  0.64310000  0.15060000  1.0 -0.0039097462
C  C206  1  0.14680000  0.67340000  0.19420000  1.0 -0.1171375298
C  C207  1  0.16660000  0.66000000  0.22120000  1.0 -0.0873111804
C  C208  1  0.15850000  0.61450000  0.20420000  1.0 -0.0823606315
C  C209  1  0.12790000  0.58280000  0.15790000  1.0 0.0446284403
C  C210  1  0.17880000  0.59970000  0.23610000  1.0 0.5981135408
C  C211  1  0.09500000  0.43890000  0.14270000  1.0 0.0808463502
C  C212  1  0.05740000  0.39930000  0.10430000  1.0 -0.1436567845
C  C213  1  0.03040000  0.36530000  0.10850000  1.0 -0.0618133425
C  C214  1  0.03940000  0.37170000  0.15190000  1.0 -0.0738378452
C  C215  1  0.07820000  0.41320000  0.18920000  1.0 0.0862300287
C  C216  1  0.00910000  0.33750000  0.15900000  1.0 0.5981135408
C  C217  1  0.99250000  0.96650000  0.34940000  1.0 -0.0039097462
C  C218  1  0.97920000  0.95260000  0.30580000  1.0 -0.1171375298
C  C219  1  0.93880000  0.94540000  0.27880000  1.0 -0.0873111804
C  C220  1  0.91030000  0.95430000  0.29580000  1.0 -0.0823606315
C  C221  1  0.92490000  0.97000000  0.34210000  1.0 0.0450204452
C  C222  1  0.86360000  0.94270000  0.26390000  1.0 0.5981135408
C  C223  1  0.79620000  0.95230000  0.35730000  1.0 0.0808463502
C  C224  1  0.79500000  0.95310000  0.39570000  1.0 -0.1436567845
C  C225  1  0.75680000  0.92190000  0.39150000  1.0 -0.0618133425
C  C226  1  0.71980000  0.88750000  0.34810000  1.0 -0.0738378452
C  C227  1  0.72400000  0.88900000  0.31080000  1.0 0.0862300287
C  C228  1  0.67850000  0.85010000  0.34100000  1.0 0.5981135408
C  C229  1  0.50750000  0.85690000  0.97400000  1.0 -0.0039097462
C  C230  1  0.52080000  0.82660000  0.97340000  1.0 -0.1171375298
C  C231  1  0.56120000  0.84000000  0.00660000  1.0 -0.0873111804
C  C232  1  0.58970000  0.88550000  0.04400000  1.0 -0.0823606315
C  C233  1  0.57510000  0.91720000  0.04510000  1.0 0.0450204452
C  C234  1  0.63640000  0.90030000  0.07910000  1.0 0.5981135408
C  C235  1  0.70380000  0.06110000  0.15610000  1.0 0.0808463502
C  C236  1  0.70500000  0.10070000  0.15810000  1.0 -0.1436567845
C  C237  1  0.74320000  0.13470000  0.16510000  1.0 -0.0618133425
C  C238  1  0.78020000  0.12830000  0.16770000  1.0 -0.0738378452
C  C239  1  0.77600000  0.08680000  0.16500000  1.0 0.0862300287
C  C240  1  0.82150000  0.16250000  0.17160000  1.0 0.5981135408
C  C241  1  0.96650000  0.34940000  0.99250000  1.0 -0.0039097462
C  C242  1  0.95260000  0.30580000  0.97920000  1.0 -0.1171375298
C  C243  1  0.94540000  0.27880000  0.93880000  1.0 -0.0873111804
C  C244  1  0.95430000  0.29580000  0.91030000  1.0 -0.0823606315
C  C245  1  0.97000000  0.34210000  0.92490000  1.0 0.0450204452
C  C246  1  0.94270000  0.26390000  0.86360000  1.0 0.5981135408
C  C247  1  0.95230000  0.35730000  0.79620000  1.0 0.0808463502
C  C248  1  0.95310000  0.39570000  0.79500000  1.0 -0.1436567845
C  C249  1  0.92190000  0.39150000  0.75680000  1.0 -0.0618133425
C  C250  1  0.88750000  0.34810000  0.71980000  1.0 -0.0738378452
C  C251  1  0.88900000  0.31080000  0.72400000  1.0 0.0862300287
C  C252  1  0.85010000  0.34100000  0.67850000  1.0 0.5981135408
C  C253  1  0.85690000  0.97400000  0.50750000  1.0 -0.0051662776
C  C254  1  0.82660000  0.97340000  0.52080000  1.0 -0.1171375298
C  C255  1  0.84000000  0.00660000  0.56120000  1.0 -0.0873111804
C  C256  1  0.88550000  0.04400000  0.58970000  1.0 -0.0823606315
C  C257  1  0.91720000  0.04510000  0.57510000  1.0 0.0450204452
C  C258  1  0.90030000  0.07910000  0.63640000  1.0 0.5981135408
C  C259  1  0.06110000  0.15610000  0.70380000  1.0 0.0808463502
C  C260  1  0.10070000  0.15810000  0.70500000  1.0 -0.1436567845
C  C261  1  0.13470000  0.16510000  0.74320000  1.0 -0.0618133425
C  C262  1  0.12830000  0.16770000  0.78020000  1.0 -0.0738378452
C  C263  1  0.08680000  0.16500000  0.77600000  1.0 0.0862300287
C  C264  1  0.16250000  0.17160000  0.82150000  1.0 0.5981135408
C  C265  1  0.53350000  0.52600000  0.38290000  1.0 -0.0051662776
C  C266  1  0.54740000  0.52660000  0.35320000  1.0 -0.1171375298
C  C267  1  0.55460000  0.49340000  0.33340000  1.0 -0.0873111804
C  C268  1  0.54570000  0.45600000  0.34150000  1.0 -0.0823606315
C  C269  1  0.53000000  0.45490000  0.37210000  1.0 0.0450204452
C  C270  1  0.55730000  0.42090000  0.32120000  1.0 0.5981135408
C  C271  1  0.54770000  0.34390000  0.40500000  1.0 0.0808463502
C  C272  1  0.54690000  0.34190000  0.44260000  1.0 -0.1436567845
C  C273  1  0.57810000  0.33490000  0.46960000  1.0 -0.0618133425
C  C274  1  0.61250000  0.33230000  0.46060000  1.0 -0.0738378452
C  C275  1  0.61100000  0.33500000  0.42180000  1.0 0.0862300287
C  C276  1  0.64990000  0.32840000  0.49090000  1.0 0.5981135408
C  C277  1  0.64310000  0.15060000  0.11710000  1.0 -0.0039097462
C  C278  1  0.67340000  0.19420000  0.14680000  1.0 -0.1171375298
C  C279  1  0.66000000  0.22120000  0.16660000  1.0 -0.0873111804
C  C280  1  0.61450000  0.20420000  0.15850000  1.0 -0.0823606315
C  C281  1  0.58280000  0.15790000  0.12790000  1.0 0.0450204452
C  C282  1  0.59970000  0.23610000  0.17880000  1.0 0.5981135408
C  C283  1  0.43890000  0.14270000  0.09500000  1.0 0.0808463502
C  C284  1  0.39930000  0.10430000  0.05740000  1.0 -0.1436567845
C  C285  1  0.36530000  0.10850000  0.03040000  1.0 -0.0618133425
C  C286  1  0.37170000  0.15190000  0.03940000  1.0 -0.0738378452
C  C287  1  0.41320000  0.18920000  0.07820000  1.0 0.0862300287
C  C288  1  0.33750000  0.15900000  0.00910000  1.0 0.5981135408
C  C289  1  0.14310000  0.61710000  0.65060000  1.0 -0.0039097462
C  C290  1  0.17340000  0.64680000  0.69420000  1.0 -0.1171375298
C  C291  1  0.16000000  0.66666667  0.72120000  1.0 -0.0873111804
C  C292  1  0.11450000  0.65850000  0.70420000  1.0 -0.0823606315
C  C293  1  0.08280000  0.62790000  0.65790000  1.0 0.0450204452
C  C294  1  0.09970000  0.67880000  0.73610000  1.0 0.5981135408
C  C295  1  0.93890000  0.59500000  0.64270000  1.0 0.0808463502
C  C296  1  0.89930000  0.55740000  0.60430000  1.0 -0.1436567845
C  C297  1  0.86530000  0.53040000  0.60850000  1.0 -0.0618133425
C  C298  1  0.87170000  0.53940000  0.65190000  1.0 -0.0738378452
C  C299  1  0.91320000  0.57820000  0.68920000  1.0 0.0862300287
C  C300  1  0.83750000  0.50910000  0.65900000  1.0 0.5981135408
C  C301  1  0.03350000  0.88290000  0.02600000  1.0 -0.0039097462
C  C302  1  0.04740000  0.85320000  0.02660000  1.0 -0.1171375298
C  C303  1  0.05460000  0.83340000  0.99340000  1.0 -0.0873111804
C  C304  1  0.04570000  0.84150000  0.95600000  1.0 -0.0823606315
C  C305  1  0.03000000  0.87210000  0.95490000  1.0 0.0450204452
C  C306  1  0.05730000  0.82120000  0.92090000  1.0 0.5981135408
C  C307  1  0.04770000  0.90500000  0.84390000  1.0 0.0808463502
C  C308  1  0.04690000  0.94260000  0.84190000  1.0 -0.1436567845
C  C309  1  0.07810000  0.96960000  0.83490000  1.0 -0.0618133425
C  C310  1  0.11250000  0.96060000  0.83230000  1.0 -0.0738378452
C  C311  1  0.11100000  0.92180000  0.83500000  1.0 0.0862300287
C  C312  1  0.14990000  0.99090000  0.82840000  1.0 0.5981135408
C  C313  1  0.35690000  0.00750000  0.47400000  1.0 -0.0039097462
C  C314  1  0.32660000  0.02080000  0.47340000  1.0 -0.1171375298
C  C315  1  0.34000000  0.06120000  0.50660000  1.0 -0.0873111804
C  C316  1  0.38550000  0.08970000  0.54400000  1.0 -0.0823606315
C  C317  1  0.41720000  0.07510000  0.54510000  1.0 0.0450204452
C  C318  1  0.40030000  0.13640000  0.57910000  1.0 0.5981135408
C  C319  1  0.56110000  0.20380000  0.65610000  1.0 0.0808463502
C  C320  1  0.60070000  0.20500000  0.65810000  1.0 -0.1436567845
C  C321  1  0.63470000  0.24320000  0.66510000  1.0 -0.0618133425
C  C322  1  0.62830000  0.28020000  0.66770000  1.0 -0.0738378452
C  C323  1  0.58680000  0.27600000  0.66500000  1.0 0.0862300287
C  C324  1  0.66250000  0.32150000  0.67160000  1.0 0.5981135408
C  C325  1  0.46650000  0.49250000  0.84940000  1.0 -0.0039097462
C  C326  1  0.45260000  0.47920000  0.80580000  1.0 -0.1171375298
C  C327  1  0.44540000  0.43880000  0.77880000  1.0 -0.0873111804
C  C328  1  0.45430000  0.41030000  0.79580000  1.0 -0.0823606315
C  C329  1  0.47000000  0.42490000  0.84210000  1.0 0.0450204452
C  C330  1  0.44270000  0.36360000  0.76390000  1.0 0.5981135408
C  C331  1  0.45230000  0.29620000  0.85730000  1.0 0.0808463502
C  C332  1  0.45310000  0.29500000  0.89570000  1.0 -0.1436567845
C  C333  1  0.42190000  0.25680000  0.89150000  1.0 -0.0618133425
C  C334  1  0.38750000  0.21980000  0.84810000  1.0 -0.0738378452
C  C335  1  0.38900000  0.22400000  0.81080000  1.0 0.0862300287
C  C336  1  0.35010000  0.17850000  0.84100000  1.0 0.5981135408
C  C337  1  0.02600000  0.03350000  0.88290000  1.0 -0.0039097462
C  C338  1  0.02660000  0.04740000  0.85320000  1.0 -0.1171375298
C  C339  1  0.99340000  0.05460000  0.83340000  1.0 -0.0873111804
C  C340  1  0.95600000  0.04570000  0.84150000  1.0 -0.0823606315
C  C341  1  0.95490000  0.03000000  0.87210000  1.0 0.0450204452
C  C342  1  0.92090000  0.05730000  0.82120000  1.0 0.5981135408
C  C343  1  0.84390000  0.04770000  0.90500000  1.0 0.0808463502
C  C344  1  0.84190000  0.04690000  0.94260000  1.0 -0.1436567845
C  C345  1  0.83490000  0.07810000  0.96960000  1.0 -0.0618133425
C  C346  1  0.83230000  0.11250000  0.96060000  1.0 -0.0738378452
C  C347  1  0.83500000  0.11100000  0.92180000  1.0 0.0862300287
C  C348  1  0.82840000  0.14990000  0.99090000  1.0 0.5981135408
C  C349  1  0.65060000  0.14310000  0.61710000  1.0 -0.0039097462
C  C350  1  0.69420000  0.17340000  0.64680000  1.0 -0.1171375298
C  C351  1  0.72120000  0.16000000  0.66666667  1.0 -0.0873111804
C  C352  1  0.70420000  0.11450000  0.65850000  1.0 -0.0823606315
C  C353  1  0.65790000  0.08280000  0.62790000  1.0 0.0450204452
C  C354  1  0.73610000  0.09970000  0.67880000  1.0 0.5981135408
C  C355  1  0.64270000  0.93890000  0.59500000  1.0 0.0808463502
C  C356  1  0.60430000  0.89930000  0.55740000  1.0 -0.1436567845
C  C357  1  0.60850000  0.86530000  0.53040000  1.0 -0.0618133425
C  C358  1  0.65190000  0.87170000  0.53940000  1.0 -0.0738378452
C  C359  1  0.68920000  0.91320000  0.57820000  1.0 0.0862300287
C  C360  1  0.65900000  0.83750000  0.50910000  1.0 0.5981135408
C  C361  1  0.84940000  0.46650000  0.49250000  1.0 -0.0039097462
C  C362  1  0.80580000  0.45260000  0.47920000  1.0 -0.1171375298
C  C363  1  0.77880000  0.44540000  0.43880000  1.0 -0.0873111804
C  C364  1  0.79580000  0.45430000  0.41030000  1.0 -0.0823606315
C  C365  1  0.84210000  0.47000000  0.42490000  1.0 0.0450204452
C  C366  1  0.76390000  0.44270000  0.36360000  1.0 0.5981135408
C  C367  1  0.85730000  0.45230000  0.29620000  1.0 0.0808463502
C  C368  1  0.89570000  0.45310000  0.29500000  1.0 -0.1436567845
C  C369  1  0.89150000  0.42190000  0.25680000  1.0 -0.0618133425
C  C370  1  0.84810000  0.38750000  0.21980000  1.0 -0.0738378452
C  C371  1  0.81080000  0.38900000  0.22400000  1.0 0.0862300287
C  C372  1  0.84100000  0.35010000  0.17850000  1.0 0.5981135408
C  C373  1  0.47400000  0.35690000  0.00750000  1.0 -0.0039097462
C  C374  1  0.47340000  0.32660000  0.02080000  1.0 -0.1171375298
C  C375  1  0.50660000  0.34000000  0.06120000  1.0 -0.0873111804
C  C376  1  0.54400000  0.38550000  0.08970000  1.0 -0.0823606315
C  C377  1  0.54510000  0.41720000  0.07510000  1.0 0.0446284403
C  C378  1  0.57910000  0.40030000  0.13640000  1.0 0.5981135408
C  C379  1  0.65610000  0.56110000  0.20380000  1.0 0.0808463502
C  C380  1  0.65810000  0.60070000  0.20500000  1.0 -0.1436567845
C  C381  1  0.66510000  0.63470000  0.24320000  1.0 -0.0618133425
C  C382  1  0.66770000  0.62830000  0.28020000  1.0 -0.0738378452
C  C383  1  0.66500000  0.58680000  0.27600000  1.0 0.0862300287
C  C384  1  0.67160000  0.66250000  0.32150000  1.0 0.5981135408
C  C385  1  0.49250000  0.84940000  0.46650000  1.0 -0.0039097462
C  C386  1  0.47920000  0.80580000  0.45260000  1.0 -0.1171375298
C  C387  1  0.43880000  0.77880000  0.44540000  1.0 -0.0873111804
C  C388  1  0.41030000  0.79580000  0.45430000  1.0 -0.0823606315
C  C389  1  0.42490000  0.84210000  0.47000000  1.0 0.0450204452
C  C390  1  0.36360000  0.76390000  0.44270000  1.0 0.5981135408
C  C391  1  0.29620000  0.85730000  0.45230000  1.0 0.0808463502
C  C392  1  0.29500000  0.89570000  0.45310000  1.0 -0.1436567845
C  C393  1  0.25680000  0.89150000  0.42190000  1.0 -0.0618133425
C  C394  1  0.21980000  0.84810000  0.38750000  1.0 -0.0738378452
C  C395  1  0.22400000  0.81080000  0.38900000  1.0 0.0862300287
C  C396  1  0.17850000  0.84100000  0.35010000  1.0 0.5981135408
C  C397  1  0.00750000  0.47400000  0.35690000  1.0 -0.0039097462
C  C398  1  0.02080000  0.47340000  0.32660000  1.0 -0.1171375298
C  C399  1  0.06120000  0.50660000  0.34000000  1.0 -0.0873111804
C  C400  1  0.08970000  0.54400000  0.38550000  1.0 -0.0823606315
C  C401  1  0.07510000  0.54510000  0.41720000  1.0 0.0450204452
C  C402  1  0.13640000  0.57910000  0.40030000  1.0 0.5981135408
C  C403  1  0.20380000  0.65610000  0.56110000  1.0 0.0808463502
C  C404  1  0.20500000  0.65810000  0.60070000  1.0 -0.1436567845
C  C405  1  0.24320000  0.66510000  0.63470000  1.0 -0.0618133425
C  C406  1  0.28020000  0.66770000  0.62830000  1.0 -0.0738378452
C  C407  1  0.27600000  0.66500000  0.58680000  1.0 0.0862300287
C  C408  1  0.32150000  0.67160000  0.66250000  1.0 0.5981135408
C  C409  1  0.88290000  0.02600000  0.03350000  1.0 -0.0039097462
C  C410  1  0.85320000  0.02660000  0.04740000  1.0 -0.1171375298
C  C411  1  0.83340000  0.99340000  0.05460000  1.0 -0.0873111804
C  C412  1  0.84150000  0.95600000  0.04570000  1.0 -0.0823606315
C  C413  1  0.87210000  0.95490000  0.03000000  1.0 0.0450204452
C  C414  1  0.82120000  0.92090000  0.05730000  1.0 0.5981135408
C  C415  1  0.90500000  0.84390000  0.04770000  1.0 0.0808463502
C  C416  1  0.94260000  0.84190000  0.04690000  1.0 -0.1436567845
C  C417  1  0.96960000  0.83490000  0.07810000  1.0 -0.0618133425
C  C418  1  0.96060000  0.83230000  0.11250000  1.0 -0.0738378452
C  C419  1  0.92180000  0.83500000  0.11100000  1.0 0.0862300287
C  C420  1  0.99090000  0.82840000  0.14990000  1.0 0.5981135408
C  C421  1  0.61710000  0.65060000  0.14310000  1.0 -0.0039097462
C  C422  1  0.64680000  0.69420000  0.17340000  1.0 -0.1171375298
C  C423  1  0.66666667  0.72120000  0.16000000  1.0 -0.0873111804
C  C424  1  0.65850000  0.70420000  0.11450000  1.0 -0.0823606315
C  C425  1  0.62790000  0.65790000  0.08280000  1.0 0.0446284403
C  C426  1  0.67880000  0.73610000  0.09970000  1.0 0.5981135408
C  C427  1  0.59500000  0.64270000  0.93890000  1.0 0.0808463502
C  C428  1  0.55740000  0.60430000  0.89930000  1.0 -0.1436567845
C  C429  1  0.53040000  0.60850000  0.86530000  1.0 -0.0618133425
C  C430  1  0.53940000  0.65190000  0.87170000  1.0 -0.0738378452
C  C431  1  0.57820000  0.68920000  0.91320000  1.0 0.0862300287
C  C432  1  0.50910000  0.65900000  0.83750000  1.0 0.5981135408
C  C433  1  0.84940000  0.88290000  0.35690000  1.0 -0.0039097462
C  C434  1  0.80580000  0.85320000  0.32660000  1.0 -0.1171375298
C  C435  1  0.77880000  0.83340000  0.34000000  1.0 -0.0873111804
C  C436  1  0.79580000  0.84150000  0.38550000  1.0 -0.0823606315
C  C437  1  0.84210000  0.87210000  0.41720000  1.0 0.0450204452
C  C438  1  0.76390000  0.82120000  0.40030000  1.0 0.5981135408
C  C439  1  0.85730000  0.90500000  0.56110000  1.0 0.0808463502
C  C440  1  0.89570000  0.94260000  0.60070000  1.0 -0.1436567845
C  C441  1  0.89150000  0.96960000  0.63470000  1.0 -0.0618133425
C  C442  1  0.84810000  0.96060000  0.62830000  1.0 -0.0823606315
C  C443  1  0.81080000  0.92180000  0.58680000  1.0 0.0862300287
C  C444  1  0.84100000  0.99090000  0.66250000  1.0 0.5981135408
C  C445  1  0.47400000  0.61710000  0.46650000  1.0 -0.0039097462
C  C446  1  0.47340000  0.64680000  0.45260000  1.0 -0.1171375298
C  C447  1  0.50660000  0.66666667  0.44540000  1.0 -0.0873111804
C  C448  1  0.54400000  0.65850000  0.45430000  1.0 -0.0823606315
C  C449  1  0.54510000  0.62790000  0.47000000  1.0 0.0450204452
C  C450  1  0.57910000  0.67880000  0.44270000  1.0 0.5981135408
C  C451  1  0.65610000  0.59500000  0.45230000  1.0 0.0808463502
C  C452  1  0.65810000  0.55740000  0.45310000  1.0 -0.1436567845
C  C453  1  0.66510000  0.53040000  0.42190000  1.0 -0.0618133425
C  C454  1  0.66770000  0.53940000  0.38750000  1.0 -0.0738378452
C  C455  1  0.66500000  0.57820000  0.38900000  1.0 0.0862300287
C  C456  1  0.67160000  0.50910000  0.35010000  1.0 0.5981135408
C  C457  1  0.02600000  0.49250000  0.14310000  1.0 -0.0039097462
C  C458  1  0.02660000  0.47920000  0.17340000  1.0 -0.1171375298
C  C459  1  0.99340000  0.43880000  0.16000000  1.0 -0.0873111804
C  C460  1  0.95600000  0.41030000  0.11450000  1.0 -0.0823606315
C  C461  1  0.95490000  0.42490000  0.08280000  1.0 0.0450204452
C  C462  1  0.92090000  0.36360000  0.09970000  1.0 0.5981135408
C  C463  1  0.84390000  0.29620000  0.93890000  1.0 0.0808463502
C  C464  1  0.84190000  0.29500000  0.89930000  1.0 -0.1436567845
C  C465  1  0.83490000  0.25680000  0.86530000  1.0 -0.0618133425
C  C466  1  0.83230000  0.21980000  0.87170000  1.0 -0.0738378452
C  C467  1  0.83500000  0.22400000  0.91320000  1.0 0.0862300287
C  C468  1  0.82840000  0.17850000  0.83750000  1.0 0.5981135408
C  C469  1  0.65060000  0.00750000  0.03350000  1.0 -0.0039097462
C  C470  1  0.69420000  0.02080000  0.04740000  1.0 -0.1171375298
C  C471  1  0.72120000  0.06120000  0.05460000  1.0 -0.0873111804
C  C472  1  0.70420000  0.08970000  0.04570000  1.0 -0.0823606315
C  C473  1  0.65790000  0.07510000  0.03000000  1.0 0.0450204452
C  C474  1  0.73610000  0.13640000  0.05730000  1.0 0.5981135408
C  C475  1  0.64270000  0.20380000  0.04770000  1.0 0.0808463502
C  C476  1  0.60430000  0.20500000  0.04690000  1.0 -0.1436567845
C  C477  1  0.60850000  0.24320000  0.07810000  1.0 -0.0618133425
C  C478  1  0.65190000  0.28020000  0.11250000  1.0 -0.0738378452
C  C479  1  0.68920000  0.27600000  0.11100000  1.0 0.0862300287
C  C480  1  0.65900000  0.32150000  0.14990000  1.0 0.5981135408
C  C481  1  0.61710000  0.46650000  0.47400000  1.0 -0.0039097462
C  C482  1  0.64680000  0.45260000  0.47340000  1.0 -0.1171375298
C  C483  1  0.66666667  0.44540000  0.50660000  1.0 -0.0873111804
C  C484  1  0.65850000  0.45430000  0.54400000  1.0 -0.0823606315
C  C485  1  0.62790000  0.47000000  0.54510000  1.0 0.0450204452
C  C486  1  0.67880000  0.44270000  0.57910000  1.0 0.5981135408
C  C487  1  0.59500000  0.45230000  0.65610000  1.0 0.0808463502
C  C488  1  0.55740000  0.45310000  0.65810000  1.0 -0.1436567845
C  C489  1  0.53040000  0.42190000  0.66510000  1.0 -0.0618133425
C  C490  1  0.53940000  0.38750000  0.66770000  1.0 -0.0738378452
C  C491  1  0.57820000  0.38900000  0.66500000  1.0 0.0862300287
C  C492  1  0.50910000  0.35010000  0.67160000  1.0 0.5981135408
C  C493  1  0.88290000  0.35690000  0.84940000  1.0 -0.0051662776
C  C494  1  0.85320000  0.32660000  0.80580000  1.0 -0.1171375298
C  C495  1  0.83340000  0.34000000  0.77880000  1.0 -0.0873111804
C  C496  1  0.84150000  0.38550000  0.79580000  1.0 -0.0823606315
C  C497  1  0.87210000  0.41720000  0.84210000  1.0 0.0450204452
C  C498  1  0.82120000  0.40030000  0.76390000  1.0 0.5981135408
C  C499  1  0.90500000  0.56110000  0.85730000  1.0 0.0808463502
C  C500  1  0.94260000  0.60070000  0.89570000  1.0 -0.1436567845
C  C501  1  0.96960000  0.63470000  0.89150000  1.0 -0.0618133425
C  C502  1  0.96060000  0.62830000  0.84810000  1.0 -0.0738378452
C  C503  1  0.92180000  0.58680000  0.81080000  1.0 0.0862300287
C  C504  1  0.99090000  0.66250000  0.84100000  1.0 0.5981135408
C  C505  1  0.00750000  0.03350000  0.65060000  1.0 -0.0039097462
C  C506  1  0.02080000  0.04740000  0.69420000  1.0 -0.1171375298
C  C507  1  0.06120000  0.05460000  0.72120000  1.0 -0.0873111804
C  C508  1  0.08970000  0.04570000  0.70420000  1.0 -0.0823606315
C  C509  1  0.07510000  0.03000000  0.65790000  1.0 0.0446284403
C  C510  1  0.13640000  0.05730000  0.73610000  1.0 0.5981135408
C  C511  1  0.20380000  0.04770000  0.64270000  1.0 0.0808463502
C  C512  1  0.20500000  0.04690000  0.60430000  1.0 -0.1436567845
C  C513  1  0.24320000  0.07810000  0.60850000  1.0 -0.0618133425
C  C514  1  0.28020000  0.11250000  0.65190000  1.0 -0.0738378452
C  C515  1  0.27600000  0.11100000  0.68920000  1.0 0.0862300287
C  C516  1  0.32150000  0.14990000  0.65900000  1.0 0.5981135408
C  C517  1  0.49250000  0.14310000  0.02600000  1.0 -0.0039097462
C  C518  1  0.47920000  0.17340000  0.02660000  1.0 -0.1171375298
C  C519  1  0.43880000  0.16000000  0.99340000  1.0 -0.0873111804
C  C520  1  0.41030000  0.11450000  0.95600000  1.0 -0.0823606315
C  C521  1  0.42490000  0.08280000  0.95490000  1.0 0.0450204452
C  C522  1  0.36360000  0.09970000  0.92090000  1.0 0.5981135408
C  C523  1  0.29620000  0.93890000  0.84390000  1.0 0.0808463502
C  C524  1  0.29500000  0.89930000  0.84190000  1.0 -0.1436567845
C  C525  1  0.25680000  0.86530000  0.83490000  1.0 -0.0618133425
C  C526  1  0.21980000  0.87170000  0.83230000  1.0 -0.0738378452
C  C527  1  0.22400000  0.91320000  0.83500000  1.0 0.0862300287
C  C528  1  0.17850000  0.83750000  0.82840000  1.0 0.5981135408
C  C529  1  0.03350000  0.65060000  0.00750000  1.0 -0.0039097462
C  C530  1  0.04740000  0.69420000  0.02080000  1.0 -0.1171375298
C  C531  1  0.05460000  0.72120000  0.06120000  1.0 -0.0873111804
C  C532  1  0.04570000  0.70420000  0.08970000  1.0 -0.0823606315
C  C533  1  0.03000000  0.65790000  0.07510000  1.0 0.0446284403
C  C534  1  0.05730000  0.73610000  0.13640000  1.0 0.5981135408
C  C535  1  0.04770000  0.64270000  0.20380000  1.0 0.0808463502
C  C536  1  0.04690000  0.60430000  0.20500000  1.0 -0.1436567845
C  C537  1  0.07810000  0.60850000  0.24320000  1.0 -0.0618133425
C  C538  1  0.11250000  0.65190000  0.28020000  1.0 -0.0738378452
C  C539  1  0.11100000  0.68920000  0.27600000  1.0 0.0862300287
C  C540  1  0.14990000  0.65900000  0.32150000  1.0 0.5981135408
C  C541  1  0.14310000  0.02600000  0.49250000  1.0 -0.0039097462
C  C542  1  0.17340000  0.02660000  0.47920000  1.0 -0.1171375298
C  C543  1  0.16000000  0.99340000  0.43880000  1.0 -0.0873111804
C  C544  1  0.11450000  0.95600000  0.41030000  1.0 -0.0823606315
C  C545  1  0.08280000  0.95490000  0.42490000  1.0 0.0450204452
C  C546  1  0.09970000  0.92090000  0.36360000  1.0 0.5981135408
C  C547  1  0.93890000  0.84390000  0.29620000  1.0 0.0808463502
C  C548  1  0.89930000  0.84190000  0.29500000  1.0 -0.1436567845
C  C549  1  0.86530000  0.83490000  0.25680000  1.0 -0.0618133425
C  C550  1  0.87170000  0.83230000  0.21980000  1.0 -0.0738378452
C  C551  1  0.91320000  0.83500000  0.22400000  1.0 0.0862300287
C  C552  1  0.83750000  0.82840000  0.17850000  1.0 0.5981135408
C  C553  1  0.46650000  0.47400000  0.61710000  1.0 -0.0039097462
C  C554  1  0.45260000  0.47340000  0.64680000  1.0 -0.1171375298
C  C555  1  0.44540000  0.50660000  0.66666667  1.0 -0.0873111804
C  C556  1  0.45430000  0.54400000  0.65850000  1.0 -0.0823606315
C  C557  1  0.47000000  0.54510000  0.62790000  1.0 0.0450204452
C  C558  1  0.44270000  0.57910000  0.67880000  1.0 0.5981135408
C  C559  1  0.45230000  0.65610000  0.59500000  1.0 0.0808463502
C  C560  1  0.45310000  0.65810000  0.55740000  1.0 -0.1436567845
C  C561  1  0.42190000  0.66510000  0.53040000  1.0 -0.0618133425
C  C562  1  0.38750000  0.66770000  0.53940000  1.0 -0.0738378452
C  C563  1  0.38900000  0.66500000  0.57820000  1.0 0.0862300287
C  C564  1  0.35010000  0.67160000  0.50910000  1.0 0.5981135408
C  C565  1  0.35690000  0.84940000  0.88290000  1.0 -0.0039097462
C  C566  1  0.32660000  0.80580000  0.85320000  1.0 -0.1171375298
C  C567  1  0.34000000  0.77880000  0.83340000  1.0 -0.0873111804
C  C568  1  0.38550000  0.79580000  0.84150000  1.0 -0.0823606315
C  C569  1  0.41720000  0.84210000  0.87210000  1.0 0.0450204452
C  C570  1  0.40030000  0.76390000  0.82120000  1.0 0.5981135408
C  C571  1  0.56110000  0.85730000  0.90500000  1.0 0.0808463502
C  C572  1  0.60070000  0.89570000  0.94260000  1.0 -0.1436567845
C  C573  1  0.63470000  0.89150000  0.96960000  1.0 -0.0618133425
C  C574  1  0.62830000  0.84810000  0.96060000  1.0 -0.0738378452
C  C575  1  0.58680000  0.81080000  0.92180000  1.0 0.0862300287
C  C576  1  0.66250000  0.84100000  0.99090000  1.0 0.5981135408
N  N1  1  0.90320000  0.39320000  0.37040000  1.0 -0.2589287457
N  N2  1  0.05450000  0.39540000  0.31490000  1.0 -0.3928012225
N  N3  1  0.97720000  0.10680000  0.01000000  1.0 -0.2589287457
N  N4  1  0.91950000  0.10460000  0.15910000  1.0 -0.3928012225
N  N5  1  0.59680000  0.96720000  0.49000000  1.0 -0.2589287457
N  N6  1  0.44550000  0.76040000  0.34090000  1.0 -0.3928012225
N  N7  1  0.52280000  0.53280000  0.12960000  1.0 -0.2589287457
N  N8  1  0.58050000  0.73960000  0.18510000  1.0 -0.3928012225
N  N9  1  0.01000000  0.97720000  0.10680000  1.0 -0.2589287457
N  N10  1  0.15910000  0.91950000  0.10460000  1.0 -0.3928012225
N  N11  1  0.37040000  0.90320000  0.39320000  1.0 -0.2589287457
N  N12  1  0.31490000  0.05450000  0.39540000  1.0 -0.3928012225
N  N13  1  0.12960000  0.52280000  0.53280000  1.0 -0.2589287457
N  N14  1  0.18510000  0.58050000  0.73960000  1.0 -0.3928012225
N  N15  1  0.49000000  0.59680000  0.96720000  1.0 -0.2589287457
N  N16  1  0.34090000  0.44550000  0.76040000  1.0 -0.3928012225
N  N17  1  0.53280000  0.12960000  0.52280000  1.0 -0.2589287457
N  N18  1  0.73960000  0.18510000  0.58050000  1.0 -0.3928012225
N  N19  1  0.96720000  0.49000000  0.59680000  1.0 -0.2589287457
N  N20  1  0.76040000  0.34090000  0.44550000  1.0 -0.3928012225
N  N21  1  0.10680000  0.01000000  0.97720000  1.0 -0.2589287457
N  N22  1  0.10460000  0.15910000  0.91950000  1.0 -0.3928012225
N  N23  1  0.39320000  0.37040000  0.90320000  1.0 -0.2589287457
N  N24  1  0.39540000  0.31490000  0.05450000  1.0 -0.3928012225
N  N25  1  0.12960000  0.10680000  0.59680000  1.0 -0.2589287457
N  N26  1  0.18510000  0.10460000  0.44550000  1.0 -0.3928012225
N  N27  1  0.49000000  0.39320000  0.52280000  1.0 -0.2589287457
N  N28  1  0.34090000  0.39540000  0.58050000  1.0 -0.3928012225
N  N29  1  0.01000000  0.53280000  0.90320000  1.0 -0.2589287457
N  N30  1  0.15910000  0.73960000  0.05450000  1.0 -0.3928012225
N  N31  1  0.37040000  0.96720000  0.97720000  1.0 -0.2589287457
N  N32  1  0.31490000  0.76040000  0.91950000  1.0 -0.3928012225
N  N33  1  0.39320000  0.52280000  0.49000000  1.0 -0.2589287457
N  N34  1  0.39540000  0.58050000  0.34090000  1.0 -0.3928012225
N  N35  1  0.10680000  0.59680000  0.12960000  1.0 -0.2589287457
N  N36  1  0.10460000  0.44550000  0.18510000  1.0 -0.3928012225
N  N37  1  0.96720000  0.97720000  0.37040000  1.0 -0.2589287457
N  N38  1  0.76040000  0.91950000  0.31490000  1.0 -0.3928012225
N  N39  1  0.53280000  0.90320000  0.01000000  1.0 -0.2589287457
N  N40  1  0.73960000  0.05450000  0.15910000  1.0 -0.3928012225
N  N41  1  0.97720000  0.37040000  0.96720000  1.0 -0.2589287457
N  N42  1  0.91950000  0.31490000  0.76040000  1.0 -0.3928012225
N  N43  1  0.90320000  0.01000000  0.53280000  1.0 -0.2589287457
N  N44  1  0.05450000  0.15910000  0.73960000  1.0 -0.3928012225
N  N45  1  0.52280000  0.49000000  0.39320000  1.0 -0.2589287457
N  N46  1  0.58050000  0.34090000  0.39540000  1.0 -0.3928012225
N  N47  1  0.59680000  0.12960000  0.10680000  1.0 -0.2589287457
N  N48  1  0.44550000  0.18510000  0.10460000  1.0 -0.3928012225
N  N49  1  0.09680000  0.60680000  0.62960000  1.0 -0.2589287457
N  N50  1  0.94550000  0.60460000  0.68510000  1.0 -0.3928012225
N  N51  1  0.02280000  0.89320000  0.99000000  1.0 -0.2589287457
N  N52  1  0.08050000  0.89540000  0.84090000  1.0 -0.3928012225
N  N53  1  0.40320000  0.03280000  0.51000000  1.0 -0.2589287457
N  N54  1  0.55450000  0.23960000  0.65910000  1.0 -0.3928012225
N  N55  1  0.47720000  0.46720000  0.87040000  1.0 -0.2589287457
N  N56  1  0.41950000  0.26040000  0.81490000  1.0 -0.3928012225
N  N57  1  0.99000000  0.02280000  0.89320000  1.0 -0.2589287457
N  N58  1  0.84090000  0.08050000  0.89540000  1.0 -0.3928012225
N  N59  1  0.62960000  0.09680000  0.60680000  1.0 -0.2589287457
N  N60  1  0.68510000  0.94550000  0.60460000  1.0 -0.3928012225
N  N61  1  0.87040000  0.47720000  0.46720000  1.0 -0.2589287457
N  N62  1  0.81490000  0.41950000  0.26040000  1.0 -0.3928012225
N  N63  1  0.51000000  0.40320000  0.03280000  1.0 -0.2589287457
N  N64  1  0.65910000  0.55450000  0.23960000  1.0 -0.3928012225
N  N65  1  0.46720000  0.87040000  0.47720000  1.0 -0.2589287457
N  N66  1  0.26040000  0.81490000  0.41950000  1.0 -0.3928012225
N  N67  1  0.03280000  0.51000000  0.40320000  1.0 -0.2589287457
N  N68  1  0.23960000  0.65910000  0.55450000  1.0 -0.3928012225
N  N69  1  0.89320000  0.99000000  0.02280000  1.0 -0.2589287457
N  N70  1  0.89540000  0.84090000  0.08050000  1.0 -0.3928012225
N  N71  1  0.60680000  0.62960000  0.09680000  1.0 -0.2589287457
N  N72  1  0.60460000  0.68510000  0.94550000  1.0 -0.3928012225
N  N73  1  0.87040000  0.89320000  0.40320000  1.0 -0.2589287457
N  N74  1  0.81490000  0.89540000  0.55450000  1.0 -0.3928012225
N  N75  1  0.51000000  0.60680000  0.47720000  1.0 -0.2589287457
N  N76  1  0.65910000  0.60460000  0.41950000  1.0 -0.3928012225
N  N77  1  0.99000000  0.46720000  0.09680000  1.0 -0.2589287457
N  N78  1  0.84090000  0.26040000  0.94550000  1.0 -0.3928012225
N  N79  1  0.62960000  0.03280000  0.02280000  1.0 -0.2589287457
N  N80  1  0.68510000  0.23960000  0.08050000  1.0 -0.3928012225
N  N81  1  0.60680000  0.47720000  0.51000000  1.0 -0.2589287457
N  N82  1  0.60460000  0.41950000  0.65910000  1.0 -0.3928012225
N  N83  1  0.89320000  0.40320000  0.87040000  1.0 -0.2589287457
N  N84  1  0.89540000  0.55450000  0.81490000  1.0 -0.3928012225
N  N85  1  0.03280000  0.02280000  0.62960000  1.0 -0.2589287457
N  N86  1  0.23960000  0.08050000  0.68510000  1.0 -0.3928012225
N  N87  1  0.46720000  0.09680000  0.99000000  1.0 -0.2589287457
N  N88  1  0.26040000  0.94550000  0.84090000  1.0 -0.3928012225
N  N89  1  0.02280000  0.62960000  0.03280000  1.0 -0.2589287457
N  N90  1  0.08050000  0.68510000  0.23960000  1.0 -0.3928012225
N  N91  1  0.09680000  0.99000000  0.46720000  1.0 -0.2589287457
N  N92  1  0.94550000  0.84090000  0.26040000  1.0 -0.3928012225
N  N93  1  0.47720000  0.51000000  0.60680000  1.0 -0.2589287457
N  N94  1  0.41950000  0.65910000  0.60460000  1.0 -0.3928012225
N  N95  1  0.40320000  0.87040000  0.89320000  1.0 -0.2589287457
N  N96  1  0.55450000  0.81490000  0.89540000  1.0 -0.3928012225
O  O1  1  0.91976000  0.29541000  0.17265000  1.0 -1.0360257561
O  O2  1  0.86790000  0.28980000  0.22270000  1.0 -0.5470274064
O  O3  1  0.19743000  0.52593000  0.37530000  1.0 -0.5176776534
O  O4  1  0.97130000  0.25360000  0.17630000  1.0 -1.1388772488
O  O5  1  0.94290000  0.33580000  0.27850000  1.0 -0.6500662656
O  O6  1  0.15210000  0.47880000  0.29950000  1.0 -0.6500662656
O  O7  1  0.87724000  0.20459000  0.12435000  1.0 -1.0360257561
O  O8  1  0.93290000  0.21020000  0.07810000  1.0 -0.5470274064
O  O9  1  0.84937000  0.97407000  0.17150000  1.0 -0.5176776534
O  O10  1  0.92270000  0.24640000  0.21770000  1.0 -1.1388772488
O  O11  1  0.94270000  0.16420000  0.10710000  1.0 -0.6500662656
O  O12  1  0.82070000  0.02120000  0.17330000  1.0 -0.6500662656
O  O13  1  0.58024000  0.75289000  0.37565000  1.0 -1.0360257561
O  O14  1  0.63210000  0.85480000  0.42190000  1.0 -0.5470274064
O  O15  1  0.30257000  0.67787000  0.32850000  1.0 -0.5176776534
O  O16  1  0.52870000  0.70500000  0.28230000  1.0 -1.1388772488
O  O17  1  0.55710000  0.83560000  0.39290000  1.0 -0.6500662656
O  O18  1  0.34790000  0.64740000  0.32670000  1.0 -0.6500662656
O  O19  1  0.62276000  0.74711000  0.32735000  1.0 -1.0360257561
O  O20  1  0.56710000  0.64520000  0.27730000  1.0 -0.5470274064
O  O21  1  0.65063000  0.82213000  0.12470000  1.0 -0.5176776534
O  O22  1  0.57730000  0.79500000  0.32370000  1.0 -1.1388772488
O  O23  1  0.55730000  0.66440000  0.22150000  1.0 -0.6500662656
O  O24  1  0.67930000  0.85260000  0.20050000  1.0 -0.6500662656
O  O25  1  0.12435000  0.87724000  0.20459000  1.0 -1.0360257561
O  O26  1  0.07810000  0.93290000  0.21020000  1.0 -0.5470274064
O  O27  1  0.17150000  0.84937000  0.97407000  1.0 -0.5176776534
O  O28  1  0.21770000  0.92270000  0.24640000  1.0 -1.1388772488
O  O29  1  0.10710000  0.94270000  0.16420000  1.0 -0.6500662656
O  O30  1  0.17330000  0.82070000  0.02120000  1.0 -0.6500662656
O  O31  1  0.17265000  0.91976000  0.29541000  1.0 -1.0360257561
O  O32  1  0.22270000  0.86790000  0.28980000  1.0 -0.5470274064
O  O33  1  0.37530000  0.19743000  0.52593000  1.0 -0.5176776534
O  O34  1  0.17630000  0.97130000  0.25360000  1.0 -1.1388772488
O  O35  1  0.27850000  0.94290000  0.33580000  1.0 -0.6500662656
O  O36  1  0.29950000  0.15210000  0.47880000  1.0 -0.6500662656
O  O37  1  0.32735000  0.62276000  0.74711000  1.0 -1.0360257561
O  O38  1  0.27730000  0.56710000  0.64520000  1.0 -0.5470274064
O  O39  1  0.12470000  0.65063000  0.82213000  1.0 -0.5176776534
O  O40  1  0.32370000  0.57730000  0.79500000  1.0 -1.1388772488
O  O41  1  0.22150000  0.55730000  0.66440000  1.0 -0.6500662656
O  O42  1  0.20050000  0.67930000  0.85260000  1.0 -0.6500662656
O  O43  1  0.37565000  0.58024000  0.75289000  1.0 -1.0360257561
O  O44  1  0.42190000  0.63210000  0.85480000  1.0 -0.5470274064
O  O45  1  0.32850000  0.30257000  0.67787000  1.0 -0.5176776534
O  O46  1  0.28230000  0.52870000  0.70500000  1.0 -1.1388772488
O  O47  1  0.39290000  0.55710000  0.83560000  1.0 -0.6500662656
O  O48  1  0.32670000  0.34790000  0.64740000  1.0 -0.6500662656
O  O49  1  0.74711000  0.32735000  0.62276000  1.0 -1.0360257561
O  O50  1  0.64520000  0.27730000  0.56710000  1.0 -0.5470274064
O  O51  1  0.82213000  0.12470000  0.65063000  1.0 -0.5176776534
O  O52  1  0.79500000  0.32370000  0.57730000  1.0 -1.1388772488
O  O53  1  0.66440000  0.22150000  0.55730000  1.0 -0.6500662656
O  O54  1  0.85260000  0.20050000  0.67930000  1.0 -0.6500662656
O  O55  1  0.75289000  0.37565000  0.58024000  1.0 -1.0360257561
O  O56  1  0.85480000  0.42190000  0.63210000  1.0 -0.5470274064
O  O57  1  0.67787000  0.32850000  0.30257000  1.0 -0.5176776534
O  O58  1  0.70500000  0.28230000  0.52870000  1.0 -1.1388772488
O  O59  1  0.83560000  0.39290000  0.55710000  1.0 -0.6500662656
O  O60  1  0.64740000  0.32670000  0.34790000  1.0 -0.6500662656
O  O61  1  0.20459000  0.12435000  0.87724000  1.0 -1.0360257561
O  O62  1  0.21020000  0.07810000  0.93290000  1.0 -0.5470274064
O  O63  1  0.97407000  0.17150000  0.84937000  1.0 -0.5176776534
O  O64  1  0.24640000  0.21770000  0.92270000  1.0 -1.1388772488
O  O65  1  0.16420000  0.10710000  0.94270000  1.0 -0.6500662656
O  O66  1  0.02120000  0.17330000  0.82070000  1.0 -0.6500662656
O  O67  1  0.29541000  0.17265000  0.91976000  1.0 -1.0360257561
O  O68  1  0.28980000  0.22270000  0.86790000  1.0 -0.5470274064
O  O69  1  0.52593000  0.37530000  0.19743000  1.0 -0.5176776534
O  O70  1  0.25360000  0.17630000  0.97130000  1.0 -1.1388772488
O  O71  1  0.33580000  0.27850000  0.94290000  1.0 -0.6500662656
O  O72  1  0.47880000  0.29950000  0.15210000  1.0 -0.6500662656
O  O73  1  0.32735000  0.20459000  0.58024000  1.0 -1.0360257561
O  O74  1  0.27730000  0.21020000  0.63210000  1.0 -0.5470274064
O  O75  1  0.12470000  0.97407000  0.30257000  1.0 -0.5176776534
O  O76  1  0.32370000  0.24640000  0.52870000  1.0 -1.1388772488
O  O77  1  0.22150000  0.16420000  0.55710000  1.0 -0.6500662656
O  O78  1  0.20050000  0.02120000  0.34790000  1.0 -0.6500662656
O  O79  1  0.37565000  0.29541000  0.62276000  1.0 -1.0360257561
O  O80  1  0.42190000  0.28980000  0.56710000  1.0 -0.5470274064
O  O81  1  0.32850000  0.52593000  0.65063000  1.0 -0.5176776534
O  O82  1  0.28230000  0.25360000  0.57730000  1.0 -1.1388772488
O  O83  1  0.39290000  0.33580000  0.55730000  1.0 -0.6500662656
O  O84  1  0.32670000  0.47880000  0.67930000  1.0 -0.6500662656
O  O85  1  0.12435000  0.74711000  0.91976000  1.0 -1.0360257561
O  O86  1  0.07810000  0.64520000  0.86790000  1.0 -0.5470274064
O  O87  1  0.17150000  0.82213000  0.19743000  1.0 -0.5176776534
O  O88  1  0.21770000  0.79500000  0.97130000  1.0 -1.1388772488
O  O89  1  0.10710000  0.66440000  0.94290000  1.0 -0.6500662656
O  O90  1  0.17330000  0.85260000  0.15210000  1.0 -0.6500662656
O  O91  1  0.17265000  0.75289000  0.87724000  1.0 -1.0360257561
O  O92  1  0.22270000  0.85480000  0.93290000  1.0 -0.5470274064
O  O93  1  0.37530000  0.67787000  0.84937000  1.0 -0.5176776534
O  O94  1  0.17630000  0.70500000  0.92270000  1.0 -1.1388772488
O  O95  1  0.27850000  0.83560000  0.94270000  1.0 -0.6500662656
O  O96  1  0.29950000  0.64740000  0.82070000  1.0 -0.6500662656
O  O97  1  0.29541000  0.62276000  0.37565000  1.0 -1.0360257561
O  O98  1  0.28980000  0.56710000  0.42190000  1.0 -0.5470274064
O  O99  1  0.52593000  0.65063000  0.32850000  1.0 -0.5176776534
O  O100  1  0.25360000  0.57730000  0.28230000  1.0 -1.1388772488
O  O101  1  0.33580000  0.55730000  0.39290000  1.0 -0.6500662656
O  O102  1  0.47880000  0.67930000  0.32670000  1.0 -0.6500662656
O  O103  1  0.20459000  0.58024000  0.32735000  1.0 -1.0360257561
O  O104  1  0.21020000  0.63210000  0.27730000  1.0 -0.5470274064
O  O105  1  0.97407000  0.30257000  0.12470000  1.0 -0.5176776534
O  O106  1  0.24640000  0.52870000  0.32370000  1.0 -1.1388772488
O  O107  1  0.16420000  0.55710000  0.22150000  1.0 -0.6500662656
O  O108  1  0.02120000  0.34790000  0.20050000  1.0 -0.6500662656
O  O109  1  0.75289000  0.87724000  0.17265000  1.0 -1.0360257561
O  O110  1  0.85480000  0.93290000  0.22270000  1.0 -0.5470274064
O  O111  1  0.67787000  0.84937000  0.37530000  1.0 -0.5176776534
O  O112  1  0.70500000  0.92270000  0.17630000  1.0 -1.1388772488
O  O113  1  0.83560000  0.94270000  0.27850000  1.0 -0.6500662656
O  O114  1  0.64740000  0.82070000  0.29950000  1.0 -0.6500662656
O  O115  1  0.74711000  0.91976000  0.12435000  1.0 -1.0360257561
O  O116  1  0.64520000  0.86790000  0.07810000  1.0 -0.5470274064
O  O117  1  0.82213000  0.19743000  0.17150000  1.0 -0.5176776534
O  O118  1  0.79500000  0.97130000  0.21770000  1.0 -1.1388772488
O  O119  1  0.66440000  0.94290000  0.10710000  1.0 -0.6500662656
O  O120  1  0.85260000  0.15210000  0.17330000  1.0 -0.6500662656
O  O121  1  0.87724000  0.17265000  0.75289000  1.0 -1.0360257561
O  O122  1  0.93290000  0.22270000  0.85480000  1.0 -0.5470274064
O  O123  1  0.84937000  0.37530000  0.67787000  1.0 -0.5176776534
O  O124  1  0.92270000  0.17630000  0.70500000  1.0 -1.1388772488
O  O125  1  0.94270000  0.27850000  0.83560000  1.0 -0.6500662656
O  O126  1  0.82070000  0.29950000  0.64740000  1.0 -0.6500662656
O  O127  1  0.91976000  0.12435000  0.74711000  1.0 -1.0360257561
O  O128  1  0.86790000  0.07810000  0.64520000  1.0 -0.5470274064
O  O129  1  0.19743000  0.17150000  0.82213000  1.0 -0.5176776534
O  O130  1  0.97130000  0.21770000  0.79500000  1.0 -1.1388772488
O  O131  1  0.94290000  0.10710000  0.66440000  1.0 -0.6500662656
O  O132  1  0.15210000  0.17330000  0.85260000  1.0 -0.6500662656
O  O133  1  0.62276000  0.37565000  0.29541000  1.0 -1.0360257561
O  O134  1  0.56710000  0.42190000  0.28980000  1.0 -0.5470274064
O  O135  1  0.65063000  0.32850000  0.52593000  1.0 -0.5176776534
O  O136  1  0.57730000  0.28230000  0.25360000  1.0 -1.1388772488
O  O137  1  0.55730000  0.39290000  0.33580000  1.0 -0.6500662656
O  O138  1  0.67930000  0.32670000  0.47880000  1.0 -0.6500662656
O  O139  1  0.58024000  0.32735000  0.20459000  1.0 -1.0360257561
O  O140  1  0.63210000  0.27730000  0.21020000  1.0 -0.5470274064
O  O141  1  0.30257000  0.12470000  0.97407000  1.0 -0.5176776534
O  O142  1  0.52870000  0.32370000  0.24640000  1.0 -1.1388772488
O  O143  1  0.55710000  0.22150000  0.16420000  1.0 -0.6500662656
O  O144  1  0.34790000  0.20050000  0.02120000  1.0 -0.6500662656
O  O145  1  0.08024000  0.70459000  0.82735000  1.0 -1.0360257561
O  O146  1  0.13210000  0.71020000  0.77730000  1.0 -0.5470274064
O  O147  1  0.80257000  0.47407000  0.62470000  1.0 -0.5176776534
O  O148  1  0.02870000  0.74640000  0.82370000  1.0 -1.1388772488
O  O149  1  0.05710000  0.66420000  0.72150000  1.0 -0.6500662656
O  O150  1  0.84790000  0.52120000  0.70050000  1.0 -0.6500662656
O  O151  1  0.12276000  0.79541000  0.87565000  1.0 -1.0360257561
O  O152  1  0.06710000  0.78980000  0.92190000  1.0 -0.5470274064
O  O153  1  0.15063000  0.02593000  0.82850000  1.0 -0.5176776534
O  O154  1  0.07730000  0.75360000  0.78230000  1.0 -1.1388772488
O  O155  1  0.05730000  0.83580000  0.89290000  1.0 -0.6500662656
O  O156  1  0.17930000  0.97880000  0.82670000  1.0 -0.6500662656
O  O157  1  0.41976000  0.24711000  0.62435000  1.0 -1.0360257561
O  O158  1  0.36790000  0.14520000  0.57810000  1.0 -0.5470274064
O  O159  1  0.69743000  0.32213000  0.67150000  1.0 -0.5176776534
O  O160  1  0.47130000  0.29500000  0.71770000  1.0 -1.1388772488
O  O161  1  0.44290000  0.16440000  0.60710000  1.0 -0.6500662656
O  O162  1  0.65210000  0.35260000  0.67330000  1.0 -0.6500662656
O  O163  1  0.37724000  0.25289000  0.67265000  1.0 -1.0360257561
O  O164  1  0.43290000  0.35480000  0.72270000  1.0 -0.5470274064
O  O165  1  0.34937000  0.17787000  0.87530000  1.0 -0.5176776534
O  O166  1  0.42270000  0.20500000  0.67630000  1.0 -1.1388772488
O  O167  1  0.44270000  0.33560000  0.77850000  1.0 -0.6500662656
O  O168  1  0.32070000  0.14740000  0.79950000  1.0 -0.6500662656
O  O169  1  0.87565000  0.12276000  0.79541000  1.0 -1.0360257561
O  O170  1  0.92190000  0.06710000  0.78980000  1.0 -0.5470274064
O  O171  1  0.82850000  0.15063000  0.02593000  1.0 -0.5176776534
O  O172  1  0.78230000  0.07730000  0.75360000  1.0 -1.1388772488
O  O173  1  0.89290000  0.05730000  0.83580000  1.0 -0.6500662656
O  O174  1  0.82670000  0.17930000  0.97880000  1.0 -0.6500662656
O  O175  1  0.82735000  0.08024000  0.70459000  1.0 -1.0360257561
O  O176  1  0.77730000  0.13210000  0.71020000  1.0 -0.5470274064
O  O177  1  0.62470000  0.80257000  0.47407000  1.0 -0.5176776534
O  O178  1  0.82370000  0.02870000  0.74640000  1.0 -1.1388772488
O  O179  1  0.72150000  0.05710000  0.66420000  1.0 -0.6500662656
O  O180  1  0.70050000  0.84790000  0.52120000  1.0 -0.6500662656
O  O181  1  0.67265000  0.37724000  0.25289000  1.0 -1.0360257561
O  O182  1  0.72270000  0.43290000  0.35480000  1.0 -0.5470274064
O  O183  1  0.87530000  0.34937000  0.17787000  1.0 -0.5176776534
O  O184  1  0.67630000  0.42270000  0.20500000  1.0 -1.1388772488
O  O185  1  0.77850000  0.44270000  0.33560000  1.0 -0.6500662656
O  O186  1  0.79950000  0.32070000  0.14740000  1.0 -0.6500662656
O  O187  1  0.62435000  0.41976000  0.24711000  1.0 -1.0360257561
O  O188  1  0.57810000  0.36790000  0.14520000  1.0 -0.5470274064
O  O189  1  0.67150000  0.69743000  0.32213000  1.0 -0.5176776534
O  O190  1  0.71770000  0.47130000  0.29500000  1.0 -1.1388772488
O  O191  1  0.60710000  0.44290000  0.16440000  1.0 -0.6500662656
O  O192  1  0.67330000  0.65210000  0.35260000  1.0 -0.6500662656
O  O193  1  0.25289000  0.67265000  0.37724000  1.0 -1.0360257561
O  O194  1  0.35480000  0.72270000  0.43290000  1.0 -0.5470274064
O  O195  1  0.17787000  0.87530000  0.34937000  1.0 -0.5176776534
O  O196  1  0.20500000  0.67630000  0.42270000  1.0 -1.1388772488
O  O197  1  0.33560000  0.77850000  0.44270000  1.0 -0.6500662656
O  O198  1  0.14740000  0.79950000  0.32070000  1.0 -0.6500662656
O  O199  1  0.24711000  0.62435000  0.41976000  1.0 -1.0360257561
O  O200  1  0.14520000  0.57810000  0.36790000  1.0 -0.5470274064
O  O201  1  0.32213000  0.67150000  0.69743000  1.0 -0.5176776534
O  O202  1  0.29500000  0.71770000  0.47130000  1.0 -1.1388772488
O  O203  1  0.16440000  0.60710000  0.44290000  1.0 -0.6500662656
O  O204  1  0.35260000  0.67330000  0.65210000  1.0 -0.6500662656
O  O205  1  0.79541000  0.87565000  0.12276000  1.0 -1.0360257561
O  O206  1  0.78980000  0.92190000  0.06710000  1.0 -0.5470274064
O  O207  1  0.02593000  0.82850000  0.15063000  1.0 -0.5176776534
O  O208  1  0.75360000  0.78230000  0.07730000  1.0 -1.1388772488
O  O209  1  0.83580000  0.89290000  0.05730000  1.0 -0.6500662656
O  O210  1  0.97880000  0.82670000  0.17930000  1.0 -0.6500662656
O  O211  1  0.70459000  0.82735000  0.08024000  1.0 -1.0360257561
O  O212  1  0.71020000  0.77730000  0.13210000  1.0 -0.5470274064
O  O213  1  0.47407000  0.62470000  0.80257000  1.0 -0.5176776534
O  O214  1  0.74640000  0.82370000  0.02870000  1.0 -1.1388772488
O  O215  1  0.66420000  0.72150000  0.05710000  1.0 -0.6500662656
O  O216  1  0.52120000  0.70050000  0.84790000  1.0 -0.6500662656
O  O217  1  0.67265000  0.79541000  0.41976000  1.0 -1.0360257561
O  O218  1  0.72270000  0.78980000  0.36790000  1.0 -0.5470274064
O  O219  1  0.87530000  0.02593000  0.69743000  1.0 -0.5176776534
O  O220  1  0.67630000  0.75360000  0.47130000  1.0 -1.1388772488
O  O221  1  0.77850000  0.83580000  0.44290000  1.0 -0.6500662656
O  O222  1  0.79950000  0.97880000  0.65210000  1.0 -0.6500662656
O  O223  1  0.62435000  0.70459000  0.37724000  1.0 -1.0360257561
O  O224  1  0.57810000  0.71020000  0.43290000  1.0 -0.5470274064
O  O225  1  0.67150000  0.47407000  0.34937000  1.0 -0.5176776534
O  O226  1  0.71770000  0.74640000  0.42270000  1.0 -1.1388772488
O  O227  1  0.60710000  0.66420000  0.44270000  1.0 -0.6500662656
O  O228  1  0.67330000  0.52120000  0.32070000  1.0 -0.6500662656
O  O229  1  0.87565000  0.25289000  0.08024000  1.0 -1.0360257561
O  O230  1  0.92190000  0.35480000  0.13210000  1.0 -0.5470274064
O  O231  1  0.82850000  0.17787000  0.80257000  1.0 -0.5176776534
O  O232  1  0.78230000  0.20500000  0.02870000  1.0 -1.1388772488
O  O233  1  0.89290000  0.33560000  0.05710000  1.0 -0.6500662656
O  O234  1  0.82670000  0.14740000  0.84790000  1.0 -0.6500662656
O  O235  1  0.82735000  0.24711000  0.12276000  1.0 -1.0360257561
O  O236  1  0.77730000  0.14520000  0.06710000  1.0 -0.5470274064
O  O237  1  0.62470000  0.32213000  0.15063000  1.0 -0.5176776534
O  O238  1  0.82370000  0.29500000  0.07730000  1.0 -1.1388772488
O  O239  1  0.72150000  0.16440000  0.05730000  1.0 -0.6500662656
O  O240  1  0.70050000  0.35260000  0.17930000  1.0 -0.6500662656
O  O241  1  0.70459000  0.37724000  0.62435000  1.0 -1.0360257561
O  O242  1  0.71020000  0.43290000  0.57810000  1.0 -0.5470274064
O  O243  1  0.47407000  0.34937000  0.67150000  1.0 -0.5176776534
O  O244  1  0.74640000  0.42270000  0.71770000  1.0 -1.1388772488
O  O245  1  0.66420000  0.44270000  0.60710000  1.0 -0.6500662656
O  O246  1  0.52120000  0.32070000  0.67330000  1.0 -0.6500662656
O  O247  1  0.79541000  0.41976000  0.67265000  1.0 -1.0360257561
O  O248  1  0.78980000  0.36790000  0.72270000  1.0 -0.5470274064
O  O249  1  0.02593000  0.69743000  0.87530000  1.0 -0.5176776534
O  O250  1  0.75360000  0.47130000  0.67630000  1.0 -1.1388772488
O  O251  1  0.83580000  0.44290000  0.77850000  1.0 -0.6500662656
O  O252  1  0.97880000  0.65210000  0.79950000  1.0 -0.6500662656
O  O253  1  0.24711000  0.12276000  0.82735000  1.0 -1.0360257561
O  O254  1  0.14520000  0.06710000  0.77730000  1.0 -0.5470274064
O  O255  1  0.32213000  0.15063000  0.62470000  1.0 -0.5176776534
O  O256  1  0.29500000  0.07730000  0.82370000  1.0 -1.1388772488
O  O257  1  0.16440000  0.05730000  0.72150000  1.0 -0.6500662656
O  O258  1  0.35260000  0.17930000  0.70050000  1.0 -0.6500662656
O  O259  1  0.25289000  0.08024000  0.87565000  1.0 -1.0360257561
O  O260  1  0.35480000  0.13210000  0.92190000  1.0 -0.5470274064
O  O261  1  0.17787000  0.80257000  0.82850000  1.0 -0.5176776534
O  O262  1  0.20500000  0.02870000  0.78230000  1.0 -1.1388772488
O  O263  1  0.33560000  0.05710000  0.89290000  1.0 -0.6500662656
O  O264  1  0.14740000  0.84790000  0.82670000  1.0 -0.6500662656
O  O265  1  0.12276000  0.82735000  0.24711000  1.0 -1.0360257561
O  O266  1  0.06710000  0.77730000  0.14520000  1.0 -0.5470274064
O  O267  1  0.15063000  0.62470000  0.32213000  1.0 -0.5176776534
O  O268  1  0.07730000  0.82370000  0.29500000  1.0 -1.1388772488
O  O269  1  0.05730000  0.72150000  0.16440000  1.0 -0.6500662656
O  O270  1  0.17930000  0.70050000  0.35260000  1.0 -0.6500662656
O  O271  1  0.08024000  0.87565000  0.25289000  1.0 -1.0360257561
O  O272  1  0.13210000  0.92190000  0.35480000  1.0 -0.5470274064
O  O273  1  0.80257000  0.82850000  0.17787000  1.0 -0.5176776534
O  O274  1  0.02870000  0.78230000  0.20500000  1.0 -1.1388772488
O  O275  1  0.05710000  0.89290000  0.33560000  1.0 -0.6500662656
O  O276  1  0.84790000  0.82670000  0.14740000  1.0 -0.6500662656
O  O277  1  0.37724000  0.62435000  0.70459000  1.0 -1.0360257561
O  O278  1  0.43290000  0.57810000  0.71020000  1.0 -0.5470274064
O  O279  1  0.34937000  0.67150000  0.47407000  1.0 -0.5176776534
O  O280  1  0.42270000  0.71770000  0.74640000  1.0 -1.1388772488
O  O281  1  0.44270000  0.60710000  0.66420000  1.0 -0.6500662656
O  O282  1  0.32070000  0.67330000  0.52120000  1.0 -0.6500662656
O  O283  1  0.41976000  0.67265000  0.79541000  1.0 -1.0360257561
O  O284  1  0.36790000  0.72270000  0.78980000  1.0 -0.5470274064
O  O285  1  0.69743000  0.87530000  0.02593000  1.0 -0.5176776534
O  O286  1  0.47130000  0.67630000  0.75360000  1.0 -1.1388772488
O  O287  1  0.44290000  0.77850000  0.83580000  1.0 -0.6500662656
O  O288  1  0.65210000  0.79950000  0.97880000  1.0 -0.6500662656
