# DDEC6 charges by PACMAN v1.1 (https://github.com/mtap-research/PACMAN-charge/)
data_QUGRES_ASR_pacman
_symmetry_space_group_name_H-M   'P 1'
_cell_length_a   35.56530000
_cell_length_b   35.56530000
_cell_length_c   35.56530000
_cell_angle_alpha   109.47100000
_cell_angle_beta   109.47100000
_cell_angle_gamma   109.47100000
_symmetry_Int_Tables_number   1
_chemical_formula_structural   TbCrH8C12(NO3)2
_chemical_formula_sum   'Tb48 Cr48 H384 C576 N96 O288'
_cell_volume   34630.68532095
_cell_formula_units_Z   48
loop_
 _symmetry_equiv_pos_site_id
 _symmetry_equiv_pos_as_xyz
  1  'x, y, z'
loop_
 _atom_site_type_symbol
 _atom_site_label
 _atom_site_symmetry_multiplicity
 _atom_site_fract_x
 _atom_site_fract_y
 _atom_site_fract_z
 _atom_site_occupancy
 _atom_site_charge
Tb  Tb1  1  0.98583000  0.32053000  0.24066000  1.0 2.0258974824
Tb  Tb2  1  0.92013000  0.17947000  0.16530000  1.0 2.0258974824
Tb  Tb3  1  0.51417000  0.75483000  0.33470000  1.0 2.0242691401
Tb  Tb4  1  0.57987000  0.74517000  0.25934000  1.0 2.0258974824
Tb  Tb5  1  0.16530000  0.92013000  0.17947000  1.0 2.0242691401
Tb  Tb6  1  0.24066000  0.98583000  0.32053000  1.0 2.0258974824
Tb  Tb7  1  0.25934000  0.57987000  0.74517000  1.0 2.0258974824
Tb  Tb8  1  0.33470000  0.51417000  0.75483000  1.0 2.0258974824
Tb  Tb9  1  0.74517000  0.25934000  0.57987000  1.0 2.0242691401
Tb  Tb10  1  0.75483000  0.33470000  0.51417000  1.0 2.0242691401
Tb  Tb11  1  0.17947000  0.16530000  0.92013000  1.0 2.0242691401
Tb  Tb12  1  0.32053000  0.24066000  0.98583000  1.0 2.0242691401
Tb  Tb13  1  0.25934000  0.17947000  0.51417000  1.0 2.0258974824
Tb  Tb14  1  0.33470000  0.32053000  0.57987000  1.0 2.0242691401
Tb  Tb15  1  0.16530000  0.74517000  0.98583000  1.0 2.0242691401
Tb  Tb16  1  0.24066000  0.75483000  0.92013000  1.0 2.0258974824
Tb  Tb17  1  0.32053000  0.57987000  0.33470000  1.0 2.0258974824
Tb  Tb18  1  0.17947000  0.51417000  0.25934000  1.0 2.0242691401
Tb  Tb19  1  0.75483000  0.92013000  0.24066000  1.0 2.0258974824
Tb  Tb20  1  0.74517000  0.98583000  0.16530000  1.0 2.0258974824
Tb  Tb21  1  0.92013000  0.24066000  0.75483000  1.0 2.0258974824
Tb  Tb22  1  0.98583000  0.16530000  0.74517000  1.0 2.0258974824
Tb  Tb23  1  0.57987000  0.33470000  0.32053000  1.0 2.0258974824
Tb  Tb24  1  0.51417000  0.25934000  0.17947000  1.0 2.0242691401
Tb  Tb25  1  0.01417000  0.67947000  0.75934000  1.0 2.0242691401
Tb  Tb26  1  0.07987000  0.82053000  0.83470000  1.0 2.0242691401
Tb  Tb27  1  0.48583000  0.24517000  0.66530000  1.0 2.0258974824
Tb  Tb28  1  0.42013000  0.25483000  0.74066000  1.0 2.0242691401
Tb  Tb29  1  0.83470000  0.07987000  0.82053000  1.0 2.0242691401
Tb  Tb30  1  0.75934000  0.01417000  0.67947000  1.0 2.0242691401
Tb  Tb31  1  0.74066000  0.42013000  0.25483000  1.0 2.0258974824
Tb  Tb32  1  0.66530000  0.48583000  0.24517000  1.0 2.0242691401
Tb  Tb33  1  0.25483000  0.74066000  0.42013000  1.0 2.0242691401
Tb  Tb34  1  0.24517000  0.66530000  0.48583000  1.0 2.0242691401
Tb  Tb35  1  0.82053000  0.83470000  0.07987000  1.0 2.0258974824
Tb  Tb36  1  0.67947000  0.75934000  0.01417000  1.0 2.0258974824
Tb  Tb37  1  0.74066000  0.82053000  0.48583000  1.0 2.0258974824
Tb  Tb38  1  0.66530000  0.67947000  0.42013000  1.0 2.0258974824
Tb  Tb39  1  0.83470000  0.25483000  0.01417000  1.0 2.0258974824
Tb  Tb40  1  0.75934000  0.24517000  0.07987000  1.0 2.0258974824
Tb  Tb41  1  0.67947000  0.42013000  0.66530000  1.0 2.0258974824
Tb  Tb42  1  0.82053000  0.48583000  0.74066000  1.0 2.0258974824
Tb  Tb43  1  0.24517000  0.07987000  0.75934000  1.0 2.0242691401
Tb  Tb44  1  0.25483000  0.01417000  0.83470000  1.0 2.0242691401
Tb  Tb45  1  0.07987000  0.75934000  0.24517000  1.0 2.0242691401
Tb  Tb46  1  0.01417000  0.83470000  0.25483000  1.0 2.0242691401
Tb  Tb47  1  0.42013000  0.66530000  0.67947000  1.0 2.0258974824
Tb  Tb48  1  0.48583000  0.74066000  0.82053000  1.0 2.0258974824
Cr  Cr1  1  0.92640000  0.25304000  0.12540000  1.0 1.4082270319
Cr  Cr2  1  0.87236000  0.24696000  0.17336000  1.0 1.4082270319
Cr  Cr3  1  0.57360000  0.69900000  0.32664000  1.0 1.4082270319
Cr  Cr4  1  0.62764000  0.80100000  0.37460000  1.0 1.4082270319
Cr  Cr5  1  0.17336000  0.87236000  0.24696000  1.0 1.4082270319
Cr  Cr6  1  0.12540000  0.92640000  0.25304000  1.0 1.4082270319
Cr  Cr7  1  0.37460000  0.62764000  0.80100000  1.0 1.4082270319
Cr  Cr8  1  0.32664000  0.57360000  0.69900000  1.0 1.4082270319
Cr  Cr9  1  0.80100000  0.37460000  0.62764000  1.0 1.4082270319
Cr  Cr10  1  0.69900000  0.32664000  0.57360000  1.0 1.4082270319
Cr  Cr11  1  0.24696000  0.17336000  0.87236000  1.0 1.4082270319
Cr  Cr12  1  0.25304000  0.12540000  0.92640000  1.0 1.4082270319
Cr  Cr13  1  0.37460000  0.24696000  0.57360000  1.0 1.4082270319
Cr  Cr14  1  0.32664000  0.25304000  0.62764000  1.0 1.4082270319
Cr  Cr15  1  0.17336000  0.80100000  0.92640000  1.0 1.4082270319
Cr  Cr16  1  0.12540000  0.69900000  0.87236000  1.0 1.4082270319
Cr  Cr17  1  0.25304000  0.62764000  0.32664000  1.0 1.4082270319
Cr  Cr18  1  0.24696000  0.57360000  0.37460000  1.0 1.4082270319
Cr  Cr19  1  0.69900000  0.87236000  0.12540000  1.0 1.4082270319
Cr  Cr20  1  0.80100000  0.92640000  0.17336000  1.0 1.4082270319
Cr  Cr21  1  0.87236000  0.12540000  0.69900000  1.0 1.4082270319
Cr  Cr22  1  0.92640000  0.17336000  0.80100000  1.0 1.4082270319
Cr  Cr23  1  0.62764000  0.32664000  0.25304000  1.0 1.4082270319
Cr  Cr24  1  0.57360000  0.37460000  0.24696000  1.0 1.4082270319
Cr  Cr25  1  0.07360000  0.74696000  0.87460000  1.0 1.4082270319
Cr  Cr26  1  0.12764000  0.75304000  0.82664000  1.0 1.4082270319
Cr  Cr27  1  0.42640000  0.30100000  0.67336000  1.0 1.4082270319
Cr  Cr28  1  0.37236000  0.19900000  0.62540000  1.0 1.4082270319
Cr  Cr29  1  0.82664000  0.12764000  0.75304000  1.0 1.4082270319
Cr  Cr30  1  0.87460000  0.07360000  0.74696000  1.0 1.4082270319
Cr  Cr31  1  0.62540000  0.37236000  0.19900000  1.0 1.4082270319
Cr  Cr32  1  0.67336000  0.42640000  0.30100000  1.0 1.4082270319
Cr  Cr33  1  0.19900000  0.62540000  0.37236000  1.0 1.4082270319
Cr  Cr34  1  0.30100000  0.67336000  0.42640000  1.0 1.4082270319
Cr  Cr35  1  0.75304000  0.82664000  0.12764000  1.0 1.4082270319
Cr  Cr36  1  0.74696000  0.87460000  0.07360000  1.0 1.4082270319
Cr  Cr37  1  0.62540000  0.75304000  0.42640000  1.0 1.4082270319
Cr  Cr38  1  0.67336000  0.74696000  0.37236000  1.0 1.4082270319
Cr  Cr39  1  0.82664000  0.19900000  0.07360000  1.0 1.4082270319
Cr  Cr40  1  0.87460000  0.30100000  0.12764000  1.0 1.4082270319
Cr  Cr41  1  0.74696000  0.37236000  0.67336000  1.0 1.4082270319
Cr  Cr42  1  0.75304000  0.42640000  0.62540000  1.0 1.4082270319
Cr  Cr43  1  0.30100000  0.12764000  0.87460000  1.0 1.4082270319
Cr  Cr44  1  0.19900000  0.07360000  0.82664000  1.0 1.4082270319
Cr  Cr45  1  0.12764000  0.87460000  0.30100000  1.0 1.4082270319
Cr  Cr46  1  0.07360000  0.82664000  0.19900000  1.0 1.4082270319
Cr  Cr47  1  0.37236000  0.67336000  0.74696000  1.0 1.4082270319
Cr  Cr48  1  0.42640000  0.62540000  0.75304000  1.0 1.4082270319
H  H1  1  0.84813000  0.39845000  0.36806000  1.0 0.1000010981
H  H2  1  0.79558000  0.34561000  0.29375000  1.0 0.1223966443
H  H3  1  0.81899000  0.31290000  0.24811000  1.0 0.1223966443
H  H4  1  0.94739000  0.37819000  0.35438000  1.0 0.1000010981
H  H5  1  0.03767000  0.38719000  0.36000000  1.0 0.1000010981
H  H6  1  0.10527000  0.44861000  0.42506000  1.0 0.1253679434
H  H7  1  0.16316000  0.49408000  0.41794000  1.0 0.1223966443
H  H8  1  0.08167000  0.41592000  0.28179000  1.0 0.1000010981
H  H9  1  0.96961000  0.10155000  0.94968000  1.0 0.1000010981
H  H10  1  0.94814000  0.15439000  0.94997000  1.0 0.1223966443
H  H11  1  0.93521000  0.18710000  0.00609000  1.0 0.1223966443
H  H12  1  0.97619000  0.12181000  0.06920000  1.0 0.1000010981
H  H13  1  0.97281000  0.11281000  0.15048000  1.0 0.1000010981
H  H14  1  0.97645000  0.05139000  0.15666000  1.0 0.1253679434
H  H15  1  0.92386000  0.00592000  0.16908000  1.0 0.1223966443
H  H16  1  0.86587000  0.08408000  0.16575000  1.0 0.1000010981
H  H17  1  0.65187000  0.01993000  0.55032000  1.0 0.1000010981
H  H18  1  0.70442000  0.99817000  0.55003000  1.0 0.1223966443
H  H19  1  0.68101000  0.92912000  0.49391000  1.0 0.1223966443
H  H20  1  0.55261000  0.90699000  0.43080000  1.0 0.1000010981
H  H21  1  0.46233000  0.82233000  0.34952000  1.0 0.1000010981
H  H22  1  0.39473000  0.81979000  0.34334000  1.0 0.1253679434
H  H23  1  0.33684000  0.75478000  0.33092000  1.0 0.1223966443
H  H24  1  0.41833000  0.70012000  0.33425000  1.0 0.1000010981
H  H25  1  0.53039000  0.48007000  0.13194000  1.0 0.1000010981
H  H26  1  0.55186000  0.50183000  0.20625000  1.0 0.1223966443
H  H27  1  0.56479000  0.57088000  0.25189000  1.0 0.1223966443
H  H28  1  0.52381000  0.59301000  0.14562000  1.0 0.1000010981
H  H29  1  0.52719000  0.67767000  0.14000000  1.0 0.1000010981
H  H30  1  0.52355000  0.68021000  0.07494000  1.0 0.1253679434
H  H31  1  0.57614000  0.74522000  0.08206000  1.0 0.1223966443
H  H32  1  0.63413000  0.79988000  0.21821000  1.0 0.1000010981
H  H33  1  0.94968000  0.96961000  0.10155000  1.0 0.0914454887
H  H34  1  0.94997000  0.94814000  0.15439000  1.0 0.1223966443
H  H35  1  0.00609000  0.93521000  0.18710000  1.0 0.1223966443
H  H36  1  0.06920000  0.97619000  0.12181000  1.0 0.1000010981
H  H37  1  0.15048000  0.97281000  0.11281000  1.0 0.1000010981
H  H38  1  0.15666000  0.97645000  0.05139000  1.0 0.1253679434
H  H39  1  0.16908000  0.92386000  0.00592000  1.0 0.1223966443
H  H40  1  0.16575000  0.86587000  0.08408000  1.0 0.1000010981
H  H41  1  0.36806000  0.84813000  0.39845000  1.0 0.1000010981
H  H42  1  0.29375000  0.79558000  0.34561000  1.0 0.1223966443
H  H43  1  0.24811000  0.81899000  0.31290000  1.0 0.1223966443
H  H44  1  0.35438000  0.94739000  0.37819000  1.0 0.1000010981
H  H45  1  0.36000000  0.03767000  0.38719000  1.0 0.1000010981
H  H46  1  0.42506000  0.10527000  0.44861000  1.0 0.1253679434
H  H47  1  0.41794000  0.16316000  0.49408000  1.0 0.1223966443
H  H48  1  0.28179000  0.08167000  0.41592000  1.0 0.1000010981
H  H49  1  0.13194000  0.53039000  0.48007000  1.0 0.1000010981
H  H50  1  0.20625000  0.55186000  0.50183000  1.0 0.1223966443
H  H51  1  0.25189000  0.56479000  0.57088000  1.0 0.1223966443
H  H52  1  0.14562000  0.52381000  0.59301000  1.0 0.1000010981
H  H53  1  0.14000000  0.52719000  0.67767000  1.0 0.1000010981
H  H54  1  0.07494000  0.52355000  0.68021000  1.0 0.1253679434
H  H55  1  0.08206000  0.57614000  0.74522000  1.0 0.1223966443
H  H56  1  0.21821000  0.63413000  0.79988000  1.0 0.1000010981
H  H57  1  0.55032000  0.65187000  0.01993000  1.0 0.1000010981
H  H58  1  0.55003000  0.70442000  0.99817000  1.0 0.1223966443
H  H59  1  0.49391000  0.68101000  0.92912000  1.0 0.1223966443
H  H60  1  0.43080000  0.55261000  0.90699000  1.0 0.1000010981
H  H61  1  0.34952000  0.46233000  0.82233000  1.0 0.1000010981
H  H62  1  0.34334000  0.39473000  0.81979000  1.0 0.1253679434
H  H63  1  0.33092000  0.33684000  0.75478000  1.0 0.1223966443
H  H64  1  0.33425000  0.41833000  0.70012000  1.0 0.1000010981
H  H65  1  0.48007000  0.13194000  0.53039000  1.0 0.1000010981
H  H66  1  0.50183000  0.20625000  0.55186000  1.0 0.1223966443
H  H67  1  0.57088000  0.25189000  0.56479000  1.0 0.1223966443
H  H68  1  0.59301000  0.14562000  0.52381000  1.0 0.1000010981
H  H69  1  0.67767000  0.14000000  0.52719000  1.0 0.1000010981
H  H70  1  0.68021000  0.07494000  0.52355000  1.0 0.1253679434
H  H71  1  0.74522000  0.08206000  0.57614000  1.0 0.1223966443
H  H72  1  0.79988000  0.21821000  0.63413000  1.0 0.1000010981
H  H73  1  0.01993000  0.55032000  0.65187000  1.0 0.1000010981
H  H74  1  0.99817000  0.55003000  0.70442000  1.0 0.1223966443
H  H75  1  0.92912000  0.49391000  0.68101000  1.0 0.1223966443
H  H76  1  0.90699000  0.43080000  0.55261000  1.0 0.1000010981
H  H77  1  0.82233000  0.34952000  0.46233000  1.0 0.1000010981
H  H78  1  0.81979000  0.34334000  0.39473000  1.0 0.1253679434
H  H79  1  0.75478000  0.33092000  0.33684000  1.0 0.1223966443
H  H80  1  0.70012000  0.33425000  0.41833000  1.0 0.1000010981
H  H81  1  0.10155000  0.94968000  0.96961000  1.0 0.1000010981
H  H82  1  0.15439000  0.94997000  0.94814000  1.0 0.1223966443
H  H83  1  0.18710000  0.00609000  0.93521000  1.0 0.1223966443
H  H84  1  0.12181000  0.06920000  0.97619000  1.0 0.1000010981
H  H85  1  0.11281000  0.15048000  0.97281000  1.0 0.1000010981
H  H86  1  0.05139000  0.15666000  0.97645000  1.0 0.1253679434
H  H87  1  0.00592000  0.16908000  0.92386000  1.0 0.1223966443
H  H88  1  0.08408000  0.16575000  0.86587000  1.0 0.1000010981
H  H89  1  0.39845000  0.36806000  0.84813000  1.0 0.1000010981
H  H90  1  0.34561000  0.29375000  0.79558000  1.0 0.1223966443
H  H91  1  0.31290000  0.24811000  0.81899000  1.0 0.1223966443
H  H92  1  0.37819000  0.35438000  0.94739000  1.0 0.1000010981
H  H93  1  0.38719000  0.36000000  0.03767000  1.0 0.1000010981
H  H94  1  0.44861000  0.42506000  0.10527000  1.0 0.1253679434
H  H95  1  0.49408000  0.41794000  0.16316000  1.0 0.1223966443
H  H96  1  0.41592000  0.28179000  0.08167000  1.0 0.1000010981
H  H97  1  0.13194000  0.10155000  0.65187000  1.0 0.1000010981
H  H98  1  0.20625000  0.15439000  0.70442000  1.0 0.1223966443
H  H99  1  0.25189000  0.18710000  0.68101000  1.0 0.1223966443
H  H100  1  0.14562000  0.12181000  0.55261000  1.0 0.1000010981
H  H101  1  0.14000000  0.11281000  0.46233000  1.0 0.1000010981
H  H102  1  0.07494000  0.05139000  0.39473000  1.0 0.1253679434
H  H103  1  0.08206000  0.00592000  0.33684000  1.0 0.1223966443
H  H104  1  0.21821000  0.08408000  0.41833000  1.0 0.1000010981
H  H105  1  0.55032000  0.39845000  0.53039000  1.0 0.1000010981
H  H106  1  0.55003000  0.34561000  0.55186000  1.0 0.1223966443
H  H107  1  0.49391000  0.31290000  0.56479000  1.0 0.1223966443
H  H108  1  0.43080000  0.37819000  0.52381000  1.0 0.1000010981
H  H109  1  0.34952000  0.38719000  0.52719000  1.0 0.1000010981
H  H110  1  0.34334000  0.44861000  0.52355000  1.0 0.1253679434
H  H111  1  0.33092000  0.49408000  0.57614000  1.0 0.1223966443
H  H112  1  0.33425000  0.41592000  0.63413000  1.0 0.1000010981
H  H113  1  0.94968000  0.48007000  0.84813000  1.0 0.1000010981
H  H114  1  0.94997000  0.50183000  0.79558000  1.0 0.1223966443
H  H115  1  0.00609000  0.57088000  0.81899000  1.0 0.1223966443
H  H116  1  0.06920000  0.59301000  0.94739000  1.0 0.1000010981
H  H117  1  0.15048000  0.67767000  0.03767000  1.0 0.1000010981
H  H118  1  0.15666000  0.68021000  0.10527000  1.0 0.1253679434
H  H119  1  0.16908000  0.74522000  0.16316000  1.0 0.1223966443
H  H120  1  0.16575000  0.79988000  0.08167000  1.0 0.1000010981
H  H121  1  0.36806000  0.01993000  0.96961000  1.0 0.1000010981
H  H122  1  0.29375000  0.99817000  0.94814000  1.0 0.1223966443
H  H123  1  0.24811000  0.92912000  0.93521000  1.0 0.1223966443
H  H124  1  0.35438000  0.90699000  0.97619000  1.0 0.1000010981
H  H125  1  0.36000000  0.82233000  0.97281000  1.0 0.1000010981
H  H126  1  0.42506000  0.81979000  0.97645000  1.0 0.1253679434
H  H127  1  0.41794000  0.75478000  0.92386000  1.0 0.1223966443
H  H128  1  0.28179000  0.70012000  0.86587000  1.0 0.1000010981
H  H129  1  0.39845000  0.53039000  0.55032000  1.0 0.1000010981
H  H130  1  0.34561000  0.55186000  0.55003000  1.0 0.1223966443
H  H131  1  0.31290000  0.56479000  0.49391000  1.0 0.1223966443
H  H132  1  0.37819000  0.52381000  0.43080000  1.0 0.1000010981
H  H133  1  0.38719000  0.52719000  0.34952000  1.0 0.1000010981
H  H134  1  0.44861000  0.52355000  0.34334000  1.0 0.1253679434
H  H135  1  0.49408000  0.57614000  0.33092000  1.0 0.1223966443
H  H136  1  0.41592000  0.63413000  0.33425000  1.0 0.1000010981
H  H137  1  0.10155000  0.65187000  0.13194000  1.0 0.1000010981
H  H138  1  0.15439000  0.70442000  0.20625000  1.0 0.1223966443
H  H139  1  0.18710000  0.68101000  0.25189000  1.0 0.1223966443
H  H140  1  0.12181000  0.55261000  0.14562000  1.0 0.1000010981
H  H141  1  0.11281000  0.46233000  0.14000000  1.0 0.1000010981
H  H142  1  0.05139000  0.39473000  0.07494000  1.0 0.1253679434
H  H143  1  0.00592000  0.33684000  0.08206000  1.0 0.1223966443
H  H144  1  0.08408000  0.41833000  0.21821000  1.0 0.1000010981
H  H145  1  0.01993000  0.96961000  0.36806000  1.0 0.1000010981
H  H146  1  0.99817000  0.94814000  0.29375000  1.0 0.1223966443
H  H147  1  0.92912000  0.93521000  0.24811000  1.0 0.1223966443
H  H148  1  0.90699000  0.97619000  0.35438000  1.0 0.1000010981
H  H149  1  0.82233000  0.97281000  0.36000000  1.0 0.1000010981
H  H150  1  0.81979000  0.97645000  0.42506000  1.0 0.1253679434
H  H151  1  0.75478000  0.92386000  0.41794000  1.0 0.1223966443
H  H152  1  0.70012000  0.86587000  0.28179000  1.0 0.1000010981
H  H153  1  0.48007000  0.84813000  0.94968000  1.0 0.1000010981
H  H154  1  0.50183000  0.79558000  0.94997000  1.0 0.1223966443
H  H155  1  0.57088000  0.81899000  0.00609000  1.0 0.1223966443
H  H156  1  0.59301000  0.94739000  0.06920000  1.0 0.1000010981
H  H157  1  0.67767000  0.03767000  0.15048000  1.0 0.1000010981
H  H158  1  0.68021000  0.10527000  0.15666000  1.0 0.1253679434
H  H159  1  0.74522000  0.16316000  0.16908000  1.0 0.1223966443
H  H160  1  0.79988000  0.08167000  0.16575000  1.0 0.1000010981
H  H161  1  0.96961000  0.36806000  0.01993000  1.0 0.1000010981
H  H162  1  0.94814000  0.29375000  0.99817000  1.0 0.1223966443
H  H163  1  0.93521000  0.24811000  0.92912000  1.0 0.1223966443
H  H164  1  0.97619000  0.35438000  0.90699000  1.0 0.1000010981
H  H165  1  0.97281000  0.36000000  0.82233000  1.0 0.1000010981
H  H166  1  0.97645000  0.42506000  0.81979000  1.0 0.1253679434
H  H167  1  0.92386000  0.41794000  0.75478000  1.0 0.1223966443
H  H168  1  0.86587000  0.28179000  0.70012000  1.0 0.1000010981
H  H169  1  0.84813000  0.94968000  0.48007000  1.0 0.1000010981
H  H170  1  0.79558000  0.94997000  0.50183000  1.0 0.1223966443
H  H171  1  0.81899000  0.00609000  0.57088000  1.0 0.1223966443
H  H172  1  0.94739000  0.06920000  0.59301000  1.0 0.1000010981
H  H173  1  0.03767000  0.15048000  0.67767000  1.0 0.1000010981
H  H174  1  0.10527000  0.15666000  0.68021000  1.0 0.1253679434
H  H175  1  0.16316000  0.16908000  0.74522000  1.0 0.1223966443
H  H176  1  0.08167000  0.16575000  0.79988000  1.0 0.1000010981
H  H177  1  0.53039000  0.55032000  0.39845000  1.0 0.1000010981
H  H178  1  0.55186000  0.55003000  0.34561000  1.0 0.1223966443
H  H179  1  0.56479000  0.49391000  0.31290000  1.0 0.1223966443
H  H180  1  0.52381000  0.43080000  0.37819000  1.0 0.1000010981
H  H181  1  0.52719000  0.34952000  0.38719000  1.0 0.1000010981
H  H182  1  0.52355000  0.34334000  0.44861000  1.0 0.1253679434
H  H183  1  0.57614000  0.33092000  0.49408000  1.0 0.1223966443
H  H184  1  0.63413000  0.33425000  0.41592000  1.0 0.1000010981
H  H185  1  0.65187000  0.13194000  0.10155000  1.0 0.1000010981
H  H186  1  0.70442000  0.20625000  0.15439000  1.0 0.1223966443
H  H187  1  0.68101000  0.25189000  0.18710000  1.0 0.1223966443
H  H188  1  0.55261000  0.14562000  0.12181000  1.0 0.1000010981
H  H189  1  0.46233000  0.14000000  0.11281000  1.0 0.1000010981
H  H190  1  0.39473000  0.07494000  0.05139000  1.0 0.1253679434
H  H191  1  0.33684000  0.08206000  0.00592000  1.0 0.1223966443
H  H192  1  0.41833000  0.21821000  0.08408000  1.0 0.1000010981
H  H193  1  0.15187000  0.60155000  0.63194000  1.0 0.1000010981
H  H194  1  0.20442000  0.65439000  0.70625000  1.0 0.1223966443
H  H195  1  0.18101000  0.68710000  0.75189000  1.0 0.1223966443
H  H196  1  0.05261000  0.62181000  0.64562000  1.0 0.1000010981
H  H197  1  0.96233000  0.61281000  0.64000000  1.0 0.1000010981
H  H198  1  0.89473000  0.55139000  0.57494000  1.0 0.1253679434
H  H199  1  0.83684000  0.50592000  0.58206000  1.0 0.1223966443
H  H200  1  0.91833000  0.58408000  0.71821000  1.0 0.1000010981
H  H201  1  0.03039000  0.89845000  0.05032000  1.0 0.1000010981
H  H202  1  0.05186000  0.84561000  0.05003000  1.0 0.1223966443
H  H203  1  0.06479000  0.81290000  0.99391000  1.0 0.1223966443
H  H204  1  0.02381000  0.87819000  0.93080000  1.0 0.1000010981
H  H205  1  0.02719000  0.88719000  0.84952000  1.0 0.1000010981
H  H206  1  0.02355000  0.94861000  0.84334000  1.0 0.1253679434
H  H207  1  0.07614000  0.99408000  0.83092000  1.0 0.1223966443
H  H208  1  0.13413000  0.91592000  0.83425000  1.0 0.1000010981
H  H209  1  0.34813000  0.98007000  0.44968000  1.0 0.1000010981
H  H210  1  0.29558000  0.00183000  0.44997000  1.0 0.1223966443
H  H211  1  0.31899000  0.07088000  0.50609000  1.0 0.1223966443
H  H212  1  0.44739000  0.09301000  0.56920000  1.0 0.1000010981
H  H213  1  0.53767000  0.17767000  0.65048000  1.0 0.1000010981
H  H214  1  0.60527000  0.18021000  0.65666000  1.0 0.1253679434
H  H215  1  0.66316000  0.24522000  0.66908000  1.0 0.1223966443
H  H216  1  0.58167000  0.29988000  0.66575000  1.0 0.1000010981
H  H217  1  0.46961000  0.51993000  0.86806000  1.0 0.1000010981
H  H218  1  0.44814000  0.49817000  0.79375000  1.0 0.1223966443
H  H219  1  0.43521000  0.42912000  0.74811000  1.0 0.1223966443
H  H220  1  0.47619000  0.40699000  0.85438000  1.0 0.1000010981
H  H221  1  0.47281000  0.32233000  0.86000000  1.0 0.1000010981
H  H222  1  0.47645000  0.31979000  0.92506000  1.0 0.1253679434
H  H223  1  0.42386000  0.25478000  0.91794000  1.0 0.1223966443
H  H224  1  0.36587000  0.20012000  0.78179000  1.0 0.1000010981
H  H225  1  0.05032000  0.03039000  0.89845000  1.0 0.1000010981
H  H226  1  0.05003000  0.05186000  0.84561000  1.0 0.1223966443
H  H227  1  0.99391000  0.06479000  0.81290000  1.0 0.1223966443
H  H228  1  0.93080000  0.02381000  0.87819000  1.0 0.1000010981
H  H229  1  0.84952000  0.02719000  0.88719000  1.0 0.1000010981
H  H230  1  0.84334000  0.02355000  0.94861000  1.0 0.1253679434
H  H231  1  0.83092000  0.07614000  0.99408000  1.0 0.1223966443
H  H232  1  0.83425000  0.13413000  0.91592000  1.0 0.1000010981
H  H233  1  0.63194000  0.15187000  0.60155000  1.0 0.1000010981
H  H234  1  0.70625000  0.20442000  0.65439000  1.0 0.1223966443
H  H235  1  0.75189000  0.18101000  0.68710000  1.0 0.1223966443
H  H236  1  0.64562000  0.05261000  0.62181000  1.0 0.1000010981
H  H237  1  0.64000000  0.96233000  0.61281000  1.0 0.1000010981
H  H238  1  0.57494000  0.89473000  0.55139000  1.0 0.1253679434
H  H239  1  0.58206000  0.83684000  0.50592000  1.0 0.1223966443
H  H240  1  0.71821000  0.91833000  0.58408000  1.0 0.1000010981
H  H241  1  0.86806000  0.46961000  0.51993000  1.0 0.1000010981
H  H242  1  0.79375000  0.44814000  0.49817000  1.0 0.1223966443
H  H243  1  0.74811000  0.43521000  0.42912000  1.0 0.1223966443
H  H244  1  0.85438000  0.47619000  0.40699000  1.0 0.1000010981
H  H245  1  0.86000000  0.47281000  0.32233000  1.0 0.1000010981
H  H246  1  0.92506000  0.47645000  0.31979000  1.0 0.1253679434
H  H247  1  0.91794000  0.42386000  0.25478000  1.0 0.1223966443
H  H248  1  0.78179000  0.36587000  0.20012000  1.0 0.1000010981
H  H249  1  0.44968000  0.34813000  0.98007000  1.0 0.1000010981
H  H250  1  0.44997000  0.29558000  0.00183000  1.0 0.1223966443
H  H251  1  0.50609000  0.31899000  0.07088000  1.0 0.1223966443
H  H252  1  0.56920000  0.44739000  0.09301000  1.0 0.1000010981
H  H253  1  0.65048000  0.53767000  0.17767000  1.0 0.1000010981
H  H254  1  0.65666000  0.60527000  0.18021000  1.0 0.1253679434
H  H255  1  0.66908000  0.66316000  0.24522000  1.0 0.1223966443
H  H256  1  0.66575000  0.58167000  0.29988000  1.0 0.1000010981
H  H257  1  0.51993000  0.86806000  0.46961000  1.0 0.1000010981
H  H258  1  0.49817000  0.79375000  0.44814000  1.0 0.1223966443
H  H259  1  0.42912000  0.74811000  0.43521000  1.0 0.1223966443
H  H260  1  0.40699000  0.85438000  0.47619000  1.0 0.1000010981
H  H261  1  0.32233000  0.86000000  0.47281000  1.0 0.1000010981
H  H262  1  0.31979000  0.92506000  0.47645000  1.0 0.1253679434
H  H263  1  0.25478000  0.91794000  0.42386000  1.0 0.1223966443
H  H264  1  0.20012000  0.78179000  0.36587000  1.0 0.1000010981
H  H265  1  0.98007000  0.44968000  0.34813000  1.0 0.1000010981
H  H266  1  0.00183000  0.44997000  0.29558000  1.0 0.1223966443
H  H267  1  0.07088000  0.50609000  0.31899000  1.0 0.1223966443
H  H268  1  0.09301000  0.56920000  0.44739000  1.0 0.1000010981
H  H269  1  0.17767000  0.65048000  0.53767000  1.0 0.1000010981
H  H270  1  0.18021000  0.65666000  0.60527000  1.0 0.1253679434
H  H271  1  0.24522000  0.66908000  0.66316000  1.0 0.1223966443
H  H272  1  0.29988000  0.66575000  0.58167000  1.0 0.1000010981
H  H273  1  0.89845000  0.05032000  0.03039000  1.0 0.1000010981
H  H274  1  0.84561000  0.05003000  0.05186000  1.0 0.1223966443
H  H275  1  0.81290000  0.99391000  0.06479000  1.0 0.1223966443
H  H276  1  0.87819000  0.93080000  0.02381000  1.0 0.1000010981
H  H277  1  0.88719000  0.84952000  0.02719000  1.0 0.1000010981
H  H278  1  0.94861000  0.84334000  0.02355000  1.0 0.1253679434
H  H279  1  0.99408000  0.83092000  0.07614000  1.0 0.1223966443
H  H280  1  0.91592000  0.83425000  0.13413000  1.0 0.1000010981
H  H281  1  0.60155000  0.63194000  0.15187000  1.0 0.1000010981
H  H282  1  0.65439000  0.70625000  0.20442000  1.0 0.1223966443
H  H283  1  0.68710000  0.75189000  0.18101000  1.0 0.1223966443
H  H284  1  0.62181000  0.64562000  0.05261000  1.0 0.1000010981
H  H285  1  0.61281000  0.64000000  0.96233000  1.0 0.1000010981
H  H286  1  0.55139000  0.57494000  0.89473000  1.0 0.1253679434
H  H287  1  0.50592000  0.58206000  0.83684000  1.0 0.1223966443
H  H288  1  0.58408000  0.71821000  0.91833000  1.0 0.1000010981
H  H289  1  0.86806000  0.89845000  0.34813000  1.0 0.1000010981
H  H290  1  0.79375000  0.84561000  0.29558000  1.0 0.1223966443
H  H291  1  0.74811000  0.81290000  0.31899000  1.0 0.1223966443
H  H292  1  0.85438000  0.87819000  0.44739000  1.0 0.1000010981
H  H293  1  0.86000000  0.88719000  0.53767000  1.0 0.1000010981
H  H294  1  0.92506000  0.94861000  0.60527000  1.0 0.1253679434
H  H295  1  0.91794000  0.99408000  0.66316000  1.0 0.1223966443
H  H296  1  0.78179000  0.91592000  0.58167000  1.0 0.1000010981
H  H297  1  0.44968000  0.60155000  0.46961000  1.0 0.1000010981
H  H298  1  0.44997000  0.65439000  0.44814000  1.0 0.1223966443
H  H299  1  0.50609000  0.68710000  0.43521000  1.0 0.1223966443
H  H300  1  0.56920000  0.62181000  0.47619000  1.0 0.1000010981
H  H301  1  0.65048000  0.61281000  0.47281000  1.0 0.1000010981
H  H302  1  0.65666000  0.55139000  0.47645000  1.0 0.1253679434
H  H303  1  0.66908000  0.50592000  0.42386000  1.0 0.1223966443
H  H304  1  0.66575000  0.58408000  0.36587000  1.0 0.1000010981
H  H305  1  0.05032000  0.51993000  0.15187000  1.0 0.1000010981
H  H306  1  0.05003000  0.49817000  0.20442000  1.0 0.1223966443
H  H307  1  0.99391000  0.42912000  0.18101000  1.0 0.1223966443
H  H308  1  0.93080000  0.40699000  0.05261000  1.0 0.1000010981
H  H309  1  0.84952000  0.32233000  0.96233000  1.0 0.1000010981
H  H310  1  0.84334000  0.31979000  0.89473000  1.0 0.1253679434
H  H311  1  0.83092000  0.25478000  0.83684000  1.0 0.1223966443
H  H312  1  0.83425000  0.20012000  0.91833000  1.0 0.1000010981
H  H313  1  0.63194000  0.98007000  0.03039000  1.0 0.1000010981
H  H314  1  0.70625000  0.00183000  0.05186000  1.0 0.1223966443
H  H315  1  0.75189000  0.07088000  0.06479000  1.0 0.1223966443
H  H316  1  0.64562000  0.09301000  0.02381000  1.0 0.1000010981
H  H317  1  0.64000000  0.17767000  0.02719000  1.0 0.1000010981
H  H318  1  0.57494000  0.18021000  0.02355000  1.0 0.1253679434
H  H319  1  0.58206000  0.24522000  0.07614000  1.0 0.1223966443
H  H320  1  0.71821000  0.29988000  0.13413000  1.0 0.1000010981
H  H321  1  0.60155000  0.46961000  0.44968000  1.0 0.1000010981
H  H322  1  0.65439000  0.44814000  0.44997000  1.0 0.1223966443
H  H323  1  0.68710000  0.43521000  0.50609000  1.0 0.1223966443
H  H324  1  0.62181000  0.47619000  0.56920000  1.0 0.1000010981
H  H325  1  0.61281000  0.47281000  0.65048000  1.0 0.1000010981
H  H326  1  0.55139000  0.47645000  0.65666000  1.0 0.1253679434
H  H327  1  0.50592000  0.42386000  0.66908000  1.0 0.1223966443
H  H328  1  0.58408000  0.36587000  0.66575000  1.0 0.1000010981
H  H329  1  0.89845000  0.34813000  0.86806000  1.0 0.1000010981
H  H330  1  0.84561000  0.29558000  0.79375000  1.0 0.1223966443
H  H331  1  0.81290000  0.31899000  0.74811000  1.0 0.1223966443
H  H332  1  0.87819000  0.44739000  0.85438000  1.0 0.1000010981
H  H333  1  0.88719000  0.53767000  0.86000000  1.0 0.1000010981
H  H334  1  0.94861000  0.60527000  0.92506000  1.0 0.1253679434
H  H335  1  0.99408000  0.66316000  0.91794000  1.0 0.1223966443
H  H336  1  0.91592000  0.58167000  0.78179000  1.0 0.1000010981
H  H337  1  0.98007000  0.03039000  0.63194000  1.0 0.1000010981
H  H338  1  0.00183000  0.05186000  0.70625000  1.0 0.1223966443
H  H339  1  0.07088000  0.06479000  0.75189000  1.0 0.1223966443
H  H340  1  0.09301000  0.02381000  0.64562000  1.0 0.1000010981
H  H341  1  0.17767000  0.02719000  0.64000000  1.0 0.1000010981
H  H342  1  0.18021000  0.02355000  0.57494000  1.0 0.1253679434
H  H343  1  0.24522000  0.07614000  0.58206000  1.0 0.1223966443
H  H344  1  0.29988000  0.13413000  0.71821000  1.0 0.1000010981
H  H345  1  0.51993000  0.15187000  0.05032000  1.0 0.1000010981
H  H346  1  0.49817000  0.20442000  0.05003000  1.0 0.1223966443
H  H347  1  0.42912000  0.18101000  0.99391000  1.0 0.1223966443
H  H348  1  0.40699000  0.05261000  0.93080000  1.0 0.1000010981
H  H349  1  0.32233000  0.96233000  0.84952000  1.0 0.1000010981
H  H350  1  0.31979000  0.89473000  0.84334000  1.0 0.1253679434
H  H351  1  0.25478000  0.83684000  0.83092000  1.0 0.1223966443
H  H352  1  0.20012000  0.91833000  0.83425000  1.0 0.1000010981
H  H353  1  0.03039000  0.63194000  0.98007000  1.0 0.1000010981
H  H354  1  0.05186000  0.70625000  0.00183000  1.0 0.1223966443
H  H355  1  0.06479000  0.75189000  0.07088000  1.0 0.1223966443
H  H356  1  0.02381000  0.64562000  0.09301000  1.0 0.1000010981
H  H357  1  0.02719000  0.64000000  0.17767000  1.0 0.1000010981
H  H358  1  0.02355000  0.57494000  0.18021000  1.0 0.1253679434
H  H359  1  0.07614000  0.58206000  0.24522000  1.0 0.1223966443
H  H360  1  0.13413000  0.71821000  0.29988000  1.0 0.1000010981
H  H361  1  0.15187000  0.05032000  0.51993000  1.0 0.1000010981
H  H362  1  0.20442000  0.05003000  0.49817000  1.0 0.1223966443
H  H363  1  0.18101000  0.99391000  0.42912000  1.0 0.1223966443
H  H364  1  0.05261000  0.93080000  0.40699000  1.0 0.1000010981
H  H365  1  0.96233000  0.84952000  0.32233000  1.0 0.1000010981
H  H366  1  0.89473000  0.84334000  0.31979000  1.0 0.1253679434
H  H367  1  0.83684000  0.83092000  0.25478000  1.0 0.1223966443
H  H368  1  0.91833000  0.83425000  0.20012000  1.0 0.1000010981
H  H369  1  0.46961000  0.44968000  0.60155000  1.0 0.1000010981
H  H370  1  0.44814000  0.44997000  0.65439000  1.0 0.1223966443
H  H371  1  0.43521000  0.50609000  0.68710000  1.0 0.1223966443
H  H372  1  0.47619000  0.56920000  0.62181000  1.0 0.1000010981
H  H373  1  0.47281000  0.65048000  0.61281000  1.0 0.1000010981
H  H374  1  0.47645000  0.65666000  0.55139000  1.0 0.1253679434
H  H375  1  0.42386000  0.66908000  0.50592000  1.0 0.1223966443
H  H376  1  0.36587000  0.66575000  0.58408000  1.0 0.1000010981
H  H377  1  0.34813000  0.86806000  0.89845000  1.0 0.1000010981
H  H378  1  0.29558000  0.79375000  0.84561000  1.0 0.1223966443
H  H379  1  0.31899000  0.74811000  0.81290000  1.0 0.1223966443
H  H380  1  0.44739000  0.85438000  0.87819000  1.0 0.1000010981
H  H381  1  0.53767000  0.86000000  0.88719000  1.0 0.1000010981
H  H382  1  0.60527000  0.92506000  0.94861000  1.0 0.1253679434
H  H383  1  0.66316000  0.91794000  0.99408000  1.0 0.1223966443
H  H384  1  0.58167000  0.78179000  0.91592000  1.0 0.1000010981
C  C1  1  0.85720000  0.38270000  0.34970000  1.0 -0.0147750767
C  C2  1  0.82610000  0.35260000  0.30550000  1.0 -0.1207160362
C  C3  1  0.84010000  0.33320000  0.27930000  1.0 -0.0911183601
C  C4  1  0.88540000  0.34120000  0.29580000  1.0 -0.0778156226
C  C5  1  0.91700000  0.37180000  0.34240000  1.0 0.0536701076
C  C6  1  0.90060000  0.32100000  0.26400000  1.0 0.5945266143
C  C7  1  0.06080000  0.40550000  0.35690000  1.0 0.0914454887
C  C8  1  0.10140000  0.44250000  0.39610000  1.0 -0.1463590502
C  C9  1  0.13540000  0.46980000  0.39200000  1.0 -0.0587241671
C  C10  1  0.12770000  0.46040000  0.34750000  1.0 -0.0735686149
C  C11  1  0.08680000  0.42280000  0.31120000  1.0 0.0742502851
C  C12  1  0.16200000  0.49080000  0.34020000  1.0 0.598900693
C  C13  1  0.96700000  0.11730000  0.97450000  1.0 -0.0147750767
C  C14  1  0.95290000  0.14740000  0.97350000  1.0 -0.1207160362
C  C15  1  0.94610000  0.16680000  0.00690000  1.0 -0.0911183601
C  C16  1  0.95460000  0.15880000  0.04420000  1.0 -0.0778156226
C  C17  1  0.97060000  0.12820000  0.04520000  1.0 0.0536701076
C  C18  1  0.94300000  0.17900000  0.07960000  1.0 0.5945266143
C  C19  1  0.95140000  0.09450000  0.15530000  1.0 0.0914454887
C  C20  1  0.95360000  0.05750000  0.15890000  1.0 -0.1463590502
C  C21  1  0.92220000  0.03020000  0.16560000  1.0 -0.0587241671
C  C22  1  0.88710000  0.03960000  0.16730000  1.0 -0.0735686149
C  C23  1  0.88840000  0.07720000  0.16400000  1.0 0.0742502851
C  C24  1  0.84940000  0.00920000  0.17120000  1.0 0.598900693
C  C25  1  0.64280000  0.99250000  0.52550000  1.0 -0.0147750767
C  C26  1  0.67390000  0.97940000  0.52650000  1.0 -0.1207160362
C  C27  1  0.65990000  0.93920000  0.49310000  1.0 -0.0911183601
C  C28  1  0.61460000  0.91040000  0.45580000  1.0 -0.0778156226
C  C29  1  0.58300000  0.92540000  0.45480000  1.0 0.0536701076
C  C30  1  0.59940000  0.86340000  0.42040000  1.0 0.598900693
C  C31  1  0.43920000  0.79610000  0.34470000  1.0 0.0914454887
C  C32  1  0.39860000  0.79470000  0.34110000  1.0 -0.1463590502
C  C33  1  0.36460000  0.75660000  0.33440000  1.0 -0.0587241671
C  C34  1  0.37230000  0.71980000  0.33270000  1.0 -0.0735686149
C  C35  1  0.41320000  0.72440000  0.33600000  1.0 0.0742502851
C  C36  1  0.33800000  0.67820000  0.32880000  1.0 0.598900693
C  C37  1  0.53300000  0.50750000  0.15030000  1.0 -0.0147750767
C  C38  1  0.54710000  0.52060000  0.19450000  1.0 -0.1207160362
C  C39  1  0.55390000  0.56080000  0.22070000  1.0 -0.0911183601
C  C40  1  0.54540000  0.58960000  0.20420000  1.0 -0.0778156226
C  C41  1  0.52940000  0.57460000  0.15760000  1.0 0.0536701076
C  C42  1  0.55700000  0.63660000  0.23600000  1.0 0.5945266143
C  C43  1  0.54860000  0.70390000  0.14310000  1.0 0.0914454887
C  C44  1  0.54640000  0.70530000  0.10390000  1.0 -0.1463590502
C  C45  1  0.57780000  0.74340000  0.10800000  1.0 -0.0587241671
C  C46  1  0.61290000  0.78020000  0.15250000  1.0 -0.0735686149
C  C47  1  0.61160000  0.77560000  0.18880000  1.0 0.0742502851
C  C48  1  0.65060000  0.82180000  0.15980000  1.0 0.598900693
C  C49  1  0.97450000  0.96700000  0.11730000  1.0 -0.0147750767
C  C50  1  0.97350000  0.95290000  0.14740000  1.0 -0.1207160362
C  C51  1  0.00690000  0.94610000  0.16680000  1.0 -0.0911183601
C  C52  1  0.04420000  0.95460000  0.15880000  1.0 -0.0778156226
C  C53  1  0.04520000  0.97060000  0.12820000  1.0 0.0536701076
C  C54  1  0.07960000  0.94300000  0.17900000  1.0 0.5945266143
C  C55  1  0.15530000  0.95140000  0.09450000  1.0 0.0914454887
C  C56  1  0.15890000  0.95360000  0.05750000  1.0 -0.1463590502
C  C57  1  0.16560000  0.92220000  0.03020000  1.0 -0.0587241671
C  C58  1  0.16730000  0.88710000  0.03960000  1.0 -0.0735686149
C  C59  1  0.16400000  0.88840000  0.07720000  1.0 0.0742502851
C  C60  1  0.17120000  0.84940000  0.00920000  1.0 0.598900693
C  C61  1  0.34970000  0.85720000  0.38270000  1.0 -0.0147750767
C  C62  1  0.30550000  0.82610000  0.35260000  1.0 -0.1207160362
C  C63  1  0.27930000  0.84010000  0.33320000  1.0 -0.0911183601
C  C64  1  0.29580000  0.88540000  0.34120000  1.0 -0.0778156226
C  C65  1  0.34240000  0.91700000  0.37180000  1.0 0.0536701076
C  C66  1  0.26400000  0.90060000  0.32100000  1.0 0.5945266143
C  C67  1  0.35690000  0.06080000  0.40550000  1.0 0.0914454887
C  C68  1  0.39610000  0.10140000  0.44250000  1.0 -0.1463590502
C  C69  1  0.39200000  0.13540000  0.46980000  1.0 -0.0587241671
C  C70  1  0.34750000  0.12770000  0.46040000  1.0 -0.0735686149
C  C71  1  0.31120000  0.08680000  0.42280000  1.0 0.0742502851
C  C72  1  0.34020000  0.16200000  0.49080000  1.0 0.598900693
C  C73  1  0.15030000  0.53300000  0.50750000  1.0 -0.0154891869
C  C74  1  0.19450000  0.54710000  0.52060000  1.0 -0.1207160362
C  C75  1  0.22070000  0.55390000  0.56080000  1.0 -0.0911183601
C  C76  1  0.20420000  0.54540000  0.58960000  1.0 -0.0778156226
C  C77  1  0.15760000  0.52940000  0.57460000  1.0 0.0536701076
C  C78  1  0.23600000  0.55700000  0.63660000  1.0 0.598900693
C  C79  1  0.14310000  0.54860000  0.70390000  1.0 0.0914454887
C  C80  1  0.10390000  0.54640000  0.70530000  1.0 -0.1463590502
C  C81  1  0.10800000  0.57780000  0.74340000  1.0 -0.0587241671
C  C82  1  0.15250000  0.61290000  0.78020000  1.0 -0.0735686149
C  C83  1  0.18880000  0.61160000  0.77560000  1.0 0.0742502851
C  C84  1  0.15980000  0.65060000  0.82180000  1.0 0.598900693
C  C85  1  0.52550000  0.64280000  0.99250000  1.0 -0.0147750767
C  C86  1  0.52650000  0.67390000  0.97940000  1.0 -0.1207160362
C  C87  1  0.49310000  0.65990000  0.93920000  1.0 -0.0911183601
C  C88  1  0.45580000  0.61460000  0.91040000  1.0 -0.0778156226
C  C89  1  0.45480000  0.58300000  0.92540000  1.0 0.0536701076
C  C90  1  0.42040000  0.59940000  0.86340000  1.0 0.598900693
C  C91  1  0.34470000  0.43920000  0.79610000  1.0 0.0914454887
C  C92  1  0.34110000  0.39860000  0.79470000  1.0 -0.1463590502
C  C93  1  0.33440000  0.36460000  0.75660000  1.0 -0.0587241671
C  C94  1  0.33270000  0.37230000  0.71980000  1.0 -0.0735686149
C  C95  1  0.33600000  0.41320000  0.72440000  1.0 0.0742502851
C  C96  1  0.32880000  0.33800000  0.67820000  1.0 0.598900693
C  C97  1  0.50750000  0.15030000  0.53300000  1.0 -0.0147750767
C  C98  1  0.52060000  0.19450000  0.54710000  1.0 -0.1207160362
C  C99  1  0.56080000  0.22070000  0.55390000  1.0 -0.0911183601
C  C100  1  0.58960000  0.20420000  0.54540000  1.0 -0.0778156226
C  C101  1  0.57460000  0.15760000  0.52940000  1.0 0.0536701076
C  C102  1  0.63660000  0.23600000  0.55700000  1.0 0.598900693
C  C103  1  0.70390000  0.14310000  0.54860000  1.0 0.0914454887
C  C104  1  0.70530000  0.10390000  0.54640000  1.0 -0.1463590502
C  C105  1  0.74340000  0.10800000  0.57780000  1.0 -0.0587241671
C  C106  1  0.78020000  0.15250000  0.61290000  1.0 -0.0735686149
C  C107  1  0.77560000  0.18880000  0.61160000  1.0 0.0742502851
C  C108  1  0.82180000  0.15980000  0.65060000  1.0 0.598900693
C  C109  1  0.99250000  0.52550000  0.64280000  1.0 -0.0147750767
C  C110  1  0.97940000  0.52650000  0.67390000  1.0 -0.1207160362
C  C111  1  0.93920000  0.49310000  0.65990000  1.0 -0.0911183601
C  C112  1  0.91040000  0.45580000  0.61460000  1.0 -0.0778156226
C  C113  1  0.92540000  0.45480000  0.58300000  1.0 0.0536701076
C  C114  1  0.86340000  0.42040000  0.59940000  1.0 0.598900693
C  C115  1  0.79610000  0.34470000  0.43920000  1.0 0.0914454887
C  C116  1  0.79470000  0.34110000  0.39860000  1.0 -0.1463590502
C  C117  1  0.75660000  0.33440000  0.36460000  1.0 -0.0587241671
C  C118  1  0.71980000  0.33270000  0.37230000  1.0 -0.0735686149
C  C119  1  0.72440000  0.33600000  0.41320000  1.0 0.0742502851
C  C120  1  0.67820000  0.32880000  0.33800000  1.0 0.598900693
C  C121  1  0.11730000  0.97450000  0.96700000  1.0 -0.0147750767
C  C122  1  0.14740000  0.97350000  0.95290000  1.0 -0.1207160362
C  C123  1  0.16680000  0.00690000  0.94610000  1.0 -0.0911183601
C  C124  1  0.15880000  0.04420000  0.95460000  1.0 -0.0778156226
C  C125  1  0.12820000  0.04520000  0.97060000  1.0 0.0536701076
C  C126  1  0.17900000  0.07960000  0.94300000  1.0 0.598900693
C  C127  1  0.09450000  0.15530000  0.95140000  1.0 0.0914454887
C  C128  1  0.05750000  0.15890000  0.95360000  1.0 -0.1463590502
C  C129  1  0.03020000  0.16560000  0.92220000  1.0 -0.0587241671
C  C130  1  0.03960000  0.16730000  0.88710000  1.0 -0.0735686149
C  C131  1  0.07720000  0.16400000  0.88840000  1.0 0.0742502851
C  C132  1  0.00920000  0.17120000  0.84940000  1.0 0.598900693
C  C133  1  0.38270000  0.34970000  0.85720000  1.0 -0.0147750767
C  C134  1  0.35260000  0.30550000  0.82610000  1.0 -0.1207160362
C  C135  1  0.33320000  0.27930000  0.84010000  1.0 -0.0911183601
C  C136  1  0.34120000  0.29580000  0.88540000  1.0 -0.0778156226
C  C137  1  0.37180000  0.34240000  0.91700000  1.0 0.0536701076
C  C138  1  0.32100000  0.26400000  0.90060000  1.0 0.598900693
C  C139  1  0.40550000  0.35690000  0.06080000  1.0 0.0914454887
C  C140  1  0.44250000  0.39610000  0.10140000  1.0 -0.1463590502
C  C141  1  0.46980000  0.39200000  0.13540000  1.0 -0.0587241671
C  C142  1  0.46040000  0.34750000  0.12770000  1.0 -0.0735686149
C  C143  1  0.42280000  0.31120000  0.08680000  1.0 0.0742502851
C  C144  1  0.49080000  0.34020000  0.16200000  1.0 0.598900693
C  C145  1  0.15030000  0.11730000  0.64280000  1.0 -0.0147750767
C  C146  1  0.19450000  0.14740000  0.67390000  1.0 -0.1207160362
C  C147  1  0.22070000  0.16680000  0.65990000  1.0 -0.0911183601
C  C148  1  0.20420000  0.15880000  0.61460000  1.0 -0.0778156226
C  C149  1  0.15760000  0.12820000  0.58300000  1.0 0.0536701076
C  C150  1  0.23600000  0.17900000  0.59940000  1.0 0.598900693
C  C151  1  0.14310000  0.09450000  0.43920000  1.0 0.0914454887
C  C152  1  0.10390000  0.05750000  0.39860000  1.0 -0.1463590502
C  C153  1  0.10800000  0.03020000  0.36460000  1.0 -0.0587241671
C  C154  1  0.15250000  0.03960000  0.37230000  1.0 -0.0735686149
C  C155  1  0.18880000  0.07720000  0.41320000  1.0 0.0742502851
C  C156  1  0.15980000  0.00920000  0.33800000  1.0 0.598900693
C  C157  1  0.52550000  0.38270000  0.53300000  1.0 -0.0147750767
C  C158  1  0.52650000  0.35260000  0.54710000  1.0 -0.1207160362
C  C159  1  0.49310000  0.33320000  0.55390000  1.0 -0.0911183601
C  C160  1  0.45580000  0.34120000  0.54540000  1.0 -0.0778156226
C  C161  1  0.45480000  0.37180000  0.52940000  1.0 0.0536701076
C  C162  1  0.42040000  0.32100000  0.55700000  1.0 0.598900693
C  C163  1  0.34470000  0.40550000  0.54860000  1.0 0.0914454887
C  C164  1  0.34110000  0.44250000  0.54640000  1.0 -0.1463590502
C  C165  1  0.33440000  0.46980000  0.57780000  1.0 -0.0587241671
C  C166  1  0.33270000  0.46040000  0.61290000  1.0 -0.0735686149
C  C167  1  0.33600000  0.42280000  0.61160000  1.0 0.0742502851
C  C168  1  0.32880000  0.49080000  0.65060000  1.0 0.598900693
C  C169  1  0.97450000  0.50750000  0.85720000  1.0 -0.0147750767
C  C170  1  0.97350000  0.52060000  0.82610000  1.0 -0.1207160362
C  C171  1  0.00690000  0.56080000  0.84010000  1.0 -0.0911183601
C  C172  1  0.04420000  0.58960000  0.88540000  1.0 -0.0778156226
C  C173  1  0.04520000  0.57460000  0.91700000  1.0 0.0536701076
C  C174  1  0.07960000  0.63660000  0.90060000  1.0 0.598900693
C  C175  1  0.15530000  0.70390000  0.06080000  1.0 0.0914454887
C  C176  1  0.15890000  0.70530000  0.10140000  1.0 -0.1463590502
C  C177  1  0.16560000  0.74340000  0.13540000  1.0 -0.0587241671
C  C178  1  0.16730000  0.78020000  0.12770000  1.0 -0.0735686149
C  C179  1  0.16400000  0.77560000  0.08680000  1.0 0.0742502851
C  C180  1  0.17120000  0.82180000  0.16200000  1.0 0.598900693
C  C181  1  0.34970000  0.99250000  0.96700000  1.0 -0.0147750767
C  C182  1  0.30550000  0.97940000  0.95290000  1.0 -0.1207160362
C  C183  1  0.27930000  0.93920000  0.94610000  1.0 -0.0911183601
C  C184  1  0.29580000  0.91040000  0.95460000  1.0 -0.0778156226
C  C185  1  0.34240000  0.92540000  0.97060000  1.0 0.0536701076
C  C186  1  0.26400000  0.86340000  0.94300000  1.0 0.5945266143
C  C187  1  0.35690000  0.79610000  0.95140000  1.0 0.0914454887
C  C188  1  0.39610000  0.79470000  0.95360000  1.0 -0.1463590502
C  C189  1  0.39200000  0.75660000  0.92220000  1.0 -0.0587241671
C  C190  1  0.34750000  0.71980000  0.88710000  1.0 -0.0735686149
C  C191  1  0.31120000  0.72440000  0.88840000  1.0 0.0742502851
C  C192  1  0.34020000  0.67820000  0.84940000  1.0 0.598900693
C  C193  1  0.38270000  0.53300000  0.52550000  1.0 -0.0147750767
C  C194  1  0.35260000  0.54710000  0.52650000  1.0 -0.1207160362
C  C195  1  0.33320000  0.55390000  0.49310000  1.0 -0.0911183601
C  C196  1  0.34120000  0.54540000  0.45580000  1.0 -0.0778156226
C  C197  1  0.37180000  0.52940000  0.45480000  1.0 0.0536701076
C  C198  1  0.32100000  0.55700000  0.42040000  1.0 0.598900693
C  C199  1  0.40550000  0.54860000  0.34470000  1.0 0.0914454887
C  C200  1  0.44250000  0.54640000  0.34110000  1.0 -0.1463590502
C  C201  1  0.46980000  0.57780000  0.33440000  1.0 -0.0587241671
C  C202  1  0.46040000  0.61290000  0.33270000  1.0 -0.0735686149
C  C203  1  0.42280000  0.61160000  0.33600000  1.0 0.0742502851
C  C204  1  0.49080000  0.65060000  0.32880000  1.0 0.598900693
C  C205  1  0.11730000  0.64280000  0.15030000  1.0 -0.0154891869
C  C206  1  0.14740000  0.67390000  0.19450000  1.0 -0.1207160362
C  C207  1  0.16680000  0.65990000  0.22070000  1.0 -0.0911183601
C  C208  1  0.15880000  0.61460000  0.20420000  1.0 -0.0778156226
C  C209  1  0.12820000  0.58300000  0.15760000  1.0 0.0536701076
C  C210  1  0.17900000  0.59940000  0.23600000  1.0 0.5945266143
C  C211  1  0.09450000  0.43920000  0.14310000  1.0 0.0914454887
C  C212  1  0.05750000  0.39860000  0.10390000  1.0 -0.1463590502
C  C213  1  0.03020000  0.36460000  0.10800000  1.0 -0.0587241671
C  C214  1  0.03960000  0.37230000  0.15250000  1.0 -0.0735686149
C  C215  1  0.07720000  0.41320000  0.18880000  1.0 0.0742502851
C  C216  1  0.00920000  0.33800000  0.15980000  1.0 0.598900693
C  C217  1  0.99250000  0.96700000  0.34970000  1.0 -0.0147750767
C  C218  1  0.97940000  0.95290000  0.30550000  1.0 -0.1207160362
C  C219  1  0.93920000  0.94610000  0.27930000  1.0 -0.0911183601
C  C220  1  0.91040000  0.95460000  0.29580000  1.0 -0.0778156226
C  C221  1  0.92540000  0.97060000  0.34240000  1.0 0.0536701076
C  C222  1  0.86340000  0.94300000  0.26400000  1.0 0.598900693
C  C223  1  0.79610000  0.95140000  0.35690000  1.0 0.0914454887
C  C224  1  0.79470000  0.95360000  0.39610000  1.0 -0.1463590502
C  C225  1  0.75660000  0.92220000  0.39200000  1.0 -0.0587241671
C  C226  1  0.71980000  0.88710000  0.34750000  1.0 -0.0735686149
C  C227  1  0.72440000  0.88840000  0.31120000  1.0 0.0742502851
C  C228  1  0.67820000  0.84940000  0.34020000  1.0 0.598900693
C  C229  1  0.50750000  0.85720000  0.97450000  1.0 -0.0154891869
C  C230  1  0.52060000  0.82610000  0.97350000  1.0 -0.1207160362
C  C231  1  0.56080000  0.84010000  0.00690000  1.0 -0.0911183601
C  C232  1  0.58960000  0.88540000  0.04420000  1.0 -0.0778156226
C  C233  1  0.57460000  0.91700000  0.04520000  1.0 0.0536701076
C  C234  1  0.63660000  0.90060000  0.07960000  1.0 0.598900693
C  C235  1  0.70390000  0.06080000  0.15530000  1.0 0.0914454887
C  C236  1  0.70530000  0.10140000  0.15890000  1.0 -0.1463590502
C  C237  1  0.74340000  0.13540000  0.16560000  1.0 -0.0587241671
C  C238  1  0.78020000  0.12770000  0.16730000  1.0 -0.0735686149
C  C239  1  0.77560000  0.08680000  0.16400000  1.0 0.0742502851
C  C240  1  0.82180000  0.16200000  0.17120000  1.0 0.598900693
C  C241  1  0.96700000  0.34970000  0.99250000  1.0 -0.0154891869
C  C242  1  0.95290000  0.30550000  0.97940000  1.0 -0.1207160362
C  C243  1  0.94610000  0.27930000  0.93920000  1.0 -0.0911183601
C  C244  1  0.95460000  0.29580000  0.91040000  1.0 -0.0778156226
C  C245  1  0.97060000  0.34240000  0.92540000  1.0 0.0536701076
C  C246  1  0.94300000  0.26400000  0.86340000  1.0 0.598900693
C  C247  1  0.95140000  0.35690000  0.79610000  1.0 0.0914454887
C  C248  1  0.95360000  0.39610000  0.79470000  1.0 -0.1463590502
C  C249  1  0.92220000  0.39200000  0.75660000  1.0 -0.0587241671
C  C250  1  0.88710000  0.34750000  0.71980000  1.0 -0.0735686149
C  C251  1  0.88840000  0.31120000  0.72440000  1.0 0.0742502851
C  C252  1  0.84940000  0.34020000  0.67820000  1.0 0.598900693
C  C253  1  0.85720000  0.97450000  0.50750000  1.0 -0.0147750767
C  C254  1  0.82610000  0.97350000  0.52060000  1.0 -0.1207160362
C  C255  1  0.84010000  0.00690000  0.56080000  1.0 -0.0911183601
C  C256  1  0.88540000  0.04420000  0.58960000  1.0 -0.0778156226
C  C257  1  0.91700000  0.04520000  0.57460000  1.0 0.0536701076
C  C258  1  0.90060000  0.07960000  0.63660000  1.0 0.5945266143
C  C259  1  0.06080000  0.15530000  0.70390000  1.0 0.0914454887
C  C260  1  0.10140000  0.15890000  0.70530000  1.0 -0.1463590502
C  C261  1  0.13540000  0.16560000  0.74340000  1.0 -0.0587241671
C  C262  1  0.12770000  0.16730000  0.78020000  1.0 -0.0735686149
C  C263  1  0.08680000  0.16400000  0.77560000  1.0 0.0742502851
C  C264  1  0.16200000  0.17120000  0.82180000  1.0 0.598900693
C  C265  1  0.53300000  0.52550000  0.38270000  1.0 -0.0147750767
C  C266  1  0.54710000  0.52650000  0.35260000  1.0 -0.1207160362
C  C267  1  0.55390000  0.49310000  0.33320000  1.0 -0.0911183601
C  C268  1  0.54540000  0.45580000  0.34120000  1.0 -0.0778156226
C  C269  1  0.52940000  0.45480000  0.37180000  1.0 0.0536701076
C  C270  1  0.55700000  0.42040000  0.32100000  1.0 0.5945266143
C  C271  1  0.54860000  0.34470000  0.40550000  1.0 0.0914454887
C  C272  1  0.54640000  0.34110000  0.44250000  1.0 -0.1463590502
C  C273  1  0.57780000  0.33440000  0.46980000  1.0 -0.0587241671
C  C274  1  0.61290000  0.33270000  0.46040000  1.0 -0.0735686149
C  C275  1  0.61160000  0.33600000  0.42280000  1.0 0.0742502851
C  C276  1  0.65060000  0.32880000  0.49080000  1.0 0.598900693
C  C277  1  0.64280000  0.15030000  0.11730000  1.0 -0.0147750767
C  C278  1  0.67390000  0.19450000  0.14740000  1.0 -0.1207160362
C  C279  1  0.65990000  0.22070000  0.16680000  1.0 -0.0911183601
C  C280  1  0.61460000  0.20420000  0.15880000  1.0 -0.0778156226
C  C281  1  0.58300000  0.15760000  0.12820000  1.0 0.0536701076
C  C282  1  0.59940000  0.23600000  0.17900000  1.0 0.598900693
C  C283  1  0.43920000  0.14310000  0.09450000  1.0 0.0914454887
C  C284  1  0.39860000  0.10390000  0.05750000  1.0 -0.1463590502
C  C285  1  0.36460000  0.10800000  0.03020000  1.0 -0.0587241671
C  C286  1  0.37230000  0.15250000  0.03960000  1.0 -0.0735686149
C  C287  1  0.41320000  0.18880000  0.07720000  1.0 0.0742502851
C  C288  1  0.33800000  0.15980000  0.00920000  1.0 0.598900693
C  C289  1  0.14280000  0.61730000  0.65030000  1.0 -0.0154891869
C  C290  1  0.17390000  0.64740000  0.69450000  1.0 -0.1207160362
C  C291  1  0.15990000  0.66680000  0.72070000  1.0 -0.0911183601
C  C292  1  0.11460000  0.65880000  0.70420000  1.0 -0.0778156226
C  C293  1  0.08300000  0.62820000  0.65760000  1.0 0.0536701076
C  C294  1  0.09940000  0.67900000  0.73600000  1.0 0.598900693
C  C295  1  0.93920000  0.59450000  0.64310000  1.0 0.0914454887
C  C296  1  0.89860000  0.55750000  0.60390000  1.0 -0.1463590502
C  C297  1  0.86460000  0.53020000  0.60800000  1.0 -0.0587241671
C  C298  1  0.87230000  0.53960000  0.65250000  1.0 -0.0735686149
C  C299  1  0.91320000  0.57720000  0.68880000  1.0 0.0742502851
C  C300  1  0.83800000  0.50920000  0.65980000  1.0 0.598900693
C  C301  1  0.03300000  0.88270000  0.02550000  1.0 -0.0147750767
C  C302  1  0.04710000  0.85260000  0.02650000  1.0 -0.1207160362
C  C303  1  0.05390000  0.83320000  0.99310000  1.0 -0.0911183601
C  C304  1  0.04540000  0.84120000  0.95580000  1.0 -0.0778156226
C  C305  1  0.02940000  0.87180000  0.95480000  1.0 0.0536701076
C  C306  1  0.05700000  0.82100000  0.92040000  1.0 0.5945266143
C  C307  1  0.04860000  0.90550000  0.84470000  1.0 0.0914454887
C  C308  1  0.04640000  0.94250000  0.84110000  1.0 -0.1463590502
C  C309  1  0.07780000  0.96980000  0.83440000  1.0 -0.0587241671
C  C310  1  0.11290000  0.96040000  0.83270000  1.0 -0.0735686149
C  C311  1  0.11160000  0.92280000  0.83600000  1.0 0.0742502851
C  C312  1  0.15060000  0.99080000  0.82880000  1.0 0.598900693
C  C313  1  0.35720000  0.00750000  0.47450000  1.0 -0.0147750767
C  C314  1  0.32610000  0.02060000  0.47350000  1.0 -0.1207160362
C  C315  1  0.34010000  0.06080000  0.50690000  1.0 -0.0911183601
C  C316  1  0.38540000  0.08960000  0.54420000  1.0 -0.0778156226
C  C317  1  0.41700000  0.07460000  0.54520000  1.0 0.0536701076
C  C318  1  0.40060000  0.13660000  0.57960000  1.0 0.598900693
C  C319  1  0.56080000  0.20390000  0.65530000  1.0 0.0914454887
C  C320  1  0.60140000  0.20530000  0.65890000  1.0 -0.1463590502
C  C321  1  0.63540000  0.24340000  0.66560000  1.0 -0.0587241671
C  C322  1  0.62770000  0.28020000  0.66730000  1.0 -0.0735686149
C  C323  1  0.58680000  0.27560000  0.66400000  1.0 0.0742502851
C  C324  1  0.66200000  0.32180000  0.67120000  1.0 0.598900693
C  C325  1  0.46700000  0.49250000  0.84970000  1.0 -0.0147750767
C  C326  1  0.45290000  0.47940000  0.80550000  1.0 -0.1207160362
C  C327  1  0.44610000  0.43920000  0.77930000  1.0 -0.0911183601
C  C328  1  0.45460000  0.41040000  0.79580000  1.0 -0.0778156226
C  C329  1  0.47060000  0.42540000  0.84240000  1.0 0.0536701076
C  C330  1  0.44300000  0.36340000  0.76400000  1.0 0.598900693
C  C331  1  0.45140000  0.29610000  0.85690000  1.0 0.0914454887
C  C332  1  0.45360000  0.29470000  0.89610000  1.0 -0.1463590502
C  C333  1  0.42220000  0.25660000  0.89200000  1.0 -0.0587241671
C  C334  1  0.38710000  0.21980000  0.84750000  1.0 -0.0735686149
C  C335  1  0.38840000  0.22440000  0.81120000  1.0 0.0742502851
C  C336  1  0.34940000  0.17820000  0.84020000  1.0 0.598900693
C  C337  1  0.02550000  0.03300000  0.88270000  1.0 -0.0147750767
C  C338  1  0.02650000  0.04710000  0.85260000  1.0 -0.1207160362
C  C339  1  0.99310000  0.05390000  0.83320000  1.0 -0.0911183601
C  C340  1  0.95580000  0.04540000  0.84120000  1.0 -0.0778156226
C  C341  1  0.95480000  0.02940000  0.87180000  1.0 0.0536701076
C  C342  1  0.92040000  0.05700000  0.82100000  1.0 0.598900693
C  C343  1  0.84470000  0.04860000  0.90550000  1.0 0.0914454887
C  C344  1  0.84110000  0.04640000  0.94250000  1.0 -0.1463590502
C  C345  1  0.83440000  0.07780000  0.96980000  1.0 -0.0587241671
C  C346  1  0.83270000  0.11290000  0.96040000  1.0 -0.0735686149
C  C347  1  0.83600000  0.11160000  0.92280000  1.0 0.0742502851
C  C348  1  0.82880000  0.15060000  0.99080000  1.0 0.598900693
C  C349  1  0.65030000  0.14280000  0.61730000  1.0 -0.0147750767
C  C350  1  0.69450000  0.17390000  0.64740000  1.0 -0.1207160362
C  C351  1  0.72070000  0.15990000  0.66680000  1.0 -0.0911183601
C  C352  1  0.70420000  0.11460000  0.65880000  1.0 -0.0778156226
C  C353  1  0.65760000  0.08300000  0.62820000  1.0 0.0536701076
C  C354  1  0.73600000  0.09940000  0.67900000  1.0 0.598900693
C  C355  1  0.64310000  0.93920000  0.59450000  1.0 0.0914454887
C  C356  1  0.60390000  0.89860000  0.55750000  1.0 -0.1463590502
C  C357  1  0.60800000  0.86460000  0.53020000  1.0 -0.0587241671
C  C358  1  0.65250000  0.87230000  0.53960000  1.0 -0.0735686149
C  C359  1  0.68880000  0.91320000  0.57720000  1.0 0.0742502851
C  C360  1  0.65980000  0.83800000  0.50920000  1.0 0.598900693
C  C361  1  0.84970000  0.46700000  0.49250000  1.0 -0.0147750767
C  C362  1  0.80550000  0.45290000  0.47940000  1.0 -0.1207160362
C  C363  1  0.77930000  0.44610000  0.43920000  1.0 -0.0911183601
C  C364  1  0.79580000  0.45460000  0.41040000  1.0 -0.0778156226
C  C365  1  0.84240000  0.47060000  0.42540000  1.0 0.0536701076
C  C366  1  0.76400000  0.44300000  0.36340000  1.0 0.5945266143
C  C367  1  0.85690000  0.45140000  0.29610000  1.0 0.0914454887
C  C368  1  0.89610000  0.45360000  0.29470000  1.0 -0.1463590502
C  C369  1  0.89200000  0.42220000  0.25660000  1.0 -0.0587241671
C  C370  1  0.84750000  0.38710000  0.21980000  1.0 -0.0735686149
C  C371  1  0.81120000  0.38840000  0.22440000  1.0 0.0742502851
C  C372  1  0.84020000  0.34940000  0.17820000  1.0 0.598900693
C  C373  1  0.47450000  0.35720000  0.00750000  1.0 -0.0147750767
C  C374  1  0.47350000  0.32610000  0.02060000  1.0 -0.1207160362
C  C375  1  0.50690000  0.34010000  0.06080000  1.0 -0.0911183601
C  C376  1  0.54420000  0.38540000  0.08960000  1.0 -0.0778156226
C  C377  1  0.54520000  0.41700000  0.07460000  1.0 0.0536701076
C  C378  1  0.57960000  0.40060000  0.13660000  1.0 0.5945266143
C  C379  1  0.65530000  0.56080000  0.20390000  1.0 0.0914454887
C  C380  1  0.65890000  0.60140000  0.20530000  1.0 -0.1463590502
C  C381  1  0.66560000  0.63540000  0.24340000  1.0 -0.0587241671
C  C382  1  0.66730000  0.62770000  0.28020000  1.0 -0.0735686149
C  C383  1  0.66400000  0.58680000  0.27560000  1.0 0.0742502851
C  C384  1  0.67120000  0.66200000  0.32180000  1.0 0.598900693
C  C385  1  0.49250000  0.84970000  0.46700000  1.0 -0.0147750767
C  C386  1  0.47940000  0.80550000  0.45290000  1.0 -0.1207160362
C  C387  1  0.43920000  0.77930000  0.44610000  1.0 -0.0911183601
C  C388  1  0.41040000  0.79580000  0.45460000  1.0 -0.0778156226
C  C389  1  0.42540000  0.84240000  0.47060000  1.0 0.0536701076
C  C390  1  0.36340000  0.76400000  0.44300000  1.0 0.598900693
C  C391  1  0.29610000  0.85690000  0.45140000  1.0 0.0914454887
C  C392  1  0.29470000  0.89610000  0.45360000  1.0 -0.1463590502
C  C393  1  0.25660000  0.89200000  0.42220000  1.0 -0.0587241671
C  C394  1  0.21980000  0.84750000  0.38710000  1.0 -0.0735686149
C  C395  1  0.22440000  0.81120000  0.38840000  1.0 0.0742502851
C  C396  1  0.17820000  0.84020000  0.34940000  1.0 0.598900693
C  C397  1  0.00750000  0.47450000  0.35720000  1.0 -0.0154891869
C  C398  1  0.02060000  0.47350000  0.32610000  1.0 -0.1207160362
C  C399  1  0.06080000  0.50690000  0.34010000  1.0 -0.0911183601
C  C400  1  0.08960000  0.54420000  0.38540000  1.0 -0.0778156226
C  C401  1  0.07460000  0.54520000  0.41700000  1.0 0.0536701076
C  C402  1  0.13660000  0.57960000  0.40060000  1.0 0.598900693
C  C403  1  0.20390000  0.65530000  0.56080000  1.0 0.0914454887
C  C404  1  0.20530000  0.65890000  0.60140000  1.0 -0.1463590502
C  C405  1  0.24340000  0.66560000  0.63540000  1.0 -0.0587241671
C  C406  1  0.28020000  0.66730000  0.62770000  1.0 -0.0735686149
C  C407  1  0.27560000  0.66400000  0.58680000  1.0 0.0742502851
C  C408  1  0.32180000  0.67120000  0.66200000  1.0 0.598900693
C  C409  1  0.88270000  0.02550000  0.03300000  1.0 -0.0147750767
C  C410  1  0.85260000  0.02650000  0.04710000  1.0 -0.1207160362
C  C411  1  0.83320000  0.99310000  0.05390000  1.0 -0.0911183601
C  C412  1  0.84120000  0.95580000  0.04540000  1.0 -0.0778156226
C  C413  1  0.87180000  0.95480000  0.02940000  1.0 0.0536701076
C  C414  1  0.82100000  0.92040000  0.05700000  1.0 0.598900693
C  C415  1  0.90550000  0.84470000  0.04860000  1.0 0.0914454887
C  C416  1  0.94250000  0.84110000  0.04640000  1.0 -0.1463590502
C  C417  1  0.96980000  0.83440000  0.07780000  1.0 -0.0587241671
C  C418  1  0.96040000  0.83270000  0.11290000  1.0 -0.0735686149
C  C419  1  0.92280000  0.83600000  0.11160000  1.0 0.0742502851
C  C420  1  0.99080000  0.82880000  0.15060000  1.0 0.598900693
C  C421  1  0.61730000  0.65030000  0.14280000  1.0 -0.0147750767
C  C422  1  0.64740000  0.69450000  0.17390000  1.0 -0.1207160362
C  C423  1  0.66680000  0.72070000  0.15990000  1.0 -0.0911183601
C  C424  1  0.65880000  0.70420000  0.11460000  1.0 -0.0778156226
C  C425  1  0.62820000  0.65760000  0.08300000  1.0 0.0536701076
C  C426  1  0.67900000  0.73600000  0.09940000  1.0 0.598900693
C  C427  1  0.59450000  0.64310000  0.93920000  1.0 0.0914454887
C  C428  1  0.55750000  0.60390000  0.89860000  1.0 -0.1463590502
C  C429  1  0.53020000  0.60800000  0.86460000  1.0 -0.0587241671
C  C430  1  0.53960000  0.65250000  0.87230000  1.0 -0.0735686149
C  C431  1  0.57720000  0.68880000  0.91320000  1.0 0.0742502851
C  C432  1  0.50920000  0.65980000  0.83800000  1.0 0.598900693
C  C433  1  0.84970000  0.88270000  0.35720000  1.0 -0.0147750767
C  C434  1  0.80550000  0.85260000  0.32610000  1.0 -0.1207160362
C  C435  1  0.77930000  0.83320000  0.34010000  1.0 -0.0911183601
C  C436  1  0.79580000  0.84120000  0.38540000  1.0 -0.0778156226
C  C437  1  0.84240000  0.87180000  0.41700000  1.0 0.0536701076
C  C438  1  0.76400000  0.82100000  0.40060000  1.0 0.5945266143
C  C439  1  0.85690000  0.90550000  0.56080000  1.0 0.0914454887
C  C440  1  0.89610000  0.94250000  0.60140000  1.0 -0.1463590502
C  C441  1  0.89200000  0.96980000  0.63540000  1.0 -0.0587241671
C  C442  1  0.84750000  0.96040000  0.62770000  1.0 -0.0735686149
C  C443  1  0.81120000  0.92280000  0.58680000  1.0 0.0742502851
C  C444  1  0.84020000  0.99080000  0.66200000  1.0 0.598900693
C  C445  1  0.47450000  0.61730000  0.46700000  1.0 -0.0154891869
C  C446  1  0.47350000  0.64740000  0.45290000  1.0 -0.1207160362
C  C447  1  0.50690000  0.66680000  0.44610000  1.0 -0.0911183601
C  C448  1  0.54420000  0.65880000  0.45460000  1.0 -0.0778156226
C  C449  1  0.54520000  0.62820000  0.47060000  1.0 0.0536701076
C  C450  1  0.57960000  0.67900000  0.44300000  1.0 0.598900693
C  C451  1  0.65530000  0.59450000  0.45140000  1.0 0.0914454887
C  C452  1  0.65890000  0.55750000  0.45360000  1.0 -0.1463590502
C  C453  1  0.66560000  0.53020000  0.42220000  1.0 -0.0587241671
C  C454  1  0.66730000  0.53960000  0.38710000  1.0 -0.0735686149
C  C455  1  0.66400000  0.57720000  0.38840000  1.0 0.0742502851
C  C456  1  0.67120000  0.50920000  0.34940000  1.0 0.598900693
C  C457  1  0.02550000  0.49250000  0.14280000  1.0 -0.0154891869
C  C458  1  0.02650000  0.47940000  0.17390000  1.0 -0.1207160362
C  C459  1  0.99310000  0.43920000  0.15990000  1.0 -0.0911183601
C  C460  1  0.95580000  0.41040000  0.11460000  1.0 -0.0778156226
C  C461  1  0.95480000  0.42540000  0.08300000  1.0 0.0536701076
C  C462  1  0.92040000  0.36340000  0.09940000  1.0 0.5945266143
C  C463  1  0.84470000  0.29610000  0.93920000  1.0 0.0914454887
C  C464  1  0.84110000  0.29470000  0.89860000  1.0 -0.1463590502
C  C465  1  0.83440000  0.25660000  0.86460000  1.0 -0.0587241671
C  C466  1  0.83270000  0.21980000  0.87230000  1.0 -0.0735686149
C  C467  1  0.83600000  0.22440000  0.91320000  1.0 0.0742502851
C  C468  1  0.82880000  0.17820000  0.83800000  1.0 0.598900693
C  C469  1  0.65030000  0.00750000  0.03300000  1.0 -0.0154891869
C  C470  1  0.69450000  0.02060000  0.04710000  1.0 -0.1207160362
C  C471  1  0.72070000  0.06080000  0.05390000  1.0 -0.0911183601
C  C472  1  0.70420000  0.08960000  0.04540000  1.0 -0.0778156226
C  C473  1  0.65760000  0.07460000  0.02940000  1.0 0.0536701076
C  C474  1  0.73600000  0.13660000  0.05700000  1.0 0.598900693
C  C475  1  0.64310000  0.20390000  0.04860000  1.0 0.0914454887
C  C476  1  0.60390000  0.20530000  0.04640000  1.0 -0.1463590502
C  C477  1  0.60800000  0.24340000  0.07780000  1.0 -0.0587241671
C  C478  1  0.65250000  0.28020000  0.11290000  1.0 -0.0735686149
C  C479  1  0.68880000  0.27560000  0.11160000  1.0 0.0742502851
C  C480  1  0.65980000  0.32180000  0.15060000  1.0 0.598900693
C  C481  1  0.61730000  0.46700000  0.47450000  1.0 -0.0147750767
C  C482  1  0.64740000  0.45290000  0.47350000  1.0 -0.1207160362
C  C483  1  0.66680000  0.44610000  0.50690000  1.0 -0.0911183601
C  C484  1  0.65880000  0.45460000  0.54420000  1.0 -0.0778156226
C  C485  1  0.62820000  0.47060000  0.54520000  1.0 0.0536701076
C  C486  1  0.67900000  0.44300000  0.57960000  1.0 0.598900693
C  C487  1  0.59450000  0.45140000  0.65530000  1.0 0.0914454887
C  C488  1  0.55750000  0.45360000  0.65890000  1.0 -0.1463590502
C  C489  1  0.53020000  0.42220000  0.66560000  1.0 -0.0587241671
C  C490  1  0.53960000  0.38710000  0.66730000  1.0 -0.0735686149
C  C491  1  0.57720000  0.38840000  0.66400000  1.0 0.0742502851
C  C492  1  0.50920000  0.34940000  0.67120000  1.0 0.598900693
C  C493  1  0.88270000  0.35720000  0.84970000  1.0 -0.0147750767
C  C494  1  0.85260000  0.32610000  0.80550000  1.0 -0.1207160362
C  C495  1  0.83320000  0.34010000  0.77930000  1.0 -0.0911183601
C  C496  1  0.84120000  0.38540000  0.79580000  1.0 -0.0778156226
C  C497  1  0.87180000  0.41700000  0.84240000  1.0 0.0536701076
C  C498  1  0.82100000  0.40060000  0.76400000  1.0 0.598900693
C  C499  1  0.90550000  0.56080000  0.85690000  1.0 0.0914454887
C  C500  1  0.94250000  0.60140000  0.89610000  1.0 -0.1463590502
C  C501  1  0.96980000  0.63540000  0.89200000  1.0 -0.0587241671
C  C502  1  0.96040000  0.62770000  0.84750000  1.0 -0.0735686149
C  C503  1  0.92280000  0.58680000  0.81120000  1.0 0.0742502851
C  C504  1  0.99080000  0.66200000  0.84020000  1.0 0.598900693
C  C505  1  0.00750000  0.03300000  0.65030000  1.0 -0.0147750767
C  C506  1  0.02060000  0.04710000  0.69450000  1.0 -0.1207160362
C  C507  1  0.06080000  0.05390000  0.72070000  1.0 -0.0911183601
C  C508  1  0.08960000  0.04540000  0.70420000  1.0 -0.0778156226
C  C509  1  0.07460000  0.02940000  0.65760000  1.0 0.0536701076
C  C510  1  0.13660000  0.05700000  0.73600000  1.0 0.598900693
C  C511  1  0.20390000  0.04860000  0.64310000  1.0 0.0914454887
C  C512  1  0.20530000  0.04640000  0.60390000  1.0 -0.1463590502
C  C513  1  0.24340000  0.07780000  0.60800000  1.0 -0.0587241671
C  C514  1  0.28020000  0.11290000  0.65250000  1.0 -0.0735686149
C  C515  1  0.27560000  0.11160000  0.68880000  1.0 0.0742502851
C  C516  1  0.32180000  0.15060000  0.65980000  1.0 0.598900693
C  C517  1  0.49250000  0.14280000  0.02550000  1.0 -0.0147750767
C  C518  1  0.47940000  0.17390000  0.02650000  1.0 -0.1207160362
C  C519  1  0.43920000  0.15990000  0.99310000  1.0 -0.0911183601
C  C520  1  0.41040000  0.11460000  0.95580000  1.0 -0.0778156226
C  C521  1  0.42540000  0.08300000  0.95480000  1.0 0.0536701076
C  C522  1  0.36340000  0.09940000  0.92040000  1.0 0.598900693
C  C523  1  0.29610000  0.93920000  0.84470000  1.0 0.0914454887
C  C524  1  0.29470000  0.89860000  0.84110000  1.0 -0.1463590502
C  C525  1  0.25660000  0.86460000  0.83440000  1.0 -0.0587241671
C  C526  1  0.21980000  0.87230000  0.83270000  1.0 -0.0735686149
C  C527  1  0.22440000  0.91320000  0.83600000  1.0 0.0742502851
C  C528  1  0.17820000  0.83800000  0.82880000  1.0 0.598900693
C  C529  1  0.03300000  0.65030000  0.00750000  1.0 -0.0147750767
C  C530  1  0.04710000  0.69450000  0.02060000  1.0 -0.1207160362
C  C531  1  0.05390000  0.72070000  0.06080000  1.0 -0.0911183601
C  C532  1  0.04540000  0.70420000  0.08960000  1.0 -0.0778156226
C  C533  1  0.02940000  0.65760000  0.07460000  1.0 0.0536701076
C  C534  1  0.05700000  0.73600000  0.13660000  1.0 0.5945266143
C  C535  1  0.04860000  0.64310000  0.20390000  1.0 0.0914454887
C  C536  1  0.04640000  0.60390000  0.20530000  1.0 -0.1463590502
C  C537  1  0.07780000  0.60800000  0.24340000  1.0 -0.0587241671
C  C538  1  0.11290000  0.65250000  0.28020000  1.0 -0.0735686149
C  C539  1  0.11160000  0.68880000  0.27560000  1.0 0.0742502851
C  C540  1  0.15060000  0.65980000  0.32180000  1.0 0.598900693
C  C541  1  0.14280000  0.02550000  0.49250000  1.0 -0.0147750767
C  C542  1  0.17390000  0.02650000  0.47940000  1.0 -0.1207160362
C  C543  1  0.15990000  0.99310000  0.43920000  1.0 -0.0911183601
C  C544  1  0.11460000  0.95580000  0.41040000  1.0 -0.0778156226
C  C545  1  0.08300000  0.95480000  0.42540000  1.0 0.0536701076
C  C546  1  0.09940000  0.92040000  0.36340000  1.0 0.5945266143
C  C547  1  0.93920000  0.84470000  0.29610000  1.0 0.0914454887
C  C548  1  0.89860000  0.84110000  0.29470000  1.0 -0.1463590502
C  C549  1  0.86460000  0.83440000  0.25660000  1.0 -0.0587241671
C  C550  1  0.87230000  0.83270000  0.21980000  1.0 -0.0735686149
C  C551  1  0.91320000  0.83600000  0.22440000  1.0 0.0742502851
C  C552  1  0.83800000  0.82880000  0.17820000  1.0 0.598900693
C  C553  1  0.46700000  0.47450000  0.61730000  1.0 -0.0147750767
C  C554  1  0.45290000  0.47350000  0.64740000  1.0 -0.1207160362
C  C555  1  0.44610000  0.50690000  0.66680000  1.0 -0.0911183601
C  C556  1  0.45460000  0.54420000  0.65880000  1.0 -0.0778156226
C  C557  1  0.47060000  0.54520000  0.62820000  1.0 0.0536701076
C  C558  1  0.44300000  0.57960000  0.67900000  1.0 0.598900693
C  C559  1  0.45140000  0.65530000  0.59450000  1.0 0.0914454887
C  C560  1  0.45360000  0.65890000  0.55750000  1.0 -0.1463590502
C  C561  1  0.42220000  0.66560000  0.53020000  1.0 -0.0587241671
C  C562  1  0.38710000  0.66730000  0.53960000  1.0 -0.0735686149
C  C563  1  0.38840000  0.66400000  0.57720000  1.0 0.0742502851
C  C564  1  0.34940000  0.67120000  0.50920000  1.0 0.598900693
C  C565  1  0.35720000  0.84970000  0.88270000  1.0 -0.0154891869
C  C566  1  0.32610000  0.80550000  0.85260000  1.0 -0.1207160362
C  C567  1  0.34010000  0.77930000  0.83320000  1.0 -0.0911183601
C  C568  1  0.38540000  0.79580000  0.84120000  1.0 -0.0778156226
C  C569  1  0.41700000  0.84240000  0.87180000  1.0 0.0536701076
C  C570  1  0.40060000  0.76400000  0.82100000  1.0 0.598900693
C  C571  1  0.56080000  0.85690000  0.90550000  1.0 0.0914454887
C  C572  1  0.60140000  0.89610000  0.94250000  1.0 -0.1463590502
C  C573  1  0.63540000  0.89200000  0.96980000  1.0 -0.0587241671
C  C574  1  0.62770000  0.84750000  0.96040000  1.0 -0.0735686149
C  C575  1  0.58680000  0.81120000  0.92280000  1.0 0.0742502851
C  C576  1  0.66200000  0.84020000  0.99080000  1.0 0.598900693
N  N1  1  0.90310000  0.39220000  0.37030000  1.0 -0.2512978248
N  N2  1  0.05430000  0.39570000  0.31480000  1.0 -0.3956031588
N  N3  1  0.97810000  0.10780000  0.01090000  1.0 -0.2512978248
N  N4  1  0.91910000  0.10430000  0.15860000  1.0 -0.3937163063
N  N5  1  0.59690000  0.96720000  0.48910000  1.0 -0.2512978248
N  N6  1  0.44570000  0.76050000  0.34140000  1.0 -0.3937163063
N  N7  1  0.52190000  0.53280000  0.12970000  1.0 -0.2512978248
N  N8  1  0.58090000  0.73950000  0.18520000  1.0 -0.3937163063
N  N9  1  0.01090000  0.97810000  0.10780000  1.0 -0.2512978248
N  N10  1  0.15860000  0.91910000  0.10430000  1.0 -0.3937163063
N  N11  1  0.37030000  0.90310000  0.39220000  1.0 -0.2512978248
N  N12  1  0.31480000  0.05430000  0.39570000  1.0 -0.3937163063
N  N13  1  0.12970000  0.52190000  0.53280000  1.0 -0.2512978248
N  N14  1  0.18520000  0.58090000  0.73950000  1.0 -0.3937163063
N  N15  1  0.48910000  0.59690000  0.96720000  1.0 -0.2512978248
N  N16  1  0.34140000  0.44570000  0.76050000  1.0 -0.3937163063
N  N17  1  0.53280000  0.12970000  0.52190000  1.0 -0.2512978248
N  N18  1  0.73950000  0.18520000  0.58090000  1.0 -0.3937163063
N  N19  1  0.96720000  0.48910000  0.59690000  1.0 -0.2512978248
N  N20  1  0.76050000  0.34140000  0.44570000  1.0 -0.3937163063
N  N21  1  0.10780000  0.01090000  0.97810000  1.0 -0.2512978248
N  N22  1  0.10430000  0.15860000  0.91910000  1.0 -0.3937163063
N  N23  1  0.39220000  0.37030000  0.90310000  1.0 -0.2512978248
N  N24  1  0.39570000  0.31480000  0.05430000  1.0 -0.3937163063
N  N25  1  0.12970000  0.10780000  0.59690000  1.0 -0.2512978248
N  N26  1  0.18520000  0.10430000  0.44570000  1.0 -0.3937163063
N  N27  1  0.48910000  0.39220000  0.52190000  1.0 -0.2512978248
N  N28  1  0.34140000  0.39570000  0.58090000  1.0 -0.3937163063
N  N29  1  0.01090000  0.53280000  0.90310000  1.0 -0.2512978248
N  N30  1  0.15860000  0.73950000  0.05430000  1.0 -0.3937163063
N  N31  1  0.37030000  0.96720000  0.97810000  1.0 -0.2512978248
N  N32  1  0.31480000  0.76050000  0.91910000  1.0 -0.3956031588
N  N33  1  0.39220000  0.52190000  0.48910000  1.0 -0.2512978248
N  N34  1  0.39570000  0.58090000  0.34140000  1.0 -0.3937163063
N  N35  1  0.10780000  0.59690000  0.12970000  1.0 -0.2512978248
N  N36  1  0.10430000  0.44570000  0.18520000  1.0 -0.3937163063
N  N37  1  0.96720000  0.97810000  0.37030000  1.0 -0.2512978248
N  N38  1  0.76050000  0.91910000  0.31480000  1.0 -0.3937163063
N  N39  1  0.53280000  0.90310000  0.01090000  1.0 -0.2512978248
N  N40  1  0.73950000  0.05430000  0.15860000  1.0 -0.3937163063
N  N41  1  0.97810000  0.37030000  0.96720000  1.0 -0.2512978248
N  N42  1  0.91910000  0.31480000  0.76050000  1.0 -0.3937163063
N  N43  1  0.90310000  0.01090000  0.53280000  1.0 -0.2512978248
N  N44  1  0.05430000  0.15860000  0.73950000  1.0 -0.3937163063
N  N45  1  0.52190000  0.48910000  0.39220000  1.0 -0.2512978248
N  N46  1  0.58090000  0.34140000  0.39570000  1.0 -0.3937163063
N  N47  1  0.59690000  0.12970000  0.10780000  1.0 -0.2512978248
N  N48  1  0.44570000  0.18520000  0.10430000  1.0 -0.3937163063
N  N49  1  0.09690000  0.60780000  0.62970000  1.0 -0.2512978248
N  N50  1  0.94570000  0.60430000  0.68520000  1.0 -0.3937163063
N  N51  1  0.02190000  0.89220000  0.98910000  1.0 -0.2512978248
N  N52  1  0.08090000  0.89570000  0.84140000  1.0 -0.3956031588
N  N53  1  0.40310000  0.03280000  0.51090000  1.0 -0.2512978248
N  N54  1  0.55430000  0.23950000  0.65860000  1.0 -0.3937163063
N  N55  1  0.47810000  0.46720000  0.87030000  1.0 -0.2512978248
N  N56  1  0.41910000  0.26050000  0.81480000  1.0 -0.3937163063
N  N57  1  0.98910000  0.02190000  0.89220000  1.0 -0.2512978248
N  N58  1  0.84140000  0.08090000  0.89570000  1.0 -0.3937163063
N  N59  1  0.62970000  0.09690000  0.60780000  1.0 -0.2512978248
N  N60  1  0.68520000  0.94570000  0.60430000  1.0 -0.3956031588
N  N61  1  0.87030000  0.47810000  0.46720000  1.0 -0.2512978248
N  N62  1  0.81480000  0.41910000  0.26050000  1.0 -0.3937163063
N  N63  1  0.51090000  0.40310000  0.03280000  1.0 -0.2512978248
N  N64  1  0.65860000  0.55430000  0.23950000  1.0 -0.3937163063
N  N65  1  0.46720000  0.87030000  0.47810000  1.0 -0.2512978248
N  N66  1  0.26050000  0.81480000  0.41910000  1.0 -0.3937163063
N  N67  1  0.03280000  0.51090000  0.40310000  1.0 -0.2512978248
N  N68  1  0.23950000  0.65860000  0.55430000  1.0 -0.3956031588
N  N69  1  0.89220000  0.98910000  0.02190000  1.0 -0.2512978248
N  N70  1  0.89570000  0.84140000  0.08090000  1.0 -0.3956031588
N  N71  1  0.60780000  0.62970000  0.09690000  1.0 -0.2512978248
N  N72  1  0.60430000  0.68520000  0.94570000  1.0 -0.3937163063
N  N73  1  0.87030000  0.89220000  0.40310000  1.0 -0.2512978248
N  N74  1  0.81480000  0.89570000  0.55430000  1.0 -0.3937163063
N  N75  1  0.51090000  0.60780000  0.47810000  1.0 -0.2512978248
N  N76  1  0.65860000  0.60430000  0.41910000  1.0 -0.3956031588
N  N77  1  0.98910000  0.46720000  0.09690000  1.0 -0.2512978248
N  N78  1  0.84140000  0.26050000  0.94570000  1.0 -0.3937163063
N  N79  1  0.62970000  0.03280000  0.02190000  1.0 -0.2512978248
N  N80  1  0.68520000  0.23950000  0.08090000  1.0 -0.3937163063
N  N81  1  0.60780000  0.47810000  0.51090000  1.0 -0.2512978248
N  N82  1  0.60430000  0.41910000  0.65860000  1.0 -0.3937163063
N  N83  1  0.89220000  0.40310000  0.87030000  1.0 -0.2512978248
N  N84  1  0.89570000  0.55430000  0.81480000  1.0 -0.3937163063
N  N85  1  0.03280000  0.02190000  0.62970000  1.0 -0.2512978248
N  N86  1  0.23950000  0.08090000  0.68520000  1.0 -0.3937163063
N  N87  1  0.46720000  0.09690000  0.98910000  1.0 -0.2512978248
N  N88  1  0.26050000  0.94570000  0.84140000  1.0 -0.3937163063
N  N89  1  0.02190000  0.62970000  0.03280000  1.0 -0.2512978248
N  N90  1  0.08090000  0.68520000  0.23950000  1.0 -0.3937163063
N  N91  1  0.09690000  0.98910000  0.46720000  1.0 -0.2512978248
N  N92  1  0.94570000  0.84140000  0.26050000  1.0 -0.3937163063
N  N93  1  0.47810000  0.51090000  0.60780000  1.0 -0.2512978248
N  N94  1  0.41910000  0.65860000  0.60430000  1.0 -0.3937163063
N  N95  1  0.40310000  0.87030000  0.89220000  1.0 -0.2512978248
N  N96  1  0.55430000  0.81480000  0.89570000  1.0 -0.3937163063
O  O1  1  0.91969000  0.29526000  0.17269000  1.0 -1.0328488767
O  O2  1  0.86792000  0.28954000  0.22262000  1.0 -0.5488074094
O  O3  1  0.19757000  0.52606000  0.37549000  1.0 -0.5328951125
O  O4  1  0.97130000  0.25370000  0.17644000  1.0 -1.1234148711
O  O5  1  0.94260000  0.33530000  0.27850000  1.0 -0.6370499185
O  O6  1  0.15167000  0.47868000  0.29919000  1.0 -0.6370499185
O  O7  1  0.87743000  0.20474000  0.12443000  1.0 -1.0328488767
O  O8  1  0.93308000  0.21046000  0.07838000  1.0 -0.5488074094
O  O9  1  0.84943000  0.97394000  0.17151000  1.0 -0.5328951125
O  O10  1  0.92274000  0.24630000  0.21760000  1.0 -1.1234148711
O  O11  1  0.94320000  0.16470000  0.10730000  1.0 -0.6370499185
O  O12  1  0.82051000  0.02132000  0.17299000  1.0 -0.6370499185
O  O13  1  0.58031000  0.75300000  0.37557000  1.0 -1.0328488767
O  O14  1  0.63208000  0.85470000  0.42162000  1.0 -0.5488074094
O  O15  1  0.30243000  0.67792000  0.32849000  1.0 -0.5328951125
O  O16  1  0.52870000  0.70514000  0.28240000  1.0 -1.1234148711
O  O17  1  0.55740000  0.83590000  0.39270000  1.0 -0.6370499185
O  O18  1  0.34833000  0.64752000  0.32701000  1.0 -0.6370499185
O  O19  1  0.62257000  0.74700000  0.32731000  1.0 -1.0328488767
O  O20  1  0.56692000  0.64530000  0.27738000  1.0 -0.5488074094
O  O21  1  0.65057000  0.82208000  0.12451000  1.0 -0.5328951125
O  O22  1  0.57726000  0.79486000  0.32356000  1.0 -1.1234148711
O  O23  1  0.55680000  0.66410000  0.22150000  1.0 -0.6370499185
O  O24  1  0.67949000  0.85248000  0.20081000  1.0 -0.6370499185
O  O25  1  0.12443000  0.87743000  0.20474000  1.0 -1.0328488767
O  O26  1  0.07838000  0.93308000  0.21046000  1.0 -0.5488074094
O  O27  1  0.17151000  0.84943000  0.97394000  1.0 -0.5328951125
O  O28  1  0.21760000  0.92274000  0.24630000  1.0 -1.1234148711
O  O29  1  0.10730000  0.94320000  0.16470000  1.0 -0.6370499185
O  O30  1  0.17299000  0.82051000  0.02132000  1.0 -0.6370499185
O  O31  1  0.17269000  0.91969000  0.29526000  1.0 -1.0328488767
O  O32  1  0.22262000  0.86792000  0.28954000  1.0 -0.5488074094
O  O33  1  0.37549000  0.19757000  0.52606000  1.0 -0.5328951125
O  O34  1  0.17644000  0.97130000  0.25370000  1.0 -1.1234148711
O  O35  1  0.27850000  0.94260000  0.33530000  1.0 -0.6370499185
O  O36  1  0.29919000  0.15167000  0.47868000  1.0 -0.6370499185
O  O37  1  0.32731000  0.62257000  0.74700000  1.0 -1.0328488767
O  O38  1  0.27738000  0.56692000  0.64530000  1.0 -0.5488074094
O  O39  1  0.12451000  0.65057000  0.82208000  1.0 -0.5328951125
O  O40  1  0.32356000  0.57726000  0.79486000  1.0 -1.1234148711
O  O41  1  0.22150000  0.55680000  0.66410000  1.0 -0.6370499185
O  O42  1  0.20081000  0.67949000  0.85248000  1.0 -0.6370499185
O  O43  1  0.37557000  0.58031000  0.75300000  1.0 -1.0328488767
O  O44  1  0.42162000  0.63208000  0.85470000  1.0 -0.5488074094
O  O45  1  0.32849000  0.30243000  0.67792000  1.0 -0.5328951125
O  O46  1  0.28240000  0.52870000  0.70514000  1.0 -1.1234148711
O  O47  1  0.39270000  0.55740000  0.83590000  1.0 -0.6370499185
O  O48  1  0.32701000  0.34833000  0.64752000  1.0 -0.6370499185
O  O49  1  0.74700000  0.32731000  0.62257000  1.0 -1.0328488767
O  O50  1  0.64530000  0.27738000  0.56692000  1.0 -0.5488074094
O  O51  1  0.82208000  0.12451000  0.65057000  1.0 -0.5328951125
O  O52  1  0.79486000  0.32356000  0.57726000  1.0 -1.1268441423
O  O53  1  0.66410000  0.22150000  0.55680000  1.0 -0.6370499185
O  O54  1  0.85248000  0.20081000  0.67949000  1.0 -0.6370499185
O  O55  1  0.75300000  0.37557000  0.58031000  1.0 -1.0328488767
O  O56  1  0.85470000  0.42162000  0.63208000  1.0 -0.5488074094
O  O57  1  0.67792000  0.32849000  0.30243000  1.0 -0.5328951125
O  O58  1  0.70514000  0.28240000  0.52870000  1.0 -1.1234148711
O  O59  1  0.83590000  0.39270000  0.55740000  1.0 -0.6370499185
O  O60  1  0.64752000  0.32701000  0.34833000  1.0 -0.6370499185
O  O61  1  0.20474000  0.12443000  0.87743000  1.0 -1.0328488767
O  O62  1  0.21046000  0.07838000  0.93308000  1.0 -0.5488074094
O  O63  1  0.97394000  0.17151000  0.84943000  1.0 -0.5328951125
O  O64  1  0.24630000  0.21760000  0.92274000  1.0 -1.1268441423
O  O65  1  0.16470000  0.10730000  0.94320000  1.0 -0.6370499185
O  O66  1  0.02132000  0.17299000  0.82051000  1.0 -0.6370499185
O  O67  1  0.29526000  0.17269000  0.91969000  1.0 -1.0328488767
O  O68  1  0.28954000  0.22262000  0.86792000  1.0 -0.5488074094
O  O69  1  0.52606000  0.37549000  0.19757000  1.0 -0.5328951125
O  O70  1  0.25370000  0.17644000  0.97130000  1.0 -1.1268441423
O  O71  1  0.33530000  0.27850000  0.94260000  1.0 -0.6370499185
O  O72  1  0.47868000  0.29919000  0.15167000  1.0 -0.6370499185
O  O73  1  0.32731000  0.20474000  0.58031000  1.0 -1.0328488767
O  O74  1  0.27738000  0.21046000  0.63208000  1.0 -0.5488074094
O  O75  1  0.12451000  0.97394000  0.30243000  1.0 -0.5328951125
O  O76  1  0.32356000  0.24630000  0.52870000  1.0 -1.1268441423
O  O77  1  0.22150000  0.16470000  0.55740000  1.0 -0.6370499185
O  O78  1  0.20081000  0.02132000  0.34833000  1.0 -0.6370499185
O  O79  1  0.37557000  0.29526000  0.62257000  1.0 -1.0328488767
O  O80  1  0.42162000  0.28954000  0.56692000  1.0 -0.5488074094
O  O81  1  0.32849000  0.52606000  0.65057000  1.0 -0.5328951125
O  O82  1  0.28240000  0.25370000  0.57726000  1.0 -1.1268441423
O  O83  1  0.39270000  0.33530000  0.55680000  1.0 -0.6370499185
O  O84  1  0.32701000  0.47868000  0.67949000  1.0 -0.6370499185
O  O85  1  0.12443000  0.74700000  0.91969000  1.0 -1.0328488767
O  O86  1  0.07838000  0.64530000  0.86792000  1.0 -0.5488074094
O  O87  1  0.17151000  0.82208000  0.19757000  1.0 -0.5328951125
O  O88  1  0.21760000  0.79486000  0.97130000  1.0 -1.1234148711
O  O89  1  0.10730000  0.66410000  0.94260000  1.0 -0.6370499185
O  O90  1  0.17299000  0.85248000  0.15167000  1.0 -0.6370499185
O  O91  1  0.17269000  0.75300000  0.87743000  1.0 -1.0328488767
O  O92  1  0.22262000  0.85470000  0.93308000  1.0 -0.5488074094
O  O93  1  0.37549000  0.67792000  0.84943000  1.0 -0.5328951125
O  O94  1  0.17644000  0.70514000  0.92274000  1.0 -1.1234148711
O  O95  1  0.27850000  0.83590000  0.94320000  1.0 -0.6370499185
O  O96  1  0.29919000  0.64752000  0.82051000  1.0 -0.6370499185
O  O97  1  0.29526000  0.62257000  0.37557000  1.0 -1.0328488767
O  O98  1  0.28954000  0.56692000  0.42162000  1.0 -0.5488074094
O  O99  1  0.52606000  0.65057000  0.32849000  1.0 -0.5328951125
O  O100  1  0.25370000  0.57726000  0.28240000  1.0 -1.1234148711
O  O101  1  0.33530000  0.55680000  0.39270000  1.0 -0.6370499185
O  O102  1  0.47868000  0.67949000  0.32701000  1.0 -0.6370499185
O  O103  1  0.20474000  0.58031000  0.32731000  1.0 -1.0328488767
O  O104  1  0.21046000  0.63208000  0.27738000  1.0 -0.5488074094
O  O105  1  0.97394000  0.30243000  0.12451000  1.0 -0.5328951125
O  O106  1  0.24630000  0.52870000  0.32356000  1.0 -1.1234148711
O  O107  1  0.16470000  0.55740000  0.22150000  1.0 -0.6370499185
O  O108  1  0.02132000  0.34833000  0.20081000  1.0 -0.6370499185
O  O109  1  0.75300000  0.87743000  0.17269000  1.0 -1.0328488767
O  O110  1  0.85470000  0.93308000  0.22262000  1.0 -0.5488074094
O  O111  1  0.67792000  0.84943000  0.37549000  1.0 -0.5328951125
O  O112  1  0.70514000  0.92274000  0.17644000  1.0 -1.1234148711
O  O113  1  0.83590000  0.94320000  0.27850000  1.0 -0.6370499185
O  O114  1  0.64752000  0.82051000  0.29919000  1.0 -0.6370499185
O  O115  1  0.74700000  0.91969000  0.12443000  1.0 -1.0328488767
O  O116  1  0.64530000  0.86792000  0.07838000  1.0 -0.5488074094
O  O117  1  0.82208000  0.19757000  0.17151000  1.0 -0.5328951125
O  O118  1  0.79486000  0.97130000  0.21760000  1.0 -1.1234148711
O  O119  1  0.66410000  0.94260000  0.10730000  1.0 -0.6370499185
O  O120  1  0.85248000  0.15167000  0.17299000  1.0 -0.6370499185
O  O121  1  0.87743000  0.17269000  0.75300000  1.0 -1.0328488767
O  O122  1  0.93308000  0.22262000  0.85470000  1.0 -0.5488074094
O  O123  1  0.84943000  0.37549000  0.67792000  1.0 -0.5328951125
O  O124  1  0.92274000  0.17644000  0.70514000  1.0 -1.1234148711
O  O125  1  0.94320000  0.27850000  0.83590000  1.0 -0.6370499185
O  O126  1  0.82051000  0.29919000  0.64752000  1.0 -0.6370499185
O  O127  1  0.91969000  0.12443000  0.74700000  1.0 -1.0328488767
O  O128  1  0.86792000  0.07838000  0.64530000  1.0 -0.5488074094
O  O129  1  0.19757000  0.17151000  0.82208000  1.0 -0.5328951125
O  O130  1  0.97130000  0.21760000  0.79486000  1.0 -1.1234148711
O  O131  1  0.94260000  0.10730000  0.66410000  1.0 -0.6370499185
O  O132  1  0.15167000  0.17299000  0.85248000  1.0 -0.6370499185
O  O133  1  0.62257000  0.37557000  0.29526000  1.0 -1.0328488767
O  O134  1  0.56692000  0.42162000  0.28954000  1.0 -0.5488074094
O  O135  1  0.65057000  0.32849000  0.52606000  1.0 -0.5328951125
O  O136  1  0.57726000  0.28240000  0.25370000  1.0 -1.1268441423
O  O137  1  0.55680000  0.39270000  0.33530000  1.0 -0.6340170845
O  O138  1  0.67949000  0.32701000  0.47868000  1.0 -0.6370499185
O  O139  1  0.58031000  0.32731000  0.20474000  1.0 -1.0328488767
O  O140  1  0.63208000  0.27738000  0.21046000  1.0 -0.5488074094
O  O141  1  0.30243000  0.12451000  0.97394000  1.0 -0.5328951125
O  O142  1  0.52870000  0.32356000  0.24630000  1.0 -1.1234148711
O  O143  1  0.55740000  0.22150000  0.16470000  1.0 -0.6370499185
O  O144  1  0.34833000  0.20081000  0.02132000  1.0 -0.6370499185
O  O145  1  0.08031000  0.70474000  0.82731000  1.0 -1.0328488767
O  O146  1  0.13208000  0.71046000  0.77738000  1.0 -0.5488074094
O  O147  1  0.80243000  0.47394000  0.62451000  1.0 -0.5328951125
O  O148  1  0.02870000  0.74630000  0.82356000  1.0 -1.1234148711
O  O149  1  0.05740000  0.66470000  0.72150000  1.0 -0.6370499185
O  O150  1  0.84833000  0.52132000  0.70081000  1.0 -0.6370499185
O  O151  1  0.12257000  0.79526000  0.87557000  1.0 -1.0328488767
O  O152  1  0.06692000  0.78954000  0.92162000  1.0 -0.5488074094
O  O153  1  0.15057000  0.02606000  0.82849000  1.0 -0.5328951125
O  O154  1  0.07726000  0.75370000  0.78240000  1.0 -1.1234148711
O  O155  1  0.05680000  0.83530000  0.89270000  1.0 -0.6370499185
O  O156  1  0.17949000  0.97868000  0.82701000  1.0 -0.6370499185
O  O157  1  0.41969000  0.24700000  0.62443000  1.0 -1.0328488767
O  O158  1  0.36792000  0.14530000  0.57838000  1.0 -0.5488074094
O  O159  1  0.69757000  0.32208000  0.67151000  1.0 -0.5328951125
O  O160  1  0.47130000  0.29486000  0.71760000  1.0 -1.1268441423
O  O161  1  0.44260000  0.16410000  0.60730000  1.0 -0.6370499185
O  O162  1  0.65167000  0.35248000  0.67299000  1.0 -0.6370499185
O  O163  1  0.37743000  0.25300000  0.67269000  1.0 -1.0328488767
O  O164  1  0.43308000  0.35470000  0.72262000  1.0 -0.5488074094
O  O165  1  0.34943000  0.17792000  0.87549000  1.0 -0.5328951125
O  O166  1  0.42274000  0.20514000  0.67644000  1.0 -1.1268441423
O  O167  1  0.44320000  0.33590000  0.77850000  1.0 -0.6370499185
O  O168  1  0.32051000  0.14752000  0.79919000  1.0 -0.6370499185
O  O169  1  0.87557000  0.12257000  0.79526000  1.0 -1.0328488767
O  O170  1  0.92162000  0.06692000  0.78954000  1.0 -0.5488074094
O  O171  1  0.82849000  0.15057000  0.02606000  1.0 -0.5328951125
O  O172  1  0.78240000  0.07726000  0.75370000  1.0 -1.1268441423
O  O173  1  0.89270000  0.05680000  0.83530000  1.0 -0.6370499185
O  O174  1  0.82701000  0.17949000  0.97868000  1.0 -0.6370499185
O  O175  1  0.82731000  0.08031000  0.70474000  1.0 -1.0328488767
O  O176  1  0.77738000  0.13208000  0.71046000  1.0 -0.5488074094
O  O177  1  0.62451000  0.80243000  0.47394000  1.0 -0.5328951125
O  O178  1  0.82356000  0.02870000  0.74630000  1.0 -1.1234148711
O  O179  1  0.72150000  0.05740000  0.66470000  1.0 -0.6370499185
O  O180  1  0.70081000  0.84833000  0.52132000  1.0 -0.6370499185
O  O181  1  0.67269000  0.37743000  0.25300000  1.0 -1.0328488767
O  O182  1  0.72262000  0.43308000  0.35470000  1.0 -0.5488074094
O  O183  1  0.87549000  0.34943000  0.17792000  1.0 -0.5328951125
O  O184  1  0.67644000  0.42274000  0.20514000  1.0 -1.1234148711
O  O185  1  0.77850000  0.44320000  0.33590000  1.0 -0.6340170845
O  O186  1  0.79919000  0.32051000  0.14752000  1.0 -0.6370499185
O  O187  1  0.62443000  0.41969000  0.24700000  1.0 -1.0328488767
O  O188  1  0.57838000  0.36792000  0.14530000  1.0 -0.5488074094
O  O189  1  0.67151000  0.69757000  0.32208000  1.0 -0.5328951125
O  O190  1  0.71760000  0.47130000  0.29486000  1.0 -1.1268441423
O  O191  1  0.60730000  0.44260000  0.16410000  1.0 -0.6370499185
O  O192  1  0.67299000  0.65167000  0.35248000  1.0 -0.6370499185
O  O193  1  0.25300000  0.67269000  0.37743000  1.0 -1.0328488767
O  O194  1  0.35470000  0.72262000  0.43308000  1.0 -0.5488074094
O  O195  1  0.17792000  0.87549000  0.34943000  1.0 -0.5328951125
O  O196  1  0.20514000  0.67644000  0.42274000  1.0 -1.1234148711
O  O197  1  0.33590000  0.77850000  0.44320000  1.0 -0.6370499185
O  O198  1  0.14752000  0.79919000  0.32051000  1.0 -0.6370499185
O  O199  1  0.24700000  0.62443000  0.41969000  1.0 -1.0328488767
O  O200  1  0.14530000  0.57838000  0.36792000  1.0 -0.5488074094
O  O201  1  0.32208000  0.67151000  0.69757000  1.0 -0.5328951125
O  O202  1  0.29486000  0.71760000  0.47130000  1.0 -1.1234148711
O  O203  1  0.16410000  0.60730000  0.44260000  1.0 -0.6370499185
O  O204  1  0.35248000  0.67299000  0.65167000  1.0 -0.6370499185
O  O205  1  0.79526000  0.87557000  0.12257000  1.0 -1.0328488767
O  O206  1  0.78954000  0.92162000  0.06692000  1.0 -0.5488074094
O  O207  1  0.02606000  0.82849000  0.15057000  1.0 -0.5328951125
O  O208  1  0.75370000  0.78240000  0.07726000  1.0 -1.1234148711
O  O209  1  0.83530000  0.89270000  0.05680000  1.0 -0.6370499185
O  O210  1  0.97868000  0.82701000  0.17949000  1.0 -0.6370499185
O  O211  1  0.70474000  0.82731000  0.08031000  1.0 -1.0328488767
O  O212  1  0.71046000  0.77738000  0.13208000  1.0 -0.5488074094
O  O213  1  0.47394000  0.62451000  0.80243000  1.0 -0.5328951125
O  O214  1  0.74630000  0.82356000  0.02870000  1.0 -1.1234148711
O  O215  1  0.66470000  0.72150000  0.05740000  1.0 -0.6370499185
O  O216  1  0.52132000  0.70081000  0.84833000  1.0 -0.6370499185
O  O217  1  0.67269000  0.79526000  0.41969000  1.0 -1.0328488767
O  O218  1  0.72262000  0.78954000  0.36792000  1.0 -0.5488074094
O  O219  1  0.87549000  0.02606000  0.69757000  1.0 -0.5328951125
O  O220  1  0.67644000  0.75370000  0.47130000  1.0 -1.1234148711
O  O221  1  0.77850000  0.83530000  0.44260000  1.0 -0.6340170845
O  O222  1  0.79919000  0.97868000  0.65167000  1.0 -0.6370499185
O  O223  1  0.62443000  0.70474000  0.37743000  1.0 -1.0328488767
O  O224  1  0.57838000  0.71046000  0.43308000  1.0 -0.5488074094
O  O225  1  0.67151000  0.47394000  0.34943000  1.0 -0.5328951125
O  O226  1  0.71760000  0.74630000  0.42274000  1.0 -1.1234148711
O  O227  1  0.60730000  0.66470000  0.44320000  1.0 -0.6370499185
O  O228  1  0.67299000  0.52132000  0.32051000  1.0 -0.6370499185
O  O229  1  0.87557000  0.25300000  0.08031000  1.0 -1.0328488767
O  O230  1  0.92162000  0.35470000  0.13208000  1.0 -0.5488074094
O  O231  1  0.82849000  0.17792000  0.80243000  1.0 -0.5328951125
O  O232  1  0.78240000  0.20514000  0.02870000  1.0 -1.1234148711
O  O233  1  0.89270000  0.33590000  0.05740000  1.0 -0.6340170845
O  O234  1  0.82701000  0.14752000  0.84833000  1.0 -0.6370499185
O  O235  1  0.82731000  0.24700000  0.12257000  1.0 -1.0328488767
O  O236  1  0.77738000  0.14530000  0.06692000  1.0 -0.5488074094
O  O237  1  0.62451000  0.32208000  0.15057000  1.0 -0.5328951125
O  O238  1  0.82356000  0.29486000  0.07726000  1.0 -1.1268441423
O  O239  1  0.72150000  0.16410000  0.05680000  1.0 -0.6370499185
O  O240  1  0.70081000  0.35248000  0.17949000  1.0 -0.6370499185
O  O241  1  0.70474000  0.37743000  0.62443000  1.0 -1.0328488767
O  O242  1  0.71046000  0.43308000  0.57838000  1.0 -0.5488074094
O  O243  1  0.47394000  0.34943000  0.67151000  1.0 -0.5328951125
O  O244  1  0.74630000  0.42274000  0.71760000  1.0 -1.1268441423
O  O245  1  0.66470000  0.44320000  0.60730000  1.0 -0.6370499185
O  O246  1  0.52132000  0.32051000  0.67299000  1.0 -0.6370499185
O  O247  1  0.79526000  0.41969000  0.67269000  1.0 -1.0328488767
O  O248  1  0.78954000  0.36792000  0.72262000  1.0 -0.5488074094
O  O249  1  0.02606000  0.69757000  0.87549000  1.0 -0.5328951125
O  O250  1  0.75370000  0.47130000  0.67644000  1.0 -1.1268441423
O  O251  1  0.83530000  0.44260000  0.77850000  1.0 -0.6370499185
O  O252  1  0.97868000  0.65167000  0.79919000  1.0 -0.6370499185
O  O253  1  0.24700000  0.12257000  0.82731000  1.0 -1.0328488767
O  O254  1  0.14530000  0.06692000  0.77738000  1.0 -0.5488074094
O  O255  1  0.32208000  0.15057000  0.62451000  1.0 -0.5328951125
O  O256  1  0.29486000  0.07726000  0.82356000  1.0 -1.1268441423
O  O257  1  0.16410000  0.05680000  0.72150000  1.0 -0.6370499185
O  O258  1  0.35248000  0.17949000  0.70081000  1.0 -0.6370499185
O  O259  1  0.25300000  0.08031000  0.87557000  1.0 -1.0328488767
O  O260  1  0.35470000  0.13208000  0.92162000  1.0 -0.5488074094
O  O261  1  0.17792000  0.80243000  0.82849000  1.0 -0.5328951125
O  O262  1  0.20514000  0.02870000  0.78240000  1.0 -1.1268441423
O  O263  1  0.33590000  0.05740000  0.89270000  1.0 -0.6370499185
O  O264  1  0.14752000  0.84833000  0.82701000  1.0 -0.6370499185
O  O265  1  0.12257000  0.82731000  0.24700000  1.0 -1.0328488767
O  O266  1  0.06692000  0.77738000  0.14530000  1.0 -0.5488074094
O  O267  1  0.15057000  0.62451000  0.32208000  1.0 -0.5328951125
O  O268  1  0.07726000  0.82356000  0.29486000  1.0 -1.1268441423
O  O269  1  0.05680000  0.72150000  0.16410000  1.0 -0.6370499185
O  O270  1  0.17949000  0.70081000  0.35248000  1.0 -0.6370499185
O  O271  1  0.08031000  0.87557000  0.25300000  1.0 -1.0328488767
O  O272  1  0.13208000  0.92162000  0.35470000  1.0 -0.5488074094
O  O273  1  0.80243000  0.82849000  0.17792000  1.0 -0.5328951125
O  O274  1  0.02870000  0.78240000  0.20514000  1.0 -1.1234148711
O  O275  1  0.05740000  0.89270000  0.33590000  1.0 -0.6370499185
O  O276  1  0.84833000  0.82701000  0.14752000  1.0 -0.6370499185
O  O277  1  0.37743000  0.62443000  0.70474000  1.0 -1.0328488767
O  O278  1  0.43308000  0.57838000  0.71046000  1.0 -0.5488074094
O  O279  1  0.34943000  0.67151000  0.47394000  1.0 -0.5328951125
O  O280  1  0.42274000  0.71760000  0.74630000  1.0 -1.1234148711
O  O281  1  0.44320000  0.60730000  0.66470000  1.0 -0.6370499185
O  O282  1  0.32051000  0.67299000  0.52132000  1.0 -0.6370499185
O  O283  1  0.41969000  0.67269000  0.79526000  1.0 -1.0328488767
O  O284  1  0.36792000  0.72262000  0.78954000  1.0 -0.5488074094
O  O285  1  0.69757000  0.87549000  0.02606000  1.0 -0.5328951125
O  O286  1  0.47130000  0.67644000  0.75370000  1.0 -1.1234148711
O  O287  1  0.44260000  0.77850000  0.83530000  1.0 -0.6370499185
O  O288  1  0.65167000  0.79919000  0.97868000  1.0 -0.6370499185
