# DDEC6 charges by PACMAN v1.1 (https://github.com/mtap-research/PACMAN-charge/)
data_QUGRAO_ASR_pacman
_symmetry_space_group_name_H-M   'P 1'
_cell_length_a   35.50100000
_cell_length_b   35.50100000
_cell_length_c   35.50100000
_cell_angle_alpha   109.47100000
_cell_angle_beta   109.47100000
_cell_angle_gamma   109.47100000
_symmetry_Int_Tables_number   1
_chemical_formula_structural   GdCrH8C12(NO3)2
_chemical_formula_sum   'Gd48 Cr48 H384 C576 N96 O288'
_cell_volume   34443.19389094
_cell_formula_units_Z   48
loop_
 _symmetry_equiv_pos_site_id
 _symmetry_equiv_pos_as_xyz
  1  'x, y, z'
loop_
 _atom_site_type_symbol
 _atom_site_label
 _atom_site_symmetry_multiplicity
 _atom_site_fract_x
 _atom_site_fract_y
 _atom_site_fract_z
 _atom_site_occupancy
 _atom_site_charge
Gd  Gd1  1  0.33476000  0.51439000  0.75473000  1.0 1.9888215432
Gd  Gd2  1  0.25966000  0.58003000  0.74527000  1.0 1.9888215432
Gd  Gd3  1  0.24034000  0.98561000  0.32037000  1.0 1.9888215432
Gd  Gd4  1  0.16524000  0.91997000  0.17963000  1.0 1.9888215432
Gd  Gd5  1  0.75473000  0.33476000  0.51439000  1.0 1.9888215432
Gd  Gd6  1  0.74527000  0.25966000  0.58003000  1.0 1.9888215432
Gd  Gd7  1  0.32037000  0.24034000  0.98561000  1.0 1.9888215432
Gd  Gd8  1  0.17963000  0.16524000  0.91997000  1.0 1.9888215432
Gd  Gd9  1  0.51439000  0.75473000  0.33476000  1.0 1.9888215432
Gd  Gd10  1  0.58003000  0.74527000  0.25966000  1.0 1.9888215432
Gd  Gd11  1  0.98561000  0.32037000  0.24034000  1.0 1.9888215432
Gd  Gd12  1  0.91997000  0.17963000  0.16524000  1.0 1.9888215432
Gd  Gd13  1  0.91997000  0.24034000  0.75473000  1.0 1.9888215432
Gd  Gd14  1  0.98561000  0.16524000  0.74527000  1.0 1.9888215432
Gd  Gd15  1  0.58003000  0.33476000  0.32037000  1.0 1.9888215432
Gd  Gd16  1  0.51439000  0.25966000  0.17963000  1.0 1.9888215432
Gd  Gd17  1  0.25966000  0.17963000  0.51439000  1.0 1.9888215432
Gd  Gd18  1  0.33476000  0.32037000  0.58003000  1.0 1.9888215432
Gd  Gd19  1  0.16524000  0.74527000  0.98561000  1.0 1.9888215432
Gd  Gd20  1  0.24034000  0.75473000  0.91997000  1.0 1.9888215432
Gd  Gd21  1  0.32037000  0.58003000  0.33476000  1.0 1.9888215432
Gd  Gd22  1  0.17963000  0.51439000  0.25966000  1.0 1.9888215432
Gd  Gd23  1  0.75473000  0.91997000  0.24034000  1.0 1.9888215432
Gd  Gd24  1  0.74527000  0.98561000  0.16524000  1.0 1.9888215432
Gd  Gd25  1  0.66524000  0.48561000  0.24527000  1.0 1.9888215432
Gd  Gd26  1  0.74034000  0.41997000  0.25473000  1.0 1.9888215432
Gd  Gd27  1  0.75966000  0.01439000  0.67963000  1.0 1.9888215432
Gd  Gd28  1  0.83476000  0.08003000  0.82037000  1.0 1.9888215432
Gd  Gd29  1  0.24527000  0.66524000  0.48561000  1.0 1.9888215432
Gd  Gd30  1  0.25473000  0.74034000  0.41997000  1.0 1.9888215432
Gd  Gd31  1  0.67963000  0.75966000  0.01439000  1.0 1.9888215432
Gd  Gd32  1  0.82037000  0.83476000  0.08003000  1.0 1.9888215432
Gd  Gd33  1  0.48561000  0.24527000  0.66524000  1.0 1.9888215432
Gd  Gd34  1  0.41997000  0.25473000  0.74034000  1.0 1.9888215432
Gd  Gd35  1  0.01439000  0.67963000  0.75966000  1.0 1.9888215432
Gd  Gd36  1  0.08003000  0.82037000  0.83476000  1.0 1.9888215432
Gd  Gd37  1  0.08003000  0.75966000  0.24527000  1.0 1.9888215432
Gd  Gd38  1  0.01439000  0.83476000  0.25473000  1.0 1.9888215432
Gd  Gd39  1  0.41997000  0.66524000  0.67963000  1.0 1.9888215432
Gd  Gd40  1  0.48561000  0.74034000  0.82037000  1.0 1.9888215432
Gd  Gd41  1  0.74034000  0.82037000  0.48561000  1.0 1.9888215432
Gd  Gd42  1  0.66524000  0.67963000  0.41997000  1.0 1.9888215432
Gd  Gd43  1  0.83476000  0.25473000  0.01439000  1.0 1.9888215432
Gd  Gd44  1  0.75966000  0.24527000  0.08003000  1.0 1.9888215432
Gd  Gd45  1  0.67963000  0.41997000  0.66524000  1.0 1.9888215432
Gd  Gd46  1  0.82037000  0.48561000  0.74034000  1.0 1.9888215432
Gd  Gd47  1  0.24527000  0.08003000  0.75966000  1.0 1.9888215432
Gd  Gd48  1  0.25473000  0.01439000  0.83476000  1.0 1.9888215432
Cr  Cr1  1  0.32655000  0.57349000  0.69890000  1.0 1.4012533917
Cr  Cr2  1  0.37459000  0.62765000  0.80110000  1.0 1.4012533917
Cr  Cr3  1  0.12541000  0.92651000  0.25306000  1.0 1.4012533917
Cr  Cr4  1  0.17345000  0.87235000  0.24694000  1.0 1.4012533917
Cr  Cr5  1  0.69890000  0.32655000  0.57349000  1.0 1.4012533917
Cr  Cr6  1  0.80110000  0.37459000  0.62765000  1.0 1.4012533917
Cr  Cr7  1  0.25306000  0.12541000  0.92651000  1.0 1.4012533917
Cr  Cr8  1  0.24694000  0.17345000  0.87235000  1.0 1.4012533917
Cr  Cr9  1  0.57349000  0.69890000  0.32655000  1.0 1.4012533917
Cr  Cr10  1  0.62765000  0.80110000  0.37459000  1.0 1.4012533917
Cr  Cr11  1  0.92651000  0.25306000  0.12541000  1.0 1.4012533917
Cr  Cr12  1  0.87235000  0.24694000  0.17345000  1.0 1.4012533917
Cr  Cr13  1  0.87235000  0.12541000  0.69890000  1.0 1.4012533917
Cr  Cr14  1  0.92651000  0.17345000  0.80110000  1.0 1.4012533917
Cr  Cr15  1  0.62765000  0.32655000  0.25306000  1.0 1.4012533917
Cr  Cr16  1  0.57349000  0.37459000  0.24694000  1.0 1.4012533917
Cr  Cr17  1  0.37459000  0.24694000  0.57349000  1.0 1.4012533917
Cr  Cr18  1  0.32655000  0.25306000  0.62765000  1.0 1.4012533917
Cr  Cr19  1  0.17345000  0.80110000  0.92651000  1.0 1.4012533917
Cr  Cr20  1  0.12541000  0.69890000  0.87235000  1.0 1.4012533917
Cr  Cr21  1  0.25306000  0.62765000  0.32655000  1.0 1.4012533917
Cr  Cr22  1  0.24694000  0.57349000  0.37459000  1.0 1.4012533917
Cr  Cr23  1  0.69890000  0.87235000  0.12541000  1.0 1.4012533917
Cr  Cr24  1  0.80110000  0.92651000  0.17345000  1.0 1.4012533917
Cr  Cr25  1  0.67345000  0.42651000  0.30110000  1.0 1.4012533917
Cr  Cr26  1  0.62541000  0.37235000  0.19890000  1.0 1.4012533917
Cr  Cr27  1  0.87459000  0.07349000  0.74694000  1.0 1.4012533917
Cr  Cr28  1  0.82655000  0.12765000  0.75306000  1.0 1.4012533917
Cr  Cr29  1  0.30110000  0.67345000  0.42651000  1.0 1.4012533917
Cr  Cr30  1  0.19890000  0.62541000  0.37235000  1.0 1.4012533917
Cr  Cr31  1  0.74694000  0.87459000  0.07349000  1.0 1.4012533917
Cr  Cr32  1  0.75306000  0.82655000  0.12765000  1.0 1.4012533917
Cr  Cr33  1  0.42651000  0.30110000  0.67345000  1.0 1.4012533917
Cr  Cr34  1  0.37235000  0.19890000  0.62541000  1.0 1.4012533917
Cr  Cr35  1  0.07349000  0.74694000  0.87459000  1.0 1.4012533917
Cr  Cr36  1  0.12765000  0.75306000  0.82655000  1.0 1.4012533917
Cr  Cr37  1  0.12765000  0.87459000  0.30110000  1.0 1.4012533917
Cr  Cr38  1  0.07349000  0.82655000  0.19890000  1.0 1.4012533917
Cr  Cr39  1  0.37235000  0.67345000  0.74694000  1.0 1.4012533917
Cr  Cr40  1  0.42651000  0.62541000  0.75306000  1.0 1.4012533917
Cr  Cr41  1  0.62541000  0.75306000  0.42651000  1.0 1.4012533917
Cr  Cr42  1  0.67345000  0.74694000  0.37235000  1.0 1.4012533917
Cr  Cr43  1  0.82655000  0.19890000  0.07349000  1.0 1.4012533917
Cr  Cr44  1  0.87459000  0.30110000  0.12765000  1.0 1.4012533917
Cr  Cr45  1  0.74694000  0.37235000  0.67345000  1.0 1.4012533917
Cr  Cr46  1  0.75306000  0.42651000  0.62541000  1.0 1.4012533917
Cr  Cr47  1  0.30110000  0.12765000  0.87459000  1.0 1.4012533917
Cr  Cr48  1  0.19890000  0.07349000  0.82655000  1.0 1.4012533917
H  H1  1  0.55020000  0.65223000  0.02079000  1.0 0.100555804
H  H2  1  0.54997000  0.70368000  0.99881000  1.0 0.1221602271
H  H3  1  0.49446000  0.68078000  0.92932000  1.0 0.1282640568
H  H4  1  0.43046000  0.55218000  0.90726000  1.0 0.1068686736
H  H5  1  0.34865000  0.46287000  0.82212000  1.0 0.100555804
H  H6  1  0.34379000  0.39577000  0.82074000  1.0 0.1282640568
H  H7  1  0.33182000  0.33762000  0.75514000  1.0 0.1221602271
H  H8  1  0.33420000  0.41870000  0.69992000  1.0 0.1068686736
H  H9  1  0.13144000  0.52941000  0.47921000  1.0 0.100555804
H  H10  1  0.20487000  0.55116000  0.50119000  1.0 0.1221602271
H  H11  1  0.25146000  0.56514000  0.57068000  1.0 0.1282640568
H  H12  1  0.14492000  0.52320000  0.59274000  1.0 0.1068686736
H  H13  1  0.14075000  0.52653000  0.67788000  1.0 0.100555804
H  H14  1  0.07503000  0.52305000  0.67926000  1.0 0.1282640568
H  H15  1  0.08248000  0.57668000  0.74486000  1.0 0.1221602271
H  H16  1  0.21878000  0.63428000  0.80008000  1.0 0.1068686736
H  H17  1  0.36856000  0.84777000  0.39797000  1.0 0.100555804
H  H18  1  0.29513000  0.79632000  0.34629000  1.0 0.1221602271
H  H19  1  0.24854000  0.81922000  0.31368000  1.0 0.1282640568
H  H20  1  0.35508000  0.94782000  0.37828000  1.0 0.1068686736
H  H21  1  0.35925000  0.03713000  0.38578000  1.0 0.100555804
H  H22  1  0.42497000  0.10423000  0.44802000  1.0 0.1282640568
H  H23  1  0.41752000  0.16238000  0.49420000  1.0 0.1221602271
H  H24  1  0.28122000  0.08130000  0.41550000  1.0 0.1068686736
H  H25  1  0.94980000  0.97059000  0.10203000  1.0 0.100555804
H  H26  1  0.95003000  0.94884000  0.15371000  1.0 0.1221602271
H  H27  1  0.00554000  0.93486000  0.18632000  1.0 0.1282640568
H  H28  1  0.06954000  0.97680000  0.12172000  1.0 0.1068686736
H  H29  1  0.15135000  0.97347000  0.11422000  1.0 0.100555804
H  H30  1  0.15621000  0.97695000  0.05198000  1.0 0.1282640568
H  H31  1  0.16818000  0.92332000  0.00580000  1.0 0.1221602271
H  H32  1  0.16580000  0.86572000  0.08450000  1.0 0.1068686736
H  H33  1  0.02079000  0.55020000  0.65223000  1.0 0.100555804
H  H34  1  0.99881000  0.54997000  0.70368000  1.0 0.1221602271
H  H35  1  0.92932000  0.49446000  0.68078000  1.0 0.1282640568
H  H36  1  0.90726000  0.43046000  0.55218000  1.0 0.1068686736
H  H37  1  0.82212000  0.34865000  0.46287000  1.0 0.100555804
H  H38  1  0.82074000  0.34379000  0.39577000  1.0 0.1282640568
H  H39  1  0.75514000  0.33182000  0.33762000  1.0 0.1221602271
H  H40  1  0.69992000  0.33420000  0.41870000  1.0 0.1068686736
H  H41  1  0.47921000  0.13144000  0.52941000  1.0 0.100555804
H  H42  1  0.50119000  0.20487000  0.55116000  1.0 0.1221602271
H  H43  1  0.57068000  0.25146000  0.56514000  1.0 0.1282640568
H  H44  1  0.59274000  0.14492000  0.52320000  1.0 0.1068686736
H  H45  1  0.67788000  0.14075000  0.52653000  1.0 0.100555804
H  H46  1  0.67926000  0.07503000  0.52305000  1.0 0.1282640568
H  H47  1  0.74486000  0.08248000  0.57668000  1.0 0.1221602271
H  H48  1  0.80008000  0.21878000  0.63428000  1.0 0.1068686736
H  H49  1  0.39797000  0.36856000  0.84777000  1.0 0.100555804
H  H50  1  0.34629000  0.29513000  0.79632000  1.0 0.1221602271
H  H51  1  0.31368000  0.24854000  0.81922000  1.0 0.1282640568
H  H52  1  0.37828000  0.35508000  0.94782000  1.0 0.1068686736
H  H53  1  0.38578000  0.35925000  0.03713000  1.0 0.100555804
H  H54  1  0.44802000  0.42497000  0.10423000  1.0 0.1282640568
H  H55  1  0.49420000  0.41752000  0.16238000  1.0 0.1221602271
H  H56  1  0.41550000  0.28122000  0.08130000  1.0 0.1068686736
H  H57  1  0.10203000  0.94980000  0.97059000  1.0 0.100555804
H  H58  1  0.15371000  0.95003000  0.94884000  1.0 0.1221602271
H  H59  1  0.18632000  0.00554000  0.93486000  1.0 0.1282640568
H  H60  1  0.12172000  0.06954000  0.97680000  1.0 0.1068686736
H  H61  1  0.11422000  0.15135000  0.97347000  1.0 0.100555804
H  H62  1  0.05198000  0.15621000  0.97695000  1.0 0.1282640568
H  H63  1  0.00580000  0.16818000  0.92332000  1.0 0.1221602271
H  H64  1  0.08450000  0.16580000  0.86572000  1.0 0.1068686736
H  H65  1  0.65223000  0.02079000  0.55020000  1.0 0.100555804
H  H66  1  0.70368000  0.99881000  0.54997000  1.0 0.1221602271
H  H67  1  0.68078000  0.92932000  0.49446000  1.0 0.1282640568
H  H68  1  0.55218000  0.90726000  0.43046000  1.0 0.1068686736
H  H69  1  0.46287000  0.82212000  0.34865000  1.0 0.100555804
H  H70  1  0.39577000  0.82074000  0.34379000  1.0 0.1282640568
H  H71  1  0.33762000  0.75514000  0.33182000  1.0 0.1221602271
H  H72  1  0.41870000  0.69992000  0.33420000  1.0 0.1068686736
H  H73  1  0.52941000  0.47921000  0.13144000  1.0 0.100555804
H  H74  1  0.55116000  0.50119000  0.20487000  1.0 0.1221602271
H  H75  1  0.56514000  0.57068000  0.25146000  1.0 0.1282640568
H  H76  1  0.52320000  0.59274000  0.14492000  1.0 0.1068686736
H  H77  1  0.52653000  0.67788000  0.14075000  1.0 0.100555804
H  H78  1  0.52305000  0.67926000  0.07503000  1.0 0.1282640568
H  H79  1  0.57668000  0.74486000  0.08248000  1.0 0.1221602271
H  H80  1  0.63428000  0.80008000  0.21878000  1.0 0.1068686736
H  H81  1  0.84777000  0.39797000  0.36856000  1.0 0.100555804
H  H82  1  0.79632000  0.34629000  0.29513000  1.0 0.1221602271
H  H83  1  0.81922000  0.31368000  0.24854000  1.0 0.1282640568
H  H84  1  0.94782000  0.37828000  0.35508000  1.0 0.1068686736
H  H85  1  0.03713000  0.38578000  0.35925000  1.0 0.100555804
H  H86  1  0.10423000  0.44802000  0.42497000  1.0 0.1282640568
H  H87  1  0.16238000  0.49420000  0.41752000  1.0 0.1221602271
H  H88  1  0.08130000  0.41550000  0.28122000  1.0 0.1068686736
H  H89  1  0.97059000  0.10203000  0.94980000  1.0 0.100555804
H  H90  1  0.94884000  0.15371000  0.95003000  1.0 0.1221602271
H  H91  1  0.93486000  0.18632000  0.00554000  1.0 0.1282640568
H  H92  1  0.97680000  0.12172000  0.06954000  1.0 0.1068686736
H  H93  1  0.97347000  0.11422000  0.15135000  1.0 0.100555804
H  H94  1  0.97695000  0.05198000  0.15621000  1.0 0.1282640568
H  H95  1  0.92332000  0.00580000  0.16818000  1.0 0.1221602271
H  H96  1  0.86572000  0.08450000  0.16580000  1.0 0.1068686736
H  H97  1  0.97059000  0.36856000  0.02079000  1.0 0.100555804
H  H98  1  0.94884000  0.29513000  0.99881000  1.0 0.1221602271
H  H99  1  0.93486000  0.24854000  0.92932000  1.0 0.1282640568
H  H100  1  0.97680000  0.35508000  0.90726000  1.0 0.1068686736
H  H101  1  0.97347000  0.35925000  0.82212000  1.0 0.100555804
H  H102  1  0.97695000  0.42497000  0.82074000  1.0 0.1282640568
H  H103  1  0.92332000  0.41752000  0.75514000  1.0 0.1221602271
H  H104  1  0.86572000  0.28122000  0.69992000  1.0 0.1068686736
H  H105  1  0.84777000  0.94980000  0.47921000  1.0 0.100555804
H  H106  1  0.79632000  0.95003000  0.50119000  1.0 0.1221602271
H  H107  1  0.81922000  0.00554000  0.57068000  1.0 0.1282640568
H  H108  1  0.94782000  0.06954000  0.59274000  1.0 0.1068686736
H  H109  1  0.03713000  0.15135000  0.67788000  1.0 0.100555804
H  H110  1  0.10423000  0.15621000  0.67926000  1.0 0.1282640568
H  H111  1  0.16238000  0.16818000  0.74486000  1.0 0.1221602271
H  H112  1  0.08130000  0.16580000  0.80008000  1.0 0.1068686736
H  H113  1  0.52941000  0.55020000  0.39797000  1.0 0.100555804
H  H114  1  0.55116000  0.54997000  0.34629000  1.0 0.1221602271
H  H115  1  0.56514000  0.49446000  0.31368000  1.0 0.1282640568
H  H116  1  0.52320000  0.43046000  0.37828000  1.0 0.1068686736
H  H117  1  0.52653000  0.34865000  0.38578000  1.0 0.100555804
H  H118  1  0.52305000  0.34379000  0.44802000  1.0 0.1282640568
H  H119  1  0.57668000  0.33182000  0.49420000  1.0 0.1221602271
H  H120  1  0.63428000  0.33420000  0.41550000  1.0 0.1068686736
H  H121  1  0.65223000  0.13144000  0.10203000  1.0 0.100555804
H  H122  1  0.70368000  0.20487000  0.15371000  1.0 0.1221602271
H  H123  1  0.68078000  0.25146000  0.18632000  1.0 0.1282640568
H  H124  1  0.55218000  0.14492000  0.12172000  1.0 0.1068686736
H  H125  1  0.46287000  0.14075000  0.11422000  1.0 0.100555804
H  H126  1  0.39577000  0.07503000  0.05198000  1.0 0.1282640568
H  H127  1  0.33762000  0.08248000  0.00580000  1.0 0.1221602271
H  H128  1  0.41870000  0.21878000  0.08450000  1.0 0.1068686736
H  H129  1  0.13144000  0.10203000  0.65223000  1.0 0.100555804
H  H130  1  0.20487000  0.15371000  0.70368000  1.0 0.1221602271
H  H131  1  0.25146000  0.18632000  0.68078000  1.0 0.1282640568
H  H132  1  0.14492000  0.12172000  0.55218000  1.0 0.1068686736
H  H133  1  0.14075000  0.11422000  0.46287000  1.0 0.100555804
H  H134  1  0.07503000  0.05198000  0.39577000  1.0 0.1282640568
H  H135  1  0.08248000  0.00580000  0.33762000  1.0 0.1221602271
H  H136  1  0.21878000  0.08450000  0.41870000  1.0 0.1068686736
H  H137  1  0.55020000  0.39797000  0.52941000  1.0 0.100555804
H  H138  1  0.54997000  0.34629000  0.55116000  1.0 0.1221602271
H  H139  1  0.49446000  0.31368000  0.56514000  1.0 0.1282640568
H  H140  1  0.43046000  0.37828000  0.52320000  1.0 0.1068686736
H  H141  1  0.34865000  0.38578000  0.52653000  1.0 0.100555804
H  H142  1  0.34379000  0.44802000  0.52305000  1.0 0.1282640568
H  H143  1  0.33182000  0.49420000  0.57668000  1.0 0.1221602271
H  H144  1  0.33420000  0.41550000  0.63428000  1.0 0.1068686736
H  H145  1  0.94980000  0.47921000  0.84777000  1.0 0.100555804
H  H146  1  0.95003000  0.50119000  0.79632000  1.0 0.1221602271
H  H147  1  0.00554000  0.57068000  0.81922000  1.0 0.1282640568
H  H148  1  0.06954000  0.59274000  0.94782000  1.0 0.1068686736
H  H149  1  0.15135000  0.67788000  0.03713000  1.0 0.100555804
H  H150  1  0.15621000  0.67926000  0.10423000  1.0 0.1282640568
H  H151  1  0.16818000  0.74486000  0.16238000  1.0 0.1221602271
H  H152  1  0.16580000  0.80008000  0.08130000  1.0 0.1068686736
H  H153  1  0.36856000  0.02079000  0.97059000  1.0 0.100555804
H  H154  1  0.29513000  0.99881000  0.94884000  1.0 0.1221602271
H  H155  1  0.24854000  0.92932000  0.93486000  1.0 0.1282640568
H  H156  1  0.35508000  0.90726000  0.97680000  1.0 0.1068686736
H  H157  1  0.35925000  0.82212000  0.97347000  1.0 0.100555804
H  H158  1  0.42497000  0.82074000  0.97695000  1.0 0.1282640568
H  H159  1  0.41752000  0.75514000  0.92332000  1.0 0.1221602271
H  H160  1  0.28122000  0.69992000  0.86572000  1.0 0.1068686736
H  H161  1  0.39797000  0.52941000  0.55020000  1.0 0.100555804
H  H162  1  0.34629000  0.55116000  0.54997000  1.0 0.1221602271
H  H163  1  0.31368000  0.56514000  0.49446000  1.0 0.1282640568
H  H164  1  0.37828000  0.52320000  0.43046000  1.0 0.1068686736
H  H165  1  0.38578000  0.52653000  0.34865000  1.0 0.100555804
H  H166  1  0.44802000  0.52305000  0.34379000  1.0 0.1282640568
H  H167  1  0.49420000  0.57668000  0.33182000  1.0 0.1221602271
H  H168  1  0.41550000  0.63428000  0.33420000  1.0 0.1068686736
H  H169  1  0.10203000  0.65223000  0.13144000  1.0 0.100555804
H  H170  1  0.15371000  0.70368000  0.20487000  1.0 0.1221602271
H  H171  1  0.18632000  0.68078000  0.25146000  1.0 0.1282640568
H  H172  1  0.12172000  0.55218000  0.14492000  1.0 0.1068686736
H  H173  1  0.11422000  0.46287000  0.14075000  1.0 0.100555804
H  H174  1  0.05198000  0.39577000  0.07503000  1.0 0.1282640568
H  H175  1  0.00580000  0.33762000  0.08248000  1.0 0.1221602271
H  H176  1  0.08450000  0.41870000  0.21878000  1.0 0.1068686736
H  H177  1  0.02079000  0.97059000  0.36856000  1.0 0.100555804
H  H178  1  0.99881000  0.94884000  0.29513000  1.0 0.1221602271
H  H179  1  0.92932000  0.93486000  0.24854000  1.0 0.1282640568
H  H180  1  0.90726000  0.97680000  0.35508000  1.0 0.1068686736
H  H181  1  0.82212000  0.97347000  0.35925000  1.0 0.100555804
H  H182  1  0.82074000  0.97695000  0.42497000  1.0 0.1282640568
H  H183  1  0.75514000  0.92332000  0.41752000  1.0 0.1221602271
H  H184  1  0.69992000  0.86572000  0.28122000  1.0 0.1068686736
H  H185  1  0.47921000  0.84777000  0.94980000  1.0 0.100555804
H  H186  1  0.50119000  0.79632000  0.95003000  1.0 0.1221602271
H  H187  1  0.57068000  0.81922000  0.00554000  1.0 0.1282640568
H  H188  1  0.59274000  0.94782000  0.06954000  1.0 0.1068686736
H  H189  1  0.67788000  0.03713000  0.15135000  1.0 0.100555804
H  H190  1  0.67926000  0.10423000  0.15621000  1.0 0.1282640568
H  H191  1  0.74486000  0.16238000  0.16818000  1.0 0.1221602271
H  H192  1  0.80008000  0.08130000  0.16580000  1.0 0.1068686736
H  H193  1  0.44980000  0.34777000  0.97921000  1.0 0.100555804
H  H194  1  0.45003000  0.29632000  0.00119000  1.0 0.1221602271
H  H195  1  0.50554000  0.31922000  0.07068000  1.0 0.1282640568
H  H196  1  0.56954000  0.44782000  0.09274000  1.0 0.1068686736
H  H197  1  0.65135000  0.53713000  0.17788000  1.0 0.100555804
H  H198  1  0.65621000  0.60423000  0.17926000  1.0 0.1282640568
H  H199  1  0.66818000  0.66238000  0.24486000  1.0 0.1221602271
H  H200  1  0.66580000  0.58130000  0.30008000  1.0 0.1068686736
H  H201  1  0.86856000  0.47059000  0.52079000  1.0 0.100555804
H  H202  1  0.79513000  0.44884000  0.49881000  1.0 0.1221602271
H  H203  1  0.74854000  0.43486000  0.42932000  1.0 0.1282640568
H  H204  1  0.85508000  0.47680000  0.40726000  1.0 0.1068686736
H  H205  1  0.85925000  0.47347000  0.32212000  1.0 0.100555804
H  H206  1  0.92497000  0.47695000  0.32074000  1.0 0.1282640568
H  H207  1  0.91752000  0.42332000  0.25514000  1.0 0.1221602271
H  H208  1  0.78122000  0.36572000  0.19992000  1.0 0.1068686736
H  H209  1  0.63144000  0.15223000  0.60203000  1.0 0.100555804
H  H210  1  0.70487000  0.20368000  0.65371000  1.0 0.1221602271
H  H211  1  0.75146000  0.18078000  0.68632000  1.0 0.1282640568
H  H212  1  0.64492000  0.05218000  0.62172000  1.0 0.1068686736
H  H213  1  0.64075000  0.96287000  0.61422000  1.0 0.100555804
H  H214  1  0.57503000  0.89577000  0.55198000  1.0 0.1282640568
H  H215  1  0.58248000  0.83762000  0.50580000  1.0 0.1221602271
H  H216  1  0.71878000  0.91870000  0.58450000  1.0 0.1068686736
H  H217  1  0.05020000  0.02941000  0.89797000  1.0 0.100555804
H  H218  1  0.04997000  0.05116000  0.84629000  1.0 0.1221602271
H  H219  1  0.99446000  0.06514000  0.81368000  1.0 0.1282640568
H  H220  1  0.93046000  0.02320000  0.87828000  1.0 0.1068686736
H  H221  1  0.84865000  0.02653000  0.88578000  1.0 0.100555804
H  H222  1  0.84379000  0.02305000  0.94802000  1.0 0.1282640568
H  H223  1  0.83182000  0.07668000  0.99420000  1.0 0.1221602271
H  H224  1  0.83420000  0.13428000  0.91550000  1.0 0.1068686736
H  H225  1  0.97921000  0.44980000  0.34777000  1.0 0.100555804
H  H226  1  0.00119000  0.45003000  0.29632000  1.0 0.1221602271
H  H227  1  0.07068000  0.50554000  0.31922000  1.0 0.1282640568
H  H228  1  0.09274000  0.56954000  0.44782000  1.0 0.1068686736
H  H229  1  0.17788000  0.65135000  0.53713000  1.0 0.100555804
H  H230  1  0.17926000  0.65621000  0.60423000  1.0 0.1282640568
H  H231  1  0.24486000  0.66818000  0.66238000  1.0 0.1221602271
H  H232  1  0.30008000  0.66580000  0.58130000  1.0 0.1068686736
H  H233  1  0.52079000  0.86856000  0.47059000  1.0 0.100555804
H  H234  1  0.49881000  0.79513000  0.44884000  1.0 0.1221602271
H  H235  1  0.42932000  0.74854000  0.43486000  1.0 0.1282640568
H  H236  1  0.40726000  0.85508000  0.47680000  1.0 0.1068686736
H  H237  1  0.32212000  0.85925000  0.47347000  1.0 0.100555804
H  H238  1  0.32074000  0.92497000  0.47695000  1.0 0.1282640568
H  H239  1  0.25514000  0.91752000  0.42332000  1.0 0.1221602271
H  H240  1  0.19992000  0.78122000  0.36572000  1.0 0.100555804
H  H241  1  0.60203000  0.63144000  0.15223000  1.0 0.100555804
H  H242  1  0.65371000  0.70487000  0.20368000  1.0 0.1221602271
H  H243  1  0.68632000  0.75146000  0.18078000  1.0 0.1282640568
H  H244  1  0.62172000  0.64492000  0.05218000  1.0 0.1068686736
H  H245  1  0.61422000  0.64075000  0.96287000  1.0 0.100555804
H  H246  1  0.55198000  0.57503000  0.89577000  1.0 0.1282640568
H  H247  1  0.50580000  0.58248000  0.83762000  1.0 0.1221602271
H  H248  1  0.58450000  0.71878000  0.91870000  1.0 0.1068686736
H  H249  1  0.89797000  0.05020000  0.02941000  1.0 0.100555804
H  H250  1  0.84629000  0.04997000  0.05116000  1.0 0.1221602271
H  H251  1  0.81368000  0.99446000  0.06514000  1.0 0.1282640568
H  H252  1  0.87828000  0.93046000  0.02320000  1.0 0.1068686736
H  H253  1  0.88578000  0.84865000  0.02653000  1.0 0.100555804
H  H254  1  0.94802000  0.84379000  0.02305000  1.0 0.1282640568
H  H255  1  0.99420000  0.83182000  0.07668000  1.0 0.1221602271
H  H256  1  0.91550000  0.83420000  0.13428000  1.0 0.100555804
H  H257  1  0.34777000  0.97921000  0.44980000  1.0 0.100555804
H  H258  1  0.29632000  0.00119000  0.45003000  1.0 0.1221602271
H  H259  1  0.31922000  0.07068000  0.50554000  1.0 0.1282640568
H  H260  1  0.44782000  0.09274000  0.56954000  1.0 0.1068686736
H  H261  1  0.53713000  0.17788000  0.65135000  1.0 0.100555804
H  H262  1  0.60423000  0.17926000  0.65621000  1.0 0.1282640568
H  H263  1  0.66238000  0.24486000  0.66818000  1.0 0.1221602271
H  H264  1  0.58130000  0.30008000  0.66580000  1.0 0.1068686736
H  H265  1  0.47059000  0.52079000  0.86856000  1.0 0.100555804
H  H266  1  0.44884000  0.49881000  0.79513000  1.0 0.1221602271
H  H267  1  0.43486000  0.42932000  0.74854000  1.0 0.1282640568
H  H268  1  0.47680000  0.40726000  0.85508000  1.0 0.1068686736
H  H269  1  0.47347000  0.32212000  0.85925000  1.0 0.100555804
H  H270  1  0.47695000  0.32074000  0.92497000  1.0 0.1282640568
H  H271  1  0.42332000  0.25514000  0.91752000  1.0 0.1221602271
H  H272  1  0.36572000  0.19992000  0.78122000  1.0 0.1068686736
H  H273  1  0.15223000  0.60203000  0.63144000  1.0 0.100555804
H  H274  1  0.20368000  0.65371000  0.70487000  1.0 0.1221602271
H  H275  1  0.18078000  0.68632000  0.75146000  1.0 0.1282640568
H  H276  1  0.05218000  0.62172000  0.64492000  1.0 0.1068686736
H  H277  1  0.96287000  0.61422000  0.64075000  1.0 0.100555804
H  H278  1  0.89577000  0.55198000  0.57503000  1.0 0.1282640568
H  H279  1  0.83762000  0.50580000  0.58248000  1.0 0.1221602271
H  H280  1  0.91870000  0.58450000  0.71878000  1.0 0.1068686736
H  H281  1  0.02941000  0.89797000  0.05020000  1.0 0.100555804
H  H282  1  0.05116000  0.84629000  0.04997000  1.0 0.1221602271
H  H283  1  0.06514000  0.81368000  0.99446000  1.0 0.1282640568
H  H284  1  0.02320000  0.87828000  0.93046000  1.0 0.1068686736
H  H285  1  0.02653000  0.88578000  0.84865000  1.0 0.100555804
H  H286  1  0.02305000  0.94802000  0.84379000  1.0 0.1282640568
H  H287  1  0.07668000  0.99420000  0.83182000  1.0 0.1221602271
H  H288  1  0.13428000  0.91550000  0.83420000  1.0 0.1068686736
H  H289  1  0.02941000  0.63144000  0.97921000  1.0 0.100555804
H  H290  1  0.05116000  0.70487000  0.00119000  1.0 0.1221602271
H  H291  1  0.06514000  0.75146000  0.07068000  1.0 0.1282640568
H  H292  1  0.02320000  0.64492000  0.09274000  1.0 0.1068686736
H  H293  1  0.02653000  0.64075000  0.17788000  1.0 0.100555804
H  H294  1  0.02305000  0.57503000  0.17926000  1.0 0.1282640568
H  H295  1  0.07668000  0.58248000  0.24486000  1.0 0.1221602271
H  H296  1  0.13428000  0.71878000  0.30008000  1.0 0.1068686736
H  H297  1  0.15223000  0.05020000  0.52079000  1.0 0.100555804
H  H298  1  0.20368000  0.04997000  0.49881000  1.0 0.1221602271
H  H299  1  0.18078000  0.99446000  0.42932000  1.0 0.1282640568
H  H300  1  0.05218000  0.93046000  0.40726000  1.0 0.1068686736
H  H301  1  0.96287000  0.84865000  0.32212000  1.0 0.100555804
H  H302  1  0.89577000  0.84379000  0.32074000  1.0 0.1282640568
H  H303  1  0.83762000  0.83182000  0.25514000  1.0 0.1221602271
H  H304  1  0.91870000  0.83420000  0.19992000  1.0 0.1068686736
H  H305  1  0.47059000  0.44980000  0.60203000  1.0 0.100555804
H  H306  1  0.44884000  0.45003000  0.65371000  1.0 0.1221602271
H  H307  1  0.43486000  0.50554000  0.68632000  1.0 0.1282640568
H  H308  1  0.47680000  0.56954000  0.62172000  1.0 0.1068686736
H  H309  1  0.47347000  0.65135000  0.61422000  1.0 0.100555804
H  H310  1  0.47695000  0.65621000  0.55198000  1.0 0.1282640568
H  H311  1  0.42332000  0.66818000  0.50580000  1.0 0.1221602271
H  H312  1  0.36572000  0.66580000  0.58450000  1.0 0.1068686736
H  H313  1  0.34777000  0.86856000  0.89797000  1.0 0.100555804
H  H314  1  0.29632000  0.79513000  0.84629000  1.0 0.1221602271
H  H315  1  0.31922000  0.74854000  0.81368000  1.0 0.1282640568
H  H316  1  0.44782000  0.85508000  0.87828000  1.0 0.1068686736
H  H317  1  0.53713000  0.85925000  0.88578000  1.0 0.100555804
H  H318  1  0.60423000  0.92497000  0.94802000  1.0 0.1282640568
H  H319  1  0.66238000  0.91752000  0.99420000  1.0 0.1221602271
H  H320  1  0.58130000  0.78122000  0.91550000  1.0 0.1068686736
H  H321  1  0.86856000  0.89797000  0.34777000  1.0 0.100555804
H  H322  1  0.79513000  0.84629000  0.29632000  1.0 0.1221602271
H  H323  1  0.74854000  0.81368000  0.31922000  1.0 0.1282640568
H  H324  1  0.85508000  0.87828000  0.44782000  1.0 0.1068686736
H  H325  1  0.85925000  0.88578000  0.53713000  1.0 0.100555804
H  H326  1  0.92497000  0.94802000  0.60423000  1.0 0.1282640568
H  H327  1  0.91752000  0.99420000  0.66238000  1.0 0.1221602271
H  H328  1  0.78122000  0.91550000  0.58130000  1.0 0.1068686736
H  H329  1  0.44980000  0.60203000  0.47059000  1.0 0.100555804
H  H330  1  0.45003000  0.65371000  0.44884000  1.0 0.1221602271
H  H331  1  0.50554000  0.68632000  0.43486000  1.0 0.1282640568
H  H332  1  0.56954000  0.62172000  0.47680000  1.0 0.1068686736
H  H333  1  0.65135000  0.61422000  0.47347000  1.0 0.100555804
H  H334  1  0.65621000  0.55198000  0.47695000  1.0 0.1282640568
H  H335  1  0.66818000  0.50580000  0.42332000  1.0 0.1221602271
H  H336  1  0.66580000  0.58450000  0.36572000  1.0 0.1068686736
H  H337  1  0.05020000  0.52079000  0.15223000  1.0 0.100555804
H  H338  1  0.04997000  0.49881000  0.20368000  1.0 0.1221602271
H  H339  1  0.99446000  0.42932000  0.18078000  1.0 0.1282640568
H  H340  1  0.93046000  0.40726000  0.05218000  1.0 0.1068686736
H  H341  1  0.84865000  0.32212000  0.96287000  1.0 0.100555804
H  H342  1  0.84379000  0.32074000  0.89577000  1.0 0.1282640568
H  H343  1  0.83182000  0.25514000  0.83762000  1.0 0.1221602271
H  H344  1  0.83420000  0.19992000  0.91870000  1.0 0.1068686736
H  H345  1  0.63144000  0.97921000  0.02941000  1.0 0.100555804
H  H346  1  0.70487000  0.00119000  0.05116000  1.0 0.1221602271
H  H347  1  0.75146000  0.07068000  0.06514000  1.0 0.1282640568
H  H348  1  0.64492000  0.09274000  0.02320000  1.0 0.1068686736
H  H349  1  0.64075000  0.17788000  0.02653000  1.0 0.100555804
H  H350  1  0.57503000  0.17926000  0.02305000  1.0 0.1282640568
H  H351  1  0.58248000  0.24486000  0.07668000  1.0 0.1221602271
H  H352  1  0.71878000  0.30008000  0.13428000  1.0 0.1068686736
H  H353  1  0.60203000  0.47059000  0.44980000  1.0 0.100555804
H  H354  1  0.65371000  0.44884000  0.45003000  1.0 0.1221602271
H  H355  1  0.68632000  0.43486000  0.50554000  1.0 0.1282640568
H  H356  1  0.62172000  0.47680000  0.56954000  1.0 0.1068686736
H  H357  1  0.61422000  0.47347000  0.65135000  1.0 0.100555804
H  H358  1  0.55198000  0.47695000  0.65621000  1.0 0.1282640568
H  H359  1  0.50580000  0.42332000  0.66818000  1.0 0.1221602271
H  H360  1  0.58450000  0.36572000  0.66580000  1.0 0.1068686736
H  H361  1  0.89797000  0.34777000  0.86856000  1.0 0.100555804
H  H362  1  0.84629000  0.29632000  0.79513000  1.0 0.1221602271
H  H363  1  0.81368000  0.31922000  0.74854000  1.0 0.1282640568
H  H364  1  0.87828000  0.44782000  0.85508000  1.0 0.1068686736
H  H365  1  0.88578000  0.53713000  0.85925000  1.0 0.100555804
H  H366  1  0.94802000  0.60423000  0.92497000  1.0 0.1282640568
H  H367  1  0.99420000  0.66238000  0.91752000  1.0 0.1221602271
H  H368  1  0.91550000  0.58130000  0.78122000  1.0 0.1068686736
H  H369  1  0.97921000  0.02941000  0.63144000  1.0 0.100555804
H  H370  1  0.00119000  0.05116000  0.70487000  1.0 0.1221602271
H  H371  1  0.07068000  0.06514000  0.75146000  1.0 0.1282640568
H  H372  1  0.09274000  0.02320000  0.64492000  1.0 0.1068686736
H  H373  1  0.17788000  0.02653000  0.64075000  1.0 0.100555804
H  H374  1  0.17926000  0.02305000  0.57503000  1.0 0.1282640568
H  H375  1  0.24486000  0.07668000  0.58248000  1.0 0.1221602271
H  H376  1  0.30008000  0.13428000  0.71878000  1.0 0.1068686736
H  H377  1  0.52079000  0.15223000  0.05020000  1.0 0.100555804
H  H378  1  0.49881000  0.20368000  0.04997000  1.0 0.1221602271
H  H379  1  0.42932000  0.18078000  0.99446000  1.0 0.1282640568
H  H380  1  0.40726000  0.05218000  0.93046000  1.0 0.1068686736
H  H381  1  0.32212000  0.96287000  0.84865000  1.0 0.100555804
H  H382  1  0.32074000  0.89577000  0.84379000  1.0 0.1282640568
H  H383  1  0.25514000  0.83762000  0.83182000  1.0 0.1221602271
H  H384  1  0.19992000  0.91870000  0.83420000  1.0 0.100555804
C  C1  1  0.52560000  0.64280000  0.99280000  1.0 -0.0127639874
C  C2  1  0.52640000  0.67300000  0.97980000  1.0 -0.1167451997
C  C3  1  0.49320000  0.65950000  0.93930000  1.0 -0.0901728837
C  C4  1  0.45550000  0.61380000  0.91010000  1.0 -0.0803848978
C  C5  1  0.45470000  0.58250000  0.92540000  1.0 0.0521229882
C  C6  1  0.42020000  0.59900000  0.86320000  1.0 0.5991333891
C  C7  1  0.34440000  0.43990000  0.79610000  1.0 0.100555804
C  C8  1  0.34140000  0.39950000  0.79550000  1.0 -0.1517293196
C  C9  1  0.33490000  0.36530000  0.75680000  1.0 -0.053878836
C  C10  1  0.33270000  0.37250000  0.71980000  1.0 -0.0803848978
C  C11  1  0.33600000  0.41360000  0.72440000  1.0 0.0699262776
C  C12  1  0.32880000  0.33810000  0.67830000  1.0 0.5991333891
C  C13  1  0.15000000  0.53280000  0.50720000  1.0 -0.0127639874
C  C14  1  0.19320000  0.54660000  0.52020000  1.0 -0.1167451997
C  C15  1  0.22020000  0.55390000  0.56070000  1.0 -0.0901728837
C  C16  1  0.20370000  0.54540000  0.58990000  1.0 -0.0803848978
C  C17  1  0.15710000  0.52930000  0.57460000  1.0 0.0521229882
C  C18  1  0.23580000  0.55700000  0.63680000  1.0 0.5991333891
C  C19  1  0.14380000  0.54830000  0.70390000  1.0 0.1068686736
C  C20  1  0.10400000  0.54590000  0.70450000  1.0 -0.1517293196
C  C21  1  0.10850000  0.57810000  0.74320000  1.0 -0.053878836
C  C22  1  0.15270000  0.61290000  0.78020000  1.0 -0.0803848978
C  C23  1  0.18920000  0.61160000  0.77560000  1.0 0.0699262776
C  C24  1  0.15980000  0.65050000  0.82170000  1.0 0.5991333891
C  C25  1  0.35000000  0.85720000  0.38280000  1.0 -0.0127639874
C  C26  1  0.30680000  0.82700000  0.35340000  1.0 -0.1167451997
C  C27  1  0.27980000  0.84050000  0.33370000  1.0 -0.0901728837
C  C28  1  0.29630000  0.88620000  0.34170000  1.0 -0.0803848978
C  C29  1  0.34290000  0.91750000  0.37220000  1.0 0.0521229882
C  C30  1  0.26420000  0.90100000  0.32120000  1.0 0.5991333891
C  C31  1  0.35620000  0.06010000  0.40450000  1.0 0.100555804
C  C32  1  0.39600000  0.10050000  0.44190000  1.0 -0.1517293196
C  C33  1  0.39150000  0.13470000  0.46960000  1.0 -0.053878836
C  C34  1  0.34730000  0.12750000  0.46020000  1.0 -0.0803848978
C  C35  1  0.31080000  0.08640000  0.42240000  1.0 0.0699262776
C  C36  1  0.34020000  0.16190000  0.49070000  1.0 0.5991333891
C  C37  1  0.97440000  0.96720000  0.11720000  1.0 -0.0127639874
C  C38  1  0.97360000  0.95340000  0.14660000  1.0 -0.1167451997
C  C39  1  0.00680000  0.94610000  0.16630000  1.0 -0.0901728837
C  C40  1  0.04450000  0.95460000  0.15830000  1.0 -0.0901728837
C  C41  1  0.04530000  0.97070000  0.12780000  1.0 0.0521229882
C  C42  1  0.07980000  0.94300000  0.17880000  1.0 0.5991333891
C  C43  1  0.15560000  0.95170000  0.09550000  1.0 0.100555804
C  C44  1  0.15860000  0.95410000  0.05810000  1.0 -0.1517293196
C  C45  1  0.16510000  0.92190000  0.03040000  1.0 -0.053878836
C  C46  1  0.16730000  0.88710000  0.03980000  1.0 -0.0803848978
C  C47  1  0.16400000  0.88840000  0.07760000  1.0 0.0699262776
C  C48  1  0.17120000  0.84950000  0.00930000  1.0 0.5991333891
C  C49  1  0.99280000  0.52560000  0.64280000  1.0 -0.0127639874
C  C50  1  0.97980000  0.52640000  0.67300000  1.0 -0.1167451997
C  C51  1  0.93930000  0.49320000  0.65950000  1.0 -0.0901728837
C  C52  1  0.91010000  0.45550000  0.61380000  1.0 -0.0901728837
C  C53  1  0.92540000  0.45470000  0.58250000  1.0 0.0521229882
C  C54  1  0.86320000  0.42020000  0.59900000  1.0 0.5991333891
C  C55  1  0.79610000  0.34440000  0.43990000  1.0 0.100555804
C  C56  1  0.79550000  0.34140000  0.39950000  1.0 -0.1517293196
C  C57  1  0.75680000  0.33490000  0.36530000  1.0 -0.053878836
C  C58  1  0.71980000  0.33270000  0.37250000  1.0 -0.0803848978
C  C59  1  0.72440000  0.33600000  0.41360000  1.0 0.0699262776
C  C60  1  0.67830000  0.32880000  0.33810000  1.0 0.5991333891
C  C61  1  0.50720000  0.15000000  0.53280000  1.0 -0.0127639874
C  C62  1  0.52020000  0.19320000  0.54660000  1.0 -0.1167451997
C  C63  1  0.56070000  0.22020000  0.55390000  1.0 -0.0901728837
C  C64  1  0.58990000  0.20370000  0.54540000  1.0 -0.0803848978
C  C65  1  0.57460000  0.15710000  0.52930000  1.0 0.0521229882
C  C66  1  0.63680000  0.23580000  0.55700000  1.0 0.5991333891
C  C67  1  0.70390000  0.14380000  0.54830000  1.0 0.100555804
C  C68  1  0.70450000  0.10400000  0.54590000  1.0 -0.1517293196
C  C69  1  0.74320000  0.10850000  0.57810000  1.0 -0.053878836
C  C70  1  0.78020000  0.15270000  0.61290000  1.0 -0.0803848978
C  C71  1  0.77560000  0.18920000  0.61160000  1.0 0.0699262776
C  C72  1  0.82170000  0.15980000  0.65050000  1.0 0.5991333891
C  C73  1  0.38280000  0.35000000  0.85720000  1.0 -0.0127639874
C  C74  1  0.35340000  0.30680000  0.82700000  1.0 -0.1167451997
C  C75  1  0.33370000  0.27980000  0.84050000  1.0 -0.0901728837
C  C76  1  0.34170000  0.29630000  0.88620000  1.0 -0.0803848978
C  C77  1  0.37220000  0.34290000  0.91750000  1.0 0.0521229882
C  C78  1  0.32120000  0.26420000  0.90100000  1.0 0.5991333891
C  C79  1  0.40450000  0.35620000  0.06010000  1.0 0.100555804
C  C80  1  0.44190000  0.39600000  0.10050000  1.0 -0.1517293196
C  C81  1  0.46960000  0.39150000  0.13470000  1.0 -0.053878836
C  C82  1  0.46020000  0.34730000  0.12750000  1.0 -0.0803848978
C  C83  1  0.42240000  0.31080000  0.08640000  1.0 0.0699262776
C  C84  1  0.49070000  0.34020000  0.16190000  1.0 0.5991333891
C  C85  1  0.11720000  0.97440000  0.96720000  1.0 -0.0127639874
C  C86  1  0.14660000  0.97360000  0.95340000  1.0 -0.1167451997
C  C87  1  0.16630000  0.00680000  0.94610000  1.0 -0.0901728837
C  C88  1  0.15830000  0.04450000  0.95460000  1.0 -0.0803848978
C  C89  1  0.12780000  0.04530000  0.97070000  1.0 0.0521229882
C  C90  1  0.17880000  0.07980000  0.94300000  1.0 0.5991333891
C  C91  1  0.09550000  0.15560000  0.95170000  1.0 0.100555804
C  C92  1  0.05810000  0.15860000  0.95410000  1.0 -0.1517293196
C  C93  1  0.03040000  0.16510000  0.92190000  1.0 -0.053878836
C  C94  1  0.03980000  0.16730000  0.88710000  1.0 -0.0803848978
C  C95  1  0.07760000  0.16400000  0.88840000  1.0 0.0699262776
C  C96  1  0.00930000  0.17120000  0.84950000  1.0 0.5991333891
C  C97  1  0.64280000  0.99280000  0.52560000  1.0 -0.0127639874
C  C98  1  0.67300000  0.97980000  0.52640000  1.0 -0.1167451997
C  C99  1  0.65950000  0.93930000  0.49320000  1.0 -0.0901728837
C  C100  1  0.61380000  0.91010000  0.45550000  1.0 -0.0803848978
C  C101  1  0.58250000  0.92540000  0.45470000  1.0 0.0521229882
C  C102  1  0.59900000  0.86320000  0.42020000  1.0 0.5991333891
C  C103  1  0.43990000  0.79610000  0.34440000  1.0 0.100555804
C  C104  1  0.39950000  0.79550000  0.34140000  1.0 -0.1517293196
C  C105  1  0.36530000  0.75680000  0.33490000  1.0 -0.053878836
C  C106  1  0.37250000  0.71980000  0.33270000  1.0 -0.0803848978
C  C107  1  0.41360000  0.72440000  0.33600000  1.0 0.0699262776
C  C108  1  0.33810000  0.67830000  0.32880000  1.0 0.5991333891
C  C109  1  0.53280000  0.50720000  0.15000000  1.0 -0.0127639874
C  C110  1  0.54660000  0.52020000  0.19320000  1.0 -0.1167451997
C  C111  1  0.55390000  0.56070000  0.22020000  1.0 -0.0901728837
C  C112  1  0.54540000  0.58990000  0.20370000  1.0 -0.0901728837
C  C113  1  0.52930000  0.57460000  0.15710000  1.0 0.0521229882
C  C114  1  0.55700000  0.63680000  0.23580000  1.0 0.5991333891
C  C115  1  0.54830000  0.70390000  0.14380000  1.0 0.100555804
C  C116  1  0.54590000  0.70450000  0.10400000  1.0 -0.1517293196
C  C117  1  0.57810000  0.74320000  0.10850000  1.0 -0.053878836
C  C118  1  0.61290000  0.78020000  0.15270000  1.0 -0.0803848978
C  C119  1  0.61160000  0.77560000  0.18920000  1.0 0.0699262776
C  C120  1  0.65050000  0.82170000  0.15980000  1.0 0.5991333891
C  C121  1  0.85720000  0.38280000  0.35000000  1.0 -0.0127639874
C  C122  1  0.82700000  0.35340000  0.30680000  1.0 -0.1167451997
C  C123  1  0.84050000  0.33370000  0.27980000  1.0 -0.0901728837
C  C124  1  0.88620000  0.34170000  0.29630000  1.0 -0.0803848978
C  C125  1  0.91750000  0.37220000  0.34290000  1.0 0.0521229882
C  C126  1  0.90100000  0.32120000  0.26420000  1.0 0.5991333891
C  C127  1  0.06010000  0.40450000  0.35620000  1.0 0.100555804
C  C128  1  0.10050000  0.44190000  0.39600000  1.0 -0.1517293196
C  C129  1  0.13470000  0.46960000  0.39150000  1.0 -0.053878836
C  C130  1  0.12750000  0.46020000  0.34730000  1.0 -0.0803848978
C  C131  1  0.08640000  0.42240000  0.31080000  1.0 0.0699262776
C  C132  1  0.16190000  0.49070000  0.34020000  1.0 0.5991333891
C  C133  1  0.96720000  0.11720000  0.97440000  1.0 -0.0127639874
C  C134  1  0.95340000  0.14660000  0.97360000  1.0 -0.1167451997
C  C135  1  0.94610000  0.16630000  0.00680000  1.0 -0.0901728837
C  C136  1  0.95460000  0.15830000  0.04450000  1.0 -0.0901728837
C  C137  1  0.97070000  0.12780000  0.04530000  1.0 0.0521229882
C  C138  1  0.94300000  0.17880000  0.07980000  1.0 0.5991333891
C  C139  1  0.95170000  0.09550000  0.15560000  1.0 0.100555804
C  C140  1  0.95410000  0.05810000  0.15860000  1.0 -0.1517293196
C  C141  1  0.92190000  0.03040000  0.16510000  1.0 -0.053878836
C  C142  1  0.88710000  0.03980000  0.16730000  1.0 -0.0803848978
C  C143  1  0.88840000  0.07760000  0.16400000  1.0 0.0699262776
C  C144  1  0.84950000  0.00930000  0.17120000  1.0 0.5991333891
C  C145  1  0.96720000  0.35000000  0.99280000  1.0 -0.0127639874
C  C146  1  0.95340000  0.30680000  0.97980000  1.0 -0.1167451997
C  C147  1  0.94610000  0.27980000  0.93930000  1.0 -0.0901728837
C  C148  1  0.95460000  0.29630000  0.91010000  1.0 -0.0803848978
C  C149  1  0.97070000  0.34290000  0.92540000  1.0 0.0521229882
C  C150  1  0.94300000  0.26420000  0.86320000  1.0 0.5991333891
C  C151  1  0.95170000  0.35620000  0.79610000  1.0 0.100555804
C  C152  1  0.95410000  0.39600000  0.79550000  1.0 -0.1517293196
C  C153  1  0.92190000  0.39150000  0.75680000  1.0 -0.053878836
C  C154  1  0.88710000  0.34730000  0.71980000  1.0 -0.0803848978
C  C155  1  0.88840000  0.31080000  0.72440000  1.0 0.0699262776
C  C156  1  0.84950000  0.34020000  0.67830000  1.0 0.5991333891
C  C157  1  0.85720000  0.97440000  0.50720000  1.0 -0.0127639874
C  C158  1  0.82700000  0.97360000  0.52020000  1.0 -0.1167451997
C  C159  1  0.84050000  0.00680000  0.56070000  1.0 -0.0901728837
C  C160  1  0.88620000  0.04450000  0.58990000  1.0 -0.0803848978
C  C161  1  0.91750000  0.04530000  0.57460000  1.0 0.0521229882
C  C162  1  0.90100000  0.07980000  0.63680000  1.0 0.5991333891
C  C163  1  0.06010000  0.15560000  0.70390000  1.0 0.100555804
C  C164  1  0.10050000  0.15860000  0.70450000  1.0 -0.1517293196
C  C165  1  0.13470000  0.16510000  0.74320000  1.0 -0.053878836
C  C166  1  0.12750000  0.16730000  0.78020000  1.0 -0.0803848978
C  C167  1  0.08640000  0.16400000  0.77560000  1.0 0.0699262776
C  C168  1  0.16190000  0.17120000  0.82170000  1.0 0.5991333891
C  C169  1  0.53280000  0.52560000  0.38280000  1.0 -0.0127639874
C  C170  1  0.54660000  0.52640000  0.35340000  1.0 -0.1167451997
C  C171  1  0.55390000  0.49320000  0.33370000  1.0 -0.0901728837
C  C172  1  0.54540000  0.45550000  0.34170000  1.0 -0.0803848978
C  C173  1  0.52930000  0.45470000  0.37220000  1.0 0.0521229882
C  C174  1  0.55700000  0.42020000  0.32120000  1.0 0.5991333891
C  C175  1  0.54830000  0.34440000  0.40450000  1.0 0.100555804
C  C176  1  0.54590000  0.34140000  0.44190000  1.0 -0.1517293196
C  C177  1  0.57810000  0.33490000  0.46960000  1.0 -0.053878836
C  C178  1  0.61290000  0.33270000  0.46020000  1.0 -0.0803848978
C  C179  1  0.61160000  0.33600000  0.42240000  1.0 0.0699262776
C  C180  1  0.65050000  0.32880000  0.49070000  1.0 0.5991333891
C  C181  1  0.64280000  0.15000000  0.11720000  1.0 -0.0127639874
C  C182  1  0.67300000  0.19320000  0.14660000  1.0 -0.1167451997
C  C183  1  0.65950000  0.22020000  0.16630000  1.0 -0.0901728837
C  C184  1  0.61380000  0.20370000  0.15830000  1.0 -0.0803848978
C  C185  1  0.58250000  0.15710000  0.12780000  1.0 0.0521229882
C  C186  1  0.59900000  0.23580000  0.17880000  1.0 0.5991333891
C  C187  1  0.43990000  0.14380000  0.09550000  1.0 0.100555804
C  C188  1  0.39950000  0.10400000  0.05810000  1.0 -0.1517293196
C  C189  1  0.36530000  0.10850000  0.03040000  1.0 -0.053878836
C  C190  1  0.37250000  0.15270000  0.03980000  1.0 -0.0803848978
C  C191  1  0.41360000  0.18920000  0.07760000  1.0 0.0699262776
C  C192  1  0.33810000  0.15980000  0.00930000  1.0 0.5991333891
C  C193  1  0.15000000  0.11720000  0.64280000  1.0 -0.0127639874
C  C194  1  0.19320000  0.14660000  0.67300000  1.0 -0.1167451997
C  C195  1  0.22020000  0.16630000  0.65950000  1.0 -0.0901728837
C  C196  1  0.20370000  0.15830000  0.61380000  1.0 -0.0803848978
C  C197  1  0.15710000  0.12780000  0.58250000  1.0 0.0521229882
C  C198  1  0.23580000  0.17880000  0.59900000  1.0 0.5991333891
C  C199  1  0.14380000  0.09550000  0.43990000  1.0 0.100555804
C  C200  1  0.10400000  0.05810000  0.39950000  1.0 -0.1517293196
C  C201  1  0.10850000  0.03040000  0.36530000  1.0 -0.053878836
C  C202  1  0.15270000  0.03980000  0.37250000  1.0 -0.0803848978
C  C203  1  0.18920000  0.07760000  0.41360000  1.0 0.0699262776
C  C204  1  0.15980000  0.00930000  0.33810000  1.0 0.5991333891
C  C205  1  0.52560000  0.38280000  0.53280000  1.0 -0.0127639874
C  C206  1  0.52640000  0.35340000  0.54660000  1.0 -0.1167451997
C  C207  1  0.49320000  0.33370000  0.55390000  1.0 -0.0901728837
C  C208  1  0.45550000  0.34170000  0.54540000  1.0 -0.0803848978
C  C209  1  0.45470000  0.37220000  0.52930000  1.0 0.0521229882
C  C210  1  0.42020000  0.32120000  0.55700000  1.0 0.5991333891
C  C211  1  0.34440000  0.40450000  0.54830000  1.0 0.100555804
C  C212  1  0.34140000  0.44190000  0.54590000  1.0 -0.1517293196
C  C213  1  0.33490000  0.46960000  0.57810000  1.0 -0.053878836
C  C214  1  0.33270000  0.46020000  0.61290000  1.0 -0.0803848978
C  C215  1  0.33600000  0.42240000  0.61160000  1.0 0.0699262776
C  C216  1  0.32880000  0.49070000  0.65050000  1.0 0.5991333891
C  C217  1  0.97440000  0.50720000  0.85720000  1.0 -0.0127639874
C  C218  1  0.97360000  0.52020000  0.82700000  1.0 -0.1167451997
C  C219  1  0.00680000  0.56070000  0.84050000  1.0 -0.0901728837
C  C220  1  0.04450000  0.58990000  0.88620000  1.0 -0.0803848978
C  C221  1  0.04530000  0.57460000  0.91750000  1.0 0.0521229882
C  C222  1  0.07980000  0.63680000  0.90100000  1.0 0.5991333891
C  C223  1  0.15560000  0.70390000  0.06010000  1.0 0.100555804
C  C224  1  0.15860000  0.70450000  0.10050000  1.0 -0.1517293196
C  C225  1  0.16510000  0.74320000  0.13470000  1.0 -0.053878836
C  C226  1  0.16730000  0.78020000  0.12750000  1.0 -0.0803848978
C  C227  1  0.16400000  0.77560000  0.08640000  1.0 0.0699262776
C  C228  1  0.17120000  0.82170000  0.16190000  1.0 0.5991333891
C  C229  1  0.35000000  0.99280000  0.96720000  1.0 -0.0127639874
C  C230  1  0.30680000  0.97980000  0.95340000  1.0 -0.1167451997
C  C231  1  0.27980000  0.93930000  0.94610000  1.0 -0.0901728837
C  C232  1  0.29630000  0.91010000  0.95460000  1.0 -0.0803848978
C  C233  1  0.34290000  0.92540000  0.97070000  1.0 0.0521229882
C  C234  1  0.26420000  0.86320000  0.94300000  1.0 0.5991333891
C  C235  1  0.35620000  0.79610000  0.95170000  1.0 0.100555804
C  C236  1  0.39600000  0.79550000  0.95410000  1.0 -0.1517293196
C  C237  1  0.39150000  0.75680000  0.92190000  1.0 -0.053878836
C  C238  1  0.34730000  0.71980000  0.88710000  1.0 -0.0803848978
C  C239  1  0.31080000  0.72440000  0.88840000  1.0 0.0699262776
C  C240  1  0.34020000  0.67830000  0.84950000  1.0 0.5991333891
C  C241  1  0.38280000  0.53280000  0.52560000  1.0 -0.0127639874
C  C242  1  0.35340000  0.54660000  0.52640000  1.0 -0.1167451997
C  C243  1  0.33370000  0.55390000  0.49320000  1.0 -0.0901728837
C  C244  1  0.34170000  0.54540000  0.45550000  1.0 -0.0901728837
C  C245  1  0.37220000  0.52930000  0.45470000  1.0 0.0521229882
C  C246  1  0.32120000  0.55700000  0.42020000  1.0 0.5991333891
C  C247  1  0.40450000  0.54830000  0.34440000  1.0 0.100555804
C  C248  1  0.44190000  0.54590000  0.34140000  1.0 -0.1517293196
C  C249  1  0.46960000  0.57810000  0.33490000  1.0 -0.053878836
C  C250  1  0.46020000  0.61290000  0.33270000  1.0 -0.0803848978
C  C251  1  0.42240000  0.61160000  0.33600000  1.0 0.0699262776
C  C252  1  0.49070000  0.65050000  0.32880000  1.0 0.5991333891
C  C253  1  0.11720000  0.64280000  0.15000000  1.0 -0.0127639874
C  C254  1  0.14660000  0.67300000  0.19320000  1.0 -0.1167451997
C  C255  1  0.16630000  0.65950000  0.22020000  1.0 -0.0901728837
C  C256  1  0.15830000  0.61380000  0.20370000  1.0 -0.0901728837
C  C257  1  0.12780000  0.58250000  0.15710000  1.0 0.0521229882
C  C258  1  0.17880000  0.59900000  0.23580000  1.0 0.5991333891
C  C259  1  0.09550000  0.43990000  0.14380000  1.0 0.100555804
C  C260  1  0.05810000  0.39950000  0.10400000  1.0 -0.1517293196
C  C261  1  0.03040000  0.36530000  0.10850000  1.0 -0.053878836
C  C262  1  0.03980000  0.37250000  0.15270000  1.0 -0.0803848978
C  C263  1  0.07760000  0.41360000  0.18920000  1.0 0.0699262776
C  C264  1  0.00930000  0.33810000  0.15980000  1.0 0.5991333891
C  C265  1  0.99280000  0.96720000  0.35000000  1.0 -0.0127639874
C  C266  1  0.97980000  0.95340000  0.30680000  1.0 -0.1167451997
C  C267  1  0.93930000  0.94610000  0.27980000  1.0 -0.0901728837
C  C268  1  0.91010000  0.95460000  0.29630000  1.0 -0.0803848978
C  C269  1  0.92540000  0.97070000  0.34290000  1.0 0.0521229882
C  C270  1  0.86320000  0.94300000  0.26420000  1.0 0.5991333891
C  C271  1  0.79610000  0.95170000  0.35620000  1.0 0.100555804
C  C272  1  0.79550000  0.95410000  0.39600000  1.0 -0.1517293196
C  C273  1  0.75680000  0.92190000  0.39150000  1.0 -0.053878836
C  C274  1  0.71980000  0.88710000  0.34730000  1.0 -0.0803848978
C  C275  1  0.72440000  0.88840000  0.31080000  1.0 0.0699262776
C  C276  1  0.67830000  0.84950000  0.34020000  1.0 0.5991333891
C  C277  1  0.50720000  0.85720000  0.97440000  1.0 -0.0127639874
C  C278  1  0.52020000  0.82700000  0.97360000  1.0 -0.1167451997
C  C279  1  0.56070000  0.84050000  0.00680000  1.0 -0.0901728837
C  C280  1  0.58990000  0.88620000  0.04450000  1.0 -0.0803848978
C  C281  1  0.57460000  0.91750000  0.04530000  1.0 0.0521229882
C  C282  1  0.63680000  0.90100000  0.07980000  1.0 0.5991333891
C  C283  1  0.70390000  0.06010000  0.15560000  1.0 0.100555804
C  C284  1  0.70450000  0.10050000  0.15860000  1.0 -0.1517293196
C  C285  1  0.74320000  0.13470000  0.16510000  1.0 -0.053878836
C  C286  1  0.78020000  0.12750000  0.16730000  1.0 -0.0803848978
C  C287  1  0.77560000  0.08640000  0.16400000  1.0 0.0699262776
C  C288  1  0.82170000  0.16190000  0.17120000  1.0 0.5991333891
C  C289  1  0.47440000  0.35720000  0.00720000  1.0 -0.0127639874
C  C290  1  0.47360000  0.32700000  0.02020000  1.0 -0.1167451997
C  C291  1  0.50680000  0.34050000  0.06070000  1.0 -0.0901728837
C  C292  1  0.54450000  0.38620000  0.08990000  1.0 -0.0901728837
C  C293  1  0.54530000  0.41750000  0.07460000  1.0 0.0521229882
C  C294  1  0.57980000  0.40100000  0.13680000  1.0 0.5991333891
C  C295  1  0.65560000  0.56010000  0.20390000  1.0 0.100555804
C  C296  1  0.65860000  0.60050000  0.20450000  1.0 -0.1517293196
C  C297  1  0.66510000  0.63470000  0.24320000  1.0 -0.053878836
C  C298  1  0.66730000  0.62750000  0.28020000  1.0 -0.0803848978
C  C299  1  0.66400000  0.58640000  0.27560000  1.0 0.0699262776
C  C300  1  0.67120000  0.66190000  0.32170000  1.0 0.5991333891
C  C301  1  0.85000000  0.46720000  0.49280000  1.0 -0.0127639874
C  C302  1  0.80680000  0.45340000  0.47980000  1.0 -0.1167451997
C  C303  1  0.77980000  0.44610000  0.43930000  1.0 -0.0901728837
C  C304  1  0.79630000  0.45460000  0.41010000  1.0 -0.0803848978
C  C305  1  0.84290000  0.47070000  0.42540000  1.0 0.0521229882
C  C306  1  0.76420000  0.44300000  0.36320000  1.0 0.5991333891
C  C307  1  0.85620000  0.45170000  0.29610000  1.0 0.100555804
C  C308  1  0.89600000  0.45410000  0.29550000  1.0 -0.1517293196
C  C309  1  0.89150000  0.42190000  0.25680000  1.0 -0.053878836
C  C310  1  0.84730000  0.38710000  0.21980000  1.0 -0.0803848978
C  C311  1  0.81080000  0.38840000  0.22440000  1.0 0.0699262776
C  C312  1  0.84020000  0.34950000  0.17830000  1.0 0.5991333891
C  C313  1  0.65000000  0.14280000  0.61720000  1.0 -0.0127639874
C  C314  1  0.69320000  0.17300000  0.64660000  1.0 -0.1167451997
C  C315  1  0.72020000  0.15950000  0.66630000  1.0 -0.0901728837
C  C316  1  0.70370000  0.11380000  0.65830000  1.0 -0.0901728837
C  C317  1  0.65710000  0.08250000  0.62780000  1.0 0.0521229882
C  C318  1  0.73580000  0.09900000  0.67880000  1.0 0.5991333891
C  C319  1  0.64380000  0.93990000  0.59550000  1.0 0.100555804
C  C320  1  0.60400000  0.89950000  0.55810000  1.0 -0.1517293196
C  C321  1  0.60850000  0.86530000  0.53040000  1.0 -0.053878836
C  C322  1  0.65270000  0.87250000  0.53980000  1.0 -0.0803848978
C  C323  1  0.68920000  0.91360000  0.57760000  1.0 0.0699262776
C  C324  1  0.65980000  0.83810000  0.50930000  1.0 0.5991333891
C  C325  1  0.02560000  0.03280000  0.88280000  1.0 -0.0127639874
C  C326  1  0.02640000  0.04660000  0.85340000  1.0 -0.1167451997
C  C327  1  0.99320000  0.05390000  0.83370000  1.0 -0.0901728837
C  C328  1  0.95550000  0.04540000  0.84170000  1.0 -0.0901728837
C  C329  1  0.95470000  0.02930000  0.87220000  1.0 0.0521229882
C  C330  1  0.92020000  0.05700000  0.82120000  1.0 0.5991333891
C  C331  1  0.84440000  0.04830000  0.90450000  1.0 0.100555804
C  C332  1  0.84140000  0.04590000  0.94190000  1.0 -0.1517293196
C  C333  1  0.83490000  0.07810000  0.96960000  1.0 -0.053878836
C  C334  1  0.83270000  0.11290000  0.96020000  1.0 -0.0803848978
C  C335  1  0.83600000  0.11160000  0.92240000  1.0 0.0699262776
C  C336  1  0.82880000  0.15050000  0.99070000  1.0 0.5991333891
C  C337  1  0.00720000  0.47440000  0.35720000  1.0 -0.0127639874
C  C338  1  0.02020000  0.47360000  0.32700000  1.0 -0.1167451997
C  C339  1  0.06070000  0.50680000  0.34050000  1.0 -0.0901728837
C  C340  1  0.08990000  0.54450000  0.38620000  1.0 -0.0803848978
C  C341  1  0.07460000  0.54530000  0.41750000  1.0 0.0521229882
C  C342  1  0.13680000  0.57980000  0.40100000  1.0 0.5991333891
C  C343  1  0.20390000  0.65560000  0.56010000  1.0 0.100555804
C  C344  1  0.20450000  0.65860000  0.60050000  1.0 -0.1517293196
C  C345  1  0.24320000  0.66510000  0.63470000  1.0 -0.053878836
C  C346  1  0.28020000  0.66730000  0.62750000  1.0 -0.0803848978
C  C347  1  0.27560000  0.66400000  0.58640000  1.0 0.0699262776
C  C348  1  0.32170000  0.67120000  0.66190000  1.0 0.5991333891
C  C349  1  0.49280000  0.85000000  0.46720000  1.0 -0.0127639874
C  C350  1  0.47980000  0.80680000  0.45340000  1.0 -0.1167451997
C  C351  1  0.43930000  0.77980000  0.44610000  1.0 -0.0901728837
C  C352  1  0.41010000  0.79630000  0.45460000  1.0 -0.0803848978
C  C353  1  0.42540000  0.84290000  0.47070000  1.0 0.0521229882
C  C354  1  0.36320000  0.76420000  0.44300000  1.0 0.5991333891
C  C355  1  0.29610000  0.85620000  0.45170000  1.0 0.100555804
C  C356  1  0.29550000  0.89600000  0.45410000  1.0 -0.1517293196
C  C357  1  0.25680000  0.89150000  0.42190000  1.0 -0.053878836
C  C358  1  0.21980000  0.84730000  0.38710000  1.0 -0.0803848978
C  C359  1  0.22440000  0.81080000  0.38840000  1.0 0.0699262776
C  C360  1  0.17830000  0.84020000  0.34950000  1.0 0.5991333891
C  C361  1  0.61720000  0.65000000  0.14280000  1.0 -0.0127639874
C  C362  1  0.64660000  0.69320000  0.17300000  1.0 -0.1167451997
C  C363  1  0.66630000  0.72020000  0.15950000  1.0 -0.0901728837
C  C364  1  0.65830000  0.70370000  0.11380000  1.0 -0.0901728837
C  C365  1  0.62780000  0.65710000  0.08250000  1.0 0.0521229882
C  C366  1  0.67880000  0.73580000  0.09900000  1.0 0.5991333891
C  C367  1  0.59550000  0.64380000  0.93990000  1.0 0.100555804
C  C368  1  0.55810000  0.60400000  0.89950000  1.0 -0.1517293196
C  C369  1  0.53040000  0.60850000  0.86530000  1.0 -0.053878836
C  C370  1  0.53980000  0.65270000  0.87250000  1.0 -0.0803848978
C  C371  1  0.57760000  0.68920000  0.91360000  1.0 0.0699262776
C  C372  1  0.50930000  0.65980000  0.83810000  1.0 0.5991333891
C  C373  1  0.88280000  0.02560000  0.03280000  1.0 -0.0127639874
C  C374  1  0.85340000  0.02640000  0.04660000  1.0 -0.1167451997
C  C375  1  0.83370000  0.99320000  0.05390000  1.0 -0.0901728837
C  C376  1  0.84170000  0.95550000  0.04540000  1.0 -0.0803848978
C  C377  1  0.87220000  0.95470000  0.02930000  1.0 0.0521229882
C  C378  1  0.82120000  0.92020000  0.05700000  1.0 0.5991333891
C  C379  1  0.90450000  0.84440000  0.04830000  1.0 0.100555804
C  C380  1  0.94190000  0.84140000  0.04590000  1.0 -0.1517293196
C  C381  1  0.96960000  0.83490000  0.07810000  1.0 -0.053878836
C  C382  1  0.96020000  0.83270000  0.11290000  1.0 -0.0803848978
C  C383  1  0.92240000  0.83600000  0.11160000  1.0 0.0699262776
C  C384  1  0.99070000  0.82880000  0.15050000  1.0 0.5991333891
C  C385  1  0.35720000  0.00720000  0.47440000  1.0 -0.0127639874
C  C386  1  0.32700000  0.02020000  0.47360000  1.0 -0.1167451997
C  C387  1  0.34050000  0.06070000  0.50680000  1.0 -0.0901728837
C  C388  1  0.38620000  0.08990000  0.54450000  1.0 -0.0803848978
C  C389  1  0.41750000  0.07460000  0.54530000  1.0 0.0521229882
C  C390  1  0.40100000  0.13680000  0.57980000  1.0 0.5991333891
C  C391  1  0.56010000  0.20390000  0.65560000  1.0 0.100555804
C  C392  1  0.60050000  0.20450000  0.65860000  1.0 -0.1517293196
C  C393  1  0.63470000  0.24320000  0.66510000  1.0 -0.053878836
C  C394  1  0.62750000  0.28020000  0.66730000  1.0 -0.0803848978
C  C395  1  0.58640000  0.27560000  0.66400000  1.0 0.0699262776
C  C396  1  0.66190000  0.32170000  0.67120000  1.0 0.5991333891
C  C397  1  0.46720000  0.49280000  0.85000000  1.0 -0.0127639874
C  C398  1  0.45340000  0.47980000  0.80680000  1.0 -0.1167451997
C  C399  1  0.44610000  0.43930000  0.77980000  1.0 -0.0901728837
C  C400  1  0.45460000  0.41010000  0.79630000  1.0 -0.0803848978
C  C401  1  0.47070000  0.42540000  0.84290000  1.0 0.0521229882
C  C402  1  0.44300000  0.36320000  0.76420000  1.0 0.5991333891
C  C403  1  0.45170000  0.29610000  0.85620000  1.0 0.100555804
C  C404  1  0.45410000  0.29550000  0.89600000  1.0 -0.1517293196
C  C405  1  0.42190000  0.25680000  0.89150000  1.0 -0.053878836
C  C406  1  0.38710000  0.21980000  0.84730000  1.0 -0.0803848978
C  C407  1  0.38840000  0.22440000  0.81080000  1.0 0.0699262776
C  C408  1  0.34950000  0.17830000  0.84020000  1.0 0.5991333891
C  C409  1  0.14280000  0.61720000  0.65000000  1.0 -0.0127639874
C  C410  1  0.17300000  0.64660000  0.69320000  1.0 -0.1167451997
C  C411  1  0.15950000  0.66630000  0.72020000  1.0 -0.0901728837
C  C412  1  0.11380000  0.65830000  0.70370000  1.0 -0.0901728837
C  C413  1  0.08250000  0.62780000  0.65710000  1.0 0.0521229882
C  C414  1  0.09900000  0.67880000  0.73580000  1.0 0.5991333891
C  C415  1  0.93990000  0.59550000  0.64380000  1.0 0.100555804
C  C416  1  0.89950000  0.55810000  0.60400000  1.0 -0.1517293196
C  C417  1  0.86530000  0.53040000  0.60850000  1.0 -0.053878836
C  C418  1  0.87250000  0.53980000  0.65270000  1.0 -0.0803848978
C  C419  1  0.91360000  0.57760000  0.68920000  1.0 0.0699262776
C  C420  1  0.83810000  0.50930000  0.65980000  1.0 0.5991333891
C  C421  1  0.03280000  0.88280000  0.02560000  1.0 -0.0127639874
C  C422  1  0.04660000  0.85340000  0.02640000  1.0 -0.1167451997
C  C423  1  0.05390000  0.83370000  0.99320000  1.0 -0.0901728837
C  C424  1  0.04540000  0.84170000  0.95550000  1.0 -0.0901728837
C  C425  1  0.02930000  0.87220000  0.95470000  1.0 0.0521229882
C  C426  1  0.05700000  0.82120000  0.92020000  1.0 0.5991333891
C  C427  1  0.04830000  0.90450000  0.84440000  1.0 0.1068686736
C  C428  1  0.04590000  0.94190000  0.84140000  1.0 -0.1517293196
C  C429  1  0.07810000  0.96960000  0.83490000  1.0 -0.053878836
C  C430  1  0.11290000  0.96020000  0.83270000  1.0 -0.0803848978
C  C431  1  0.11160000  0.92240000  0.83600000  1.0 0.0699262776
C  C432  1  0.15050000  0.99070000  0.82880000  1.0 0.5991333891
C  C433  1  0.03280000  0.65000000  0.00720000  1.0 -0.0127639874
C  C434  1  0.04660000  0.69320000  0.02020000  1.0 -0.1167451997
C  C435  1  0.05390000  0.72020000  0.06070000  1.0 -0.0901728837
C  C436  1  0.04540000  0.70370000  0.08990000  1.0 -0.0901728837
C  C437  1  0.02930000  0.65710000  0.07460000  1.0 0.0521229882
C  C438  1  0.05700000  0.73580000  0.13680000  1.0 0.5991333891
C  C439  1  0.04830000  0.64380000  0.20390000  1.0 0.100555804
C  C440  1  0.04590000  0.60400000  0.20450000  1.0 -0.1517293196
C  C441  1  0.07810000  0.60850000  0.24320000  1.0 -0.053878836
C  C442  1  0.11290000  0.65270000  0.28020000  1.0 -0.0803848978
C  C443  1  0.11160000  0.68920000  0.27560000  1.0 0.0699262776
C  C444  1  0.15050000  0.65980000  0.32170000  1.0 0.5991333891
C  C445  1  0.14280000  0.02560000  0.49280000  1.0 -0.0127639874
C  C446  1  0.17300000  0.02640000  0.47980000  1.0 -0.1167451997
C  C447  1  0.15950000  0.99320000  0.43930000  1.0 -0.0901728837
C  C448  1  0.11380000  0.95550000  0.41010000  1.0 -0.0803848978
C  C449  1  0.08250000  0.95470000  0.42540000  1.0 0.0521229882
C  C450  1  0.09900000  0.92020000  0.36320000  1.0 0.5991333891
C  C451  1  0.93990000  0.84440000  0.29610000  1.0 0.1068686736
C  C452  1  0.89950000  0.84140000  0.29550000  1.0 -0.1517293196
C  C453  1  0.86530000  0.83490000  0.25680000  1.0 -0.053878836
C  C454  1  0.87250000  0.83270000  0.21980000  1.0 -0.0803848978
C  C455  1  0.91360000  0.83600000  0.22440000  1.0 0.0699262776
C  C456  1  0.83810000  0.82880000  0.17830000  1.0 0.5991333891
C  C457  1  0.46720000  0.47440000  0.61720000  1.0 -0.0127639874
C  C458  1  0.45340000  0.47360000  0.64660000  1.0 -0.1167451997
C  C459  1  0.44610000  0.50680000  0.66630000  1.0 -0.0901728837
C  C460  1  0.45460000  0.54450000  0.65830000  1.0 -0.0803848978
C  C461  1  0.47070000  0.54530000  0.62780000  1.0 0.0521229882
C  C462  1  0.44300000  0.57980000  0.67880000  1.0 0.5991333891
C  C463  1  0.45170000  0.65560000  0.59550000  1.0 0.1068686736
C  C464  1  0.45410000  0.65860000  0.55810000  1.0 -0.1517293196
C  C465  1  0.42190000  0.66510000  0.53040000  1.0 -0.053878836
C  C466  1  0.38710000  0.66730000  0.53980000  1.0 -0.0803848978
C  C467  1  0.38840000  0.66400000  0.57760000  1.0 0.0699262776
C  C468  1  0.34950000  0.67120000  0.50930000  1.0 0.5991333891
C  C469  1  0.35720000  0.85000000  0.88280000  1.0 -0.0127639874
C  C470  1  0.32700000  0.80680000  0.85340000  1.0 -0.1167451997
C  C471  1  0.34050000  0.77980000  0.83370000  1.0 -0.0901728837
C  C472  1  0.38620000  0.79630000  0.84170000  1.0 -0.0803848978
C  C473  1  0.41750000  0.84290000  0.87220000  1.0 0.0521229882
C  C474  1  0.40100000  0.76420000  0.82120000  1.0 0.5991333891
C  C475  1  0.56010000  0.85620000  0.90450000  1.0 0.100555804
C  C476  1  0.60050000  0.89600000  0.94190000  1.0 -0.1517293196
C  C477  1  0.63470000  0.89150000  0.96960000  1.0 -0.053878836
C  C478  1  0.62750000  0.84730000  0.96020000  1.0 -0.0803848978
C  C479  1  0.58640000  0.81080000  0.92240000  1.0 0.0699262776
C  C480  1  0.66190000  0.84020000  0.99070000  1.0 0.5991333891
C  C481  1  0.85000000  0.88280000  0.35720000  1.0 -0.0127639874
C  C482  1  0.80680000  0.85340000  0.32700000  1.0 -0.1167451997
C  C483  1  0.77980000  0.83370000  0.34050000  1.0 -0.0901728837
C  C484  1  0.79630000  0.84170000  0.38620000  1.0 -0.0803848978
C  C485  1  0.84290000  0.87220000  0.41750000  1.0 0.0521229882
C  C486  1  0.76420000  0.82120000  0.40100000  1.0 0.5991333891
C  C487  1  0.85620000  0.90450000  0.56010000  1.0 0.100555804
C  C488  1  0.89600000  0.94190000  0.60050000  1.0 -0.1517293196
C  C489  1  0.89150000  0.96960000  0.63470000  1.0 -0.053878836
C  C490  1  0.84730000  0.96020000  0.62750000  1.0 -0.0803848978
C  C491  1  0.81080000  0.92240000  0.58640000  1.0 0.0699262776
C  C492  1  0.84020000  0.99070000  0.66190000  1.0 0.5991333891
C  C493  1  0.47440000  0.61720000  0.46720000  1.0 -0.0127639874
C  C494  1  0.47360000  0.64660000  0.45340000  1.0 -0.1167451997
C  C495  1  0.50680000  0.66630000  0.44610000  1.0 -0.0901728837
C  C496  1  0.54450000  0.65830000  0.45460000  1.0 -0.0803848978
C  C497  1  0.54530000  0.62780000  0.47070000  1.0 0.0521229882
C  C498  1  0.57980000  0.67880000  0.44300000  1.0 0.5991333891
C  C499  1  0.65560000  0.59550000  0.45170000  1.0 0.100555804
C  C500  1  0.65860000  0.55810000  0.45410000  1.0 -0.1517293196
C  C501  1  0.66510000  0.53040000  0.42190000  1.0 -0.053878836
C  C502  1  0.66730000  0.53980000  0.38710000  1.0 -0.0803848978
C  C503  1  0.66400000  0.57760000  0.38840000  1.0 0.0699262776
C  C504  1  0.67120000  0.50930000  0.34950000  1.0 0.5991333891
C  C505  1  0.02560000  0.49280000  0.14280000  1.0 -0.0127639874
C  C506  1  0.02640000  0.47980000  0.17300000  1.0 -0.1167451997
C  C507  1  0.99320000  0.43930000  0.15950000  1.0 -0.0901728837
C  C508  1  0.95550000  0.41010000  0.11380000  1.0 -0.0803848978
C  C509  1  0.95470000  0.42540000  0.08250000  1.0 0.0521229882
C  C510  1  0.92020000  0.36320000  0.09900000  1.0 0.5991333891
C  C511  1  0.84440000  0.29610000  0.93990000  1.0 0.100555804
C  C512  1  0.84140000  0.29550000  0.89950000  1.0 -0.1517293196
C  C513  1  0.83490000  0.25680000  0.86530000  1.0 -0.053878836
C  C514  1  0.83270000  0.21980000  0.87250000  1.0 -0.0803848978
C  C515  1  0.83600000  0.22440000  0.91360000  1.0 0.0699262776
C  C516  1  0.82880000  0.17830000  0.83810000  1.0 0.5991333891
C  C517  1  0.65000000  0.00720000  0.03280000  1.0 -0.0127639874
C  C518  1  0.69320000  0.02020000  0.04660000  1.0 -0.1167451997
C  C519  1  0.72020000  0.06070000  0.05390000  1.0 -0.0901728837
C  C520  1  0.70370000  0.08990000  0.04540000  1.0 -0.0803848978
C  C521  1  0.65710000  0.07460000  0.02930000  1.0 0.0521229882
C  C522  1  0.73580000  0.13680000  0.05700000  1.0 0.5991333891
C  C523  1  0.64380000  0.20390000  0.04830000  1.0 0.100555804
C  C524  1  0.60400000  0.20450000  0.04590000  1.0 -0.1517293196
C  C525  1  0.60850000  0.24320000  0.07810000  1.0 -0.053878836
C  C526  1  0.65270000  0.28020000  0.11290000  1.0 -0.0803848978
C  C527  1  0.68920000  0.27560000  0.11160000  1.0 0.0699262776
C  C528  1  0.65980000  0.32170000  0.15050000  1.0 0.5991333891
C  C529  1  0.61720000  0.46720000  0.47440000  1.0 -0.0127639874
C  C530  1  0.64660000  0.45340000  0.47360000  1.0 -0.1167451997
C  C531  1  0.66630000  0.44610000  0.50680000  1.0 -0.0901728837
C  C532  1  0.65830000  0.45460000  0.54450000  1.0 -0.0803848978
C  C533  1  0.62780000  0.47070000  0.54530000  1.0 0.0521229882
C  C534  1  0.67880000  0.44300000  0.57980000  1.0 0.5991333891
C  C535  1  0.59550000  0.45170000  0.65560000  1.0 0.100555804
C  C536  1  0.55810000  0.45410000  0.65860000  1.0 -0.1517293196
C  C537  1  0.53040000  0.42190000  0.66510000  1.0 -0.053878836
C  C538  1  0.53980000  0.38710000  0.66730000  1.0 -0.0803848978
C  C539  1  0.57760000  0.38840000  0.66400000  1.0 0.0699262776
C  C540  1  0.50930000  0.34950000  0.67120000  1.0 0.5991333891
C  C541  1  0.88280000  0.35720000  0.85000000  1.0 -0.0127639874
C  C542  1  0.85340000  0.32700000  0.80680000  1.0 -0.1167451997
C  C543  1  0.83370000  0.34050000  0.77980000  1.0 -0.0901728837
C  C544  1  0.84170000  0.38620000  0.79630000  1.0 -0.0803848978
C  C545  1  0.87220000  0.41750000  0.84290000  1.0 0.0521229882
C  C546  1  0.82120000  0.40100000  0.76420000  1.0 0.5991333891
C  C547  1  0.90450000  0.56010000  0.85620000  1.0 0.100555804
C  C548  1  0.94190000  0.60050000  0.89600000  1.0 -0.1517293196
C  C549  1  0.96960000  0.63470000  0.89150000  1.0 -0.053878836
C  C550  1  0.96020000  0.62750000  0.84730000  1.0 -0.0803848978
C  C551  1  0.92240000  0.58640000  0.81080000  1.0 0.0699262776
C  C552  1  0.99070000  0.66190000  0.84020000  1.0 0.5991333891
C  C553  1  0.00720000  0.03280000  0.65000000  1.0 -0.0127639874
C  C554  1  0.02020000  0.04660000  0.69320000  1.0 -0.1167451997
C  C555  1  0.06070000  0.05390000  0.72020000  1.0 -0.0901728837
C  C556  1  0.08990000  0.04540000  0.70370000  1.0 -0.0803848978
C  C557  1  0.07460000  0.02930000  0.65710000  1.0 0.0521229882
C  C558  1  0.13680000  0.05700000  0.73580000  1.0 0.5991333891
C  C559  1  0.20390000  0.04830000  0.64380000  1.0 0.100555804
C  C560  1  0.20450000  0.04590000  0.60400000  1.0 -0.1517293196
C  C561  1  0.24320000  0.07810000  0.60850000  1.0 -0.053878836
C  C562  1  0.28020000  0.11290000  0.65270000  1.0 -0.0803848978
C  C563  1  0.27560000  0.11160000  0.68920000  1.0 0.0699262776
C  C564  1  0.32170000  0.15050000  0.65980000  1.0 0.5991333891
C  C565  1  0.49280000  0.14280000  0.02560000  1.0 -0.0127639874
C  C566  1  0.47980000  0.17300000  0.02640000  1.0 -0.1167451997
C  C567  1  0.43930000  0.15950000  0.99320000  1.0 -0.0901728837
C  C568  1  0.41010000  0.11380000  0.95550000  1.0 -0.0901728837
C  C569  1  0.42540000  0.08250000  0.95470000  1.0 0.0521229882
C  C570  1  0.36320000  0.09900000  0.92020000  1.0 0.5991333891
C  C571  1  0.29610000  0.93990000  0.84440000  1.0 0.100555804
C  C572  1  0.29550000  0.89950000  0.84140000  1.0 -0.1517293196
C  C573  1  0.25680000  0.86530000  0.83490000  1.0 -0.053878836
C  C574  1  0.21980000  0.87250000  0.83270000  1.0 -0.0803848978
C  C575  1  0.22440000  0.91360000  0.83600000  1.0 0.0699262776
C  C576  1  0.17830000  0.83810000  0.82880000  1.0 0.5991333891
N  N1  1  0.48950000  0.59630000  0.96700000  1.0 -0.2537988356
N  N2  1  0.34140000  0.44660000  0.76080000  1.0 -0.4010018191
N  N3  1  0.12930000  0.52250000  0.53300000  1.0 -0.2537988356
N  N4  1  0.18580000  0.58060000  0.73920000  1.0 -0.4010018191
N  N5  1  0.37070000  0.90370000  0.39320000  1.0 -0.2537988356
N  N6  1  0.31420000  0.05340000  0.39480000  1.0 -0.4010018191
N  N7  1  0.01050000  0.97750000  0.10680000  1.0 -0.2537988356
N  N8  1  0.15860000  0.91940000  0.10520000  1.0 -0.4010018191
N  N9  1  0.96700000  0.48950000  0.59630000  1.0 -0.2537988356
N  N10  1  0.76080000  0.34140000  0.44660000  1.0 -0.4010018191
N  N11  1  0.53300000  0.12930000  0.52250000  1.0 -0.2537988356
N  N12  1  0.73920000  0.18580000  0.58060000  1.0 -0.4010018191
N  N13  1  0.39320000  0.37070000  0.90370000  1.0 -0.2537988356
N  N14  1  0.39480000  0.31420000  0.05340000  1.0 -0.4010018191
N  N15  1  0.10680000  0.01050000  0.97750000  1.0 -0.2537988356
N  N16  1  0.10520000  0.15860000  0.91940000  1.0 -0.4010018191
N  N17  1  0.59630000  0.96700000  0.48950000  1.0 -0.2537988356
N  N18  1  0.44660000  0.76080000  0.34140000  1.0 -0.4010018191
N  N19  1  0.52250000  0.53300000  0.12930000  1.0 -0.2537988356
N  N20  1  0.58060000  0.73920000  0.18580000  1.0 -0.4010018191
N  N21  1  0.90370000  0.39320000  0.37070000  1.0 -0.2537988356
N  N22  1  0.05340000  0.39480000  0.31420000  1.0 -0.4010018191
N  N23  1  0.97750000  0.10680000  0.01050000  1.0 -0.2537988356
N  N24  1  0.91940000  0.10520000  0.15860000  1.0 -0.4010018191
N  N25  1  0.97750000  0.37070000  0.96700000  1.0 -0.2537988356
N  N26  1  0.91940000  0.31420000  0.76080000  1.0 -0.4010018191
N  N27  1  0.90370000  0.01050000  0.53300000  1.0 -0.2537988356
N  N28  1  0.05340000  0.15860000  0.73920000  1.0 -0.4010018191
N  N29  1  0.52250000  0.48950000  0.39320000  1.0 -0.2537988356
N  N30  1  0.58060000  0.34140000  0.39480000  1.0 -0.4010018191
N  N31  1  0.59630000  0.12930000  0.10680000  1.0 -0.2537988356
N  N32  1  0.44660000  0.18580000  0.10520000  1.0 -0.4010018191
N  N33  1  0.12930000  0.10680000  0.59630000  1.0 -0.2537988356
N  N34  1  0.18580000  0.10520000  0.44660000  1.0 -0.4010018191
N  N35  1  0.48950000  0.39320000  0.52250000  1.0 -0.2537988356
N  N36  1  0.34140000  0.39480000  0.58060000  1.0 -0.4010018191
N  N37  1  0.01050000  0.53300000  0.90370000  1.0 -0.2537988356
N  N38  1  0.15860000  0.73920000  0.05340000  1.0 -0.4010018191
N  N39  1  0.37070000  0.96700000  0.97750000  1.0 -0.2537988356
N  N40  1  0.31420000  0.76080000  0.91940000  1.0 -0.4010018191
N  N41  1  0.39320000  0.52250000  0.48950000  1.0 -0.2537988356
N  N42  1  0.39480000  0.58060000  0.34140000  1.0 -0.4010018191
N  N43  1  0.10680000  0.59630000  0.12930000  1.0 -0.2537988356
N  N44  1  0.10520000  0.44660000  0.18580000  1.0 -0.4010018191
N  N45  1  0.96700000  0.97750000  0.37070000  1.0 -0.2537988356
N  N46  1  0.76080000  0.91940000  0.31420000  1.0 -0.4010018191
N  N47  1  0.53300000  0.90370000  0.01050000  1.0 -0.2537988356
N  N48  1  0.73920000  0.05340000  0.15860000  1.0 -0.4010018191
N  N49  1  0.51050000  0.40370000  0.03300000  1.0 -0.2537988356
N  N50  1  0.65860000  0.55340000  0.23920000  1.0 -0.4010018191
N  N51  1  0.87070000  0.47750000  0.46700000  1.0 -0.2537988356
N  N52  1  0.81420000  0.41940000  0.26080000  1.0 -0.4010018191
N  N53  1  0.62930000  0.09630000  0.60680000  1.0 -0.2537988356
N  N54  1  0.68580000  0.94660000  0.60520000  1.0 -0.4010018191
N  N55  1  0.98950000  0.02250000  0.89320000  1.0 -0.2537988356
N  N56  1  0.84140000  0.08060000  0.89480000  1.0 -0.4010018191
N  N57  1  0.03300000  0.51050000  0.40370000  1.0 -0.2537988356
N  N58  1  0.23920000  0.65860000  0.55340000  1.0 -0.4010018191
N  N59  1  0.46700000  0.87070000  0.47750000  1.0 -0.2537988356
N  N60  1  0.26080000  0.81420000  0.41940000  1.0 -0.4010018191
N  N61  1  0.60680000  0.62930000  0.09630000  1.0 -0.2537988356
N  N62  1  0.60520000  0.68580000  0.94660000  1.0 -0.4010018191
N  N63  1  0.89320000  0.98950000  0.02250000  1.0 -0.2537988356
N  N64  1  0.89480000  0.84140000  0.08060000  1.0 -0.4010018191
N  N65  1  0.40370000  0.03300000  0.51050000  1.0 -0.2537988356
N  N66  1  0.55340000  0.23920000  0.65860000  1.0 -0.4010018191
N  N67  1  0.47750000  0.46700000  0.87070000  1.0 -0.2537988356
N  N68  1  0.41940000  0.26080000  0.81420000  1.0 -0.4010018191
N  N69  1  0.09630000  0.60680000  0.62930000  1.0 -0.2537988356
N  N70  1  0.94660000  0.60520000  0.68580000  1.0 -0.4010018191
N  N71  1  0.02250000  0.89320000  0.98950000  1.0 -0.2537988356
N  N72  1  0.08060000  0.89480000  0.84140000  1.0 -0.4010018191
N  N73  1  0.02250000  0.62930000  0.03300000  1.0 -0.2537988356
N  N74  1  0.08060000  0.68580000  0.23920000  1.0 -0.4010018191
N  N75  1  0.09630000  0.98950000  0.46700000  1.0 -0.2537988356
N  N76  1  0.94660000  0.84140000  0.26080000  1.0 -0.4010018191
N  N77  1  0.47750000  0.51050000  0.60680000  1.0 -0.2537988356
N  N78  1  0.41940000  0.65860000  0.60520000  1.0 -0.4010018191
N  N79  1  0.40370000  0.87070000  0.89320000  1.0 -0.2537988356
N  N80  1  0.55340000  0.81420000  0.89480000  1.0 -0.4010018191
N  N81  1  0.87070000  0.89320000  0.40370000  1.0 -0.2537988356
N  N82  1  0.81420000  0.89480000  0.55340000  1.0 -0.4010018191
N  N83  1  0.51050000  0.60680000  0.47750000  1.0 -0.2537988356
N  N84  1  0.65860000  0.60520000  0.41940000  1.0 -0.4010018191
N  N85  1  0.98950000  0.46700000  0.09630000  1.0 -0.2537988356
N  N86  1  0.84140000  0.26080000  0.94660000  1.0 -0.4010018191
N  N87  1  0.62930000  0.03300000  0.02250000  1.0 -0.2537988356
N  N88  1  0.68580000  0.23920000  0.08060000  1.0 -0.4010018191
N  N89  1  0.60680000  0.47750000  0.51050000  1.0 -0.2537988356
N  N90  1  0.60520000  0.41940000  0.65860000  1.0 -0.4010018191
N  N91  1  0.89320000  0.40370000  0.87070000  1.0 -0.2537988356
N  N92  1  0.89480000  0.55340000  0.81420000  1.0 -0.4010018191
N  N93  1  0.03300000  0.02250000  0.62930000  1.0 -0.2537988356
N  N94  1  0.23920000  0.08060000  0.68580000  1.0 -0.4010018191
N  N95  1  0.46700000  0.09630000  0.98950000  1.0 -0.2537988356
N  N96  1  0.26080000  0.94660000  0.84140000  1.0 -0.4010018191
O  O1  1  0.37559000  0.58025000  0.75296000  1.0 -1.0221408512
O  O2  1  0.42182000  0.63176000  0.85496000  1.0 -0.545158901
O  O3  1  0.32859000  0.30257000  0.67800000  1.0 -0.5368152725
O  O4  1  0.28228000  0.52867000  0.70531000  1.0 -1.1071726988
O  O5  1  0.39247000  0.55714000  0.83541000  1.0 -0.6286135769
O  O6  1  0.32684000  0.34824000  0.64706000  1.0 -0.6451704752
O  O7  1  0.32729000  0.62263000  0.74704000  1.0 -1.0221408512
O  O8  1  0.27680000  0.56686000  0.64504000  1.0 -0.5368152725
O  O9  1  0.12457000  0.65059000  0.82200000  1.0 -0.5368152725
O  O10  1  0.32336000  0.57697000  0.79469000  1.0 -1.1071726988
O  O11  1  0.22173000  0.55706000  0.66459000  1.0 -0.6286135769
O  O12  1  0.20118000  0.67978000  0.85294000  1.0 -0.6451704752
O  O13  1  0.17271000  0.91975000  0.29534000  1.0 -1.0221408512
O  O14  1  0.22320000  0.86824000  0.29006000  1.0 -0.5368152725
O  O15  1  0.37543000  0.19743000  0.52602000  1.0 -0.5368152725
O  O16  1  0.17664000  0.97133000  0.25361000  1.0 -1.1071726988
O  O17  1  0.27827000  0.94286000  0.33533000  1.0 -0.6286135769
O  O18  1  0.29882000  0.15176000  0.47860000  1.0 -0.6451704752
O  O19  1  0.12441000  0.87737000  0.20466000  1.0 -1.0221408512
O  O20  1  0.07818000  0.93314000  0.20994000  1.0 -0.545158901
O  O21  1  0.17141000  0.84941000  0.97398000  1.0 -0.5368152725
O  O22  1  0.21772000  0.92303000  0.24639000  1.0 -1.1071726988
O  O23  1  0.10753000  0.94294000  0.16467000  1.0 -0.6286135769
O  O24  1  0.17316000  0.82022000  0.02140000  1.0 -0.6443483985
O  O25  1  0.75296000  0.37559000  0.58025000  1.0 -1.0221408512
O  O26  1  0.85496000  0.42182000  0.63176000  1.0 -0.545158901
O  O27  1  0.67800000  0.32859000  0.30257000  1.0 -0.5368152725
O  O28  1  0.70531000  0.28228000  0.52867000  1.0 -1.1071726988
O  O29  1  0.83541000  0.39247000  0.55714000  1.0 -0.6286135769
O  O30  1  0.64706000  0.32684000  0.34824000  1.0 -0.6451704752
O  O31  1  0.74704000  0.32729000  0.62263000  1.0 -1.0221408512
O  O32  1  0.64504000  0.27680000  0.56686000  1.0 -0.545158901
O  O33  1  0.82200000  0.12457000  0.65059000  1.0 -0.5368152725
O  O34  1  0.79469000  0.32336000  0.57697000  1.0 -1.1071726988
O  O35  1  0.66459000  0.22173000  0.55706000  1.0 -0.6286135769
O  O36  1  0.85294000  0.20118000  0.67978000  1.0 -0.6451704752
O  O37  1  0.29534000  0.17271000  0.91975000  1.0 -1.0221408512
O  O38  1  0.29006000  0.22320000  0.86824000  1.0 -0.545158901
O  O39  1  0.52602000  0.37543000  0.19743000  1.0 -0.5368152725
O  O40  1  0.25361000  0.17664000  0.97133000  1.0 -1.1071726988
O  O41  1  0.33533000  0.27827000  0.94286000  1.0 -0.6286135769
O  O42  1  0.47860000  0.29882000  0.15176000  1.0 -0.6451704752
O  O43  1  0.20466000  0.12441000  0.87737000  1.0 -1.0221408512
O  O44  1  0.20994000  0.07818000  0.93314000  1.0 -0.5368152725
O  O45  1  0.97398000  0.17141000  0.84941000  1.0 -0.5368152725
O  O46  1  0.24639000  0.21772000  0.92303000  1.0 -1.1071726988
O  O47  1  0.16467000  0.10753000  0.94294000  1.0 -0.6286135769
O  O48  1  0.02140000  0.17316000  0.82022000  1.0 -0.6451704752
O  O49  1  0.58025000  0.75296000  0.37559000  1.0 -1.0221408512
O  O50  1  0.63176000  0.85496000  0.42182000  1.0 -0.5368152725
O  O51  1  0.30257000  0.67800000  0.32859000  1.0 -0.5345907963
O  O52  1  0.52867000  0.70531000  0.28228000  1.0 -1.1037464536
O  O53  1  0.55714000  0.83541000  0.39247000  1.0 -0.6286135769
O  O54  1  0.34824000  0.64706000  0.32684000  1.0 -0.6443483985
O  O55  1  0.62263000  0.74704000  0.32729000  1.0 -1.0221408512
O  O56  1  0.56686000  0.64504000  0.27680000  1.0 -0.545158901
O  O57  1  0.65059000  0.82200000  0.12457000  1.0 -0.5368152725
O  O58  1  0.57697000  0.79469000  0.32336000  1.0 -1.1071726988
O  O59  1  0.55706000  0.66459000  0.22173000  1.0 -0.6286135769
O  O60  1  0.67978000  0.85294000  0.20118000  1.0 -0.6451704752
O  O61  1  0.91975000  0.29534000  0.17271000  1.0 -1.0221408512
O  O62  1  0.86824000  0.29006000  0.22320000  1.0 -0.545158901
O  O63  1  0.19743000  0.52602000  0.37543000  1.0 -0.5368152725
O  O64  1  0.97133000  0.25361000  0.17664000  1.0 -1.1071726988
O  O65  1  0.94286000  0.33533000  0.27827000  1.0 -0.6286135769
O  O66  1  0.15176000  0.47860000  0.29882000  1.0 -0.6451704752
O  O67  1  0.87737000  0.20466000  0.12441000  1.0 -1.0221408512
O  O68  1  0.93314000  0.20994000  0.07818000  1.0 -0.545158901
O  O69  1  0.84941000  0.97398000  0.17141000  1.0 -0.5368152725
O  O70  1  0.92303000  0.24639000  0.21772000  1.0 -1.1037464536
O  O71  1  0.94294000  0.16467000  0.10753000  1.0 -0.6286135769
O  O72  1  0.82022000  0.02140000  0.17316000  1.0 -0.6451704752
O  O73  1  0.87737000  0.17271000  0.75296000  1.0 -1.0221408512
O  O74  1  0.93314000  0.22320000  0.85496000  1.0 -0.545158901
O  O75  1  0.84941000  0.37543000  0.67800000  1.0 -0.5368152725
O  O76  1  0.92303000  0.17664000  0.70531000  1.0 -1.1071726988
O  O77  1  0.94294000  0.27827000  0.83541000  1.0 -0.6286135769
O  O78  1  0.82022000  0.29882000  0.64706000  1.0 -0.6451704752
O  O79  1  0.91975000  0.12441000  0.74704000  1.0 -1.0221408512
O  O80  1  0.86824000  0.07818000  0.64504000  1.0 -0.545158901
O  O81  1  0.19743000  0.17141000  0.82200000  1.0 -0.5368152725
O  O82  1  0.97133000  0.21772000  0.79469000  1.0 -1.1071726988
O  O83  1  0.94286000  0.10753000  0.66459000  1.0 -0.6286135769
O  O84  1  0.15176000  0.17316000  0.85294000  1.0 -0.6451704752
O  O85  1  0.62263000  0.37559000  0.29534000  1.0 -1.0221408512
O  O86  1  0.56686000  0.42182000  0.29006000  1.0 -0.545158901
O  O87  1  0.65059000  0.32859000  0.52602000  1.0 -0.5368152725
O  O88  1  0.57697000  0.28228000  0.25361000  1.0 -1.1071726988
O  O89  1  0.55706000  0.39247000  0.33533000  1.0 -0.6286135769
O  O90  1  0.67978000  0.32684000  0.47860000  1.0 -0.6451704752
O  O91  1  0.58025000  0.32729000  0.20466000  1.0 -1.0221408512
O  O92  1  0.63176000  0.27680000  0.20994000  1.0 -0.545158901
O  O93  1  0.30257000  0.12457000  0.97398000  1.0 -0.5368152725
O  O94  1  0.52867000  0.32336000  0.24639000  1.0 -1.1071726988
O  O95  1  0.55714000  0.22173000  0.16467000  1.0 -0.6286135769
O  O96  1  0.34824000  0.20118000  0.02140000  1.0 -0.6451704752
O  O97  1  0.32729000  0.20466000  0.58025000  1.0 -1.0221408512
O  O98  1  0.27680000  0.20994000  0.63176000  1.0 -0.545158901
O  O99  1  0.12457000  0.97398000  0.30257000  1.0 -0.5368152725
O  O100  1  0.32336000  0.24639000  0.52867000  1.0 -1.1071726988
O  O101  1  0.22173000  0.16467000  0.55714000  1.0 -0.6286135769
O  O102  1  0.20118000  0.02140000  0.34824000  1.0 -0.6443483985
O  O103  1  0.37559000  0.29534000  0.62263000  1.0 -1.0221408512
O  O104  1  0.42182000  0.29006000  0.56686000  1.0 -0.545158901
O  O105  1  0.32859000  0.52602000  0.65059000  1.0 -0.5368152725
O  O106  1  0.28228000  0.25361000  0.57697000  1.0 -1.1071726988
O  O107  1  0.39247000  0.33533000  0.55706000  1.0 -0.6286135769
O  O108  1  0.32684000  0.47860000  0.67978000  1.0 -0.6443483985
O  O109  1  0.12441000  0.74704000  0.91975000  1.0 -1.0221408512
O  O110  1  0.07818000  0.64504000  0.86824000  1.0 -0.5368152725
O  O111  1  0.17141000  0.82200000  0.19743000  1.0 -0.5368152725
O  O112  1  0.21772000  0.79469000  0.97133000  1.0 -1.1071726988
O  O113  1  0.10753000  0.66459000  0.94286000  1.0 -0.6286135769
O  O114  1  0.17316000  0.85294000  0.15176000  1.0 -0.6451704752
O  O115  1  0.17271000  0.75296000  0.87737000  1.0 -1.0221408512
O  O116  1  0.22320000  0.85496000  0.93314000  1.0 -0.545158901
O  O117  1  0.37543000  0.67800000  0.84941000  1.0 -0.5368152725
O  O118  1  0.17664000  0.70531000  0.92303000  1.0 -1.1071726988
O  O119  1  0.27827000  0.83541000  0.94294000  1.0 -0.6286135769
O  O120  1  0.29882000  0.64706000  0.82022000  1.0 -0.6451704752
O  O121  1  0.29534000  0.62263000  0.37559000  1.0 -1.0221408512
O  O122  1  0.29006000  0.56686000  0.42182000  1.0 -0.545158901
O  O123  1  0.52602000  0.65059000  0.32859000  1.0 -0.5368152725
O  O124  1  0.25361000  0.57697000  0.28228000  1.0 -1.1071726988
O  O125  1  0.33533000  0.55706000  0.39247000  1.0 -0.6286135769
O  O126  1  0.47860000  0.67978000  0.32684000  1.0 -0.6451704752
O  O127  1  0.20466000  0.58025000  0.32729000  1.0 -1.0221408512
O  O128  1  0.20994000  0.63176000  0.27680000  1.0 -0.545158901
O  O129  1  0.97398000  0.30257000  0.12457000  1.0 -0.5345907963
O  O130  1  0.24639000  0.52867000  0.32336000  1.0 -1.1037464536
O  O131  1  0.16467000  0.55714000  0.22173000  1.0 -0.6286135769
O  O132  1  0.02140000  0.34824000  0.20118000  1.0 -0.6443483985
O  O133  1  0.75296000  0.87737000  0.17271000  1.0 -1.0221408512
O  O134  1  0.85496000  0.93314000  0.22320000  1.0 -0.545158901
O  O135  1  0.67800000  0.84941000  0.37543000  1.0 -0.5368152725
O  O136  1  0.70531000  0.92303000  0.17664000  1.0 -1.1071726988
O  O137  1  0.83541000  0.94294000  0.27827000  1.0 -0.6286135769
O  O138  1  0.64706000  0.82022000  0.29882000  1.0 -0.6451704752
O  O139  1  0.74704000  0.91975000  0.12441000  1.0 -1.0221408512
O  O140  1  0.64504000  0.86824000  0.07818000  1.0 -0.545158901
O  O141  1  0.82200000  0.19743000  0.17141000  1.0 -0.5368152725
O  O142  1  0.79469000  0.97133000  0.21772000  1.0 -1.1071726988
O  O143  1  0.66459000  0.94286000  0.10753000  1.0 -0.6286135769
O  O144  1  0.85294000  0.15176000  0.17316000  1.0 -0.6451704752
O  O145  1  0.62441000  0.41975000  0.24704000  1.0 -1.0221408512
O  O146  1  0.57818000  0.36824000  0.14504000  1.0 -0.545158901
O  O147  1  0.67141000  0.69743000  0.32200000  1.0 -0.5368152725
O  O148  1  0.71772000  0.47133000  0.29469000  1.0 -1.1071726988
O  O149  1  0.60753000  0.44286000  0.16459000  1.0 -0.6286135769
O  O150  1  0.67316000  0.65176000  0.35294000  1.0 -0.6451704752
O  O151  1  0.67271000  0.37737000  0.25296000  1.0 -1.0221408512
O  O152  1  0.72320000  0.43314000  0.35496000  1.0 -0.545158901
O  O153  1  0.87543000  0.34941000  0.17800000  1.0 -0.5368152725
O  O154  1  0.67664000  0.42303000  0.20531000  1.0 -1.1071726988
O  O155  1  0.77827000  0.44294000  0.33541000  1.0 -0.6286135769
O  O156  1  0.79882000  0.32022000  0.14706000  1.0 -0.6451704752
O  O157  1  0.82729000  0.08025000  0.70466000  1.0 -1.0221408512
O  O158  1  0.77680000  0.13176000  0.70994000  1.0 -0.545158901
O  O159  1  0.62457000  0.80257000  0.47398000  1.0 -0.5368152725
O  O160  1  0.82336000  0.02867000  0.74639000  1.0 -1.1071726988
O  O161  1  0.72173000  0.05714000  0.66467000  1.0 -0.6286135769
O  O162  1  0.70118000  0.84824000  0.52140000  1.0 -0.6443483985
O  O163  1  0.87559000  0.12263000  0.79534000  1.0 -1.0221408512
O  O164  1  0.92182000  0.06686000  0.79006000  1.0 -0.545158901
O  O165  1  0.82859000  0.15059000  0.02602000  1.0 -0.5368152725
O  O166  1  0.78228000  0.07697000  0.75361000  1.0 -1.1071726988
O  O167  1  0.89247000  0.05706000  0.83533000  1.0 -0.6286135769
O  O168  1  0.82684000  0.17978000  0.97860000  1.0 -0.6451704752
O  O169  1  0.24704000  0.62441000  0.41975000  1.0 -1.0221408512
O  O170  1  0.14504000  0.57818000  0.36824000  1.0 -0.545158901
O  O171  1  0.32200000  0.67141000  0.69743000  1.0 -0.5368152725
O  O172  1  0.29469000  0.71772000  0.47133000  1.0 -1.1071726988
O  O173  1  0.16459000  0.60753000  0.44286000  1.0 -0.6286135769
O  O174  1  0.35294000  0.67316000  0.65176000  1.0 -0.6443483985
O  O175  1  0.25296000  0.67271000  0.37737000  1.0 -1.0221408512
O  O176  1  0.35496000  0.72320000  0.43314000  1.0 -0.545158901
O  O177  1  0.17800000  0.87543000  0.34941000  1.0 -0.5368152725
O  O178  1  0.20531000  0.67664000  0.42303000  1.0 -1.1071726988
O  O179  1  0.33541000  0.77827000  0.44294000  1.0 -0.6286135769
O  O180  1  0.14706000  0.79882000  0.32022000  1.0 -0.6451704752
O  O181  1  0.70466000  0.82729000  0.08025000  1.0 -1.0221408512
O  O182  1  0.70994000  0.77680000  0.13176000  1.0 -0.545158901
O  O183  1  0.47398000  0.62457000  0.80257000  1.0 -0.5368152725
O  O184  1  0.74639000  0.82336000  0.02867000  1.0 -1.1071726988
O  O185  1  0.66467000  0.72173000  0.05714000  1.0 -0.6286135769
O  O186  1  0.52140000  0.70118000  0.84824000  1.0 -0.6451704752
O  O187  1  0.79534000  0.87559000  0.12263000  1.0 -1.0221408512
O  O188  1  0.79006000  0.92182000  0.06686000  1.0 -0.545158901
O  O189  1  0.02602000  0.82859000  0.15059000  1.0 -0.5368152725
O  O190  1  0.75361000  0.78228000  0.07697000  1.0 -1.1071726988
O  O191  1  0.83533000  0.89247000  0.05706000  1.0 -0.6286135769
O  O192  1  0.97860000  0.82684000  0.17978000  1.0 -0.6451704752
O  O193  1  0.41975000  0.24704000  0.62441000  1.0 -1.0221408512
O  O194  1  0.36824000  0.14504000  0.57818000  1.0 -0.545158901
O  O195  1  0.69743000  0.32200000  0.67141000  1.0 -0.5368152725
O  O196  1  0.47133000  0.29469000  0.71772000  1.0 -1.1071726988
O  O197  1  0.44286000  0.16459000  0.60753000  1.0 -0.6286135769
O  O198  1  0.65176000  0.35294000  0.67316000  1.0 -0.6451704752
O  O199  1  0.37737000  0.25296000  0.67271000  1.0 -1.0221408512
O  O200  1  0.43314000  0.35496000  0.72320000  1.0 -0.545158901
O  O201  1  0.34941000  0.17800000  0.87543000  1.0 -0.5368152725
O  O202  1  0.42303000  0.20531000  0.67664000  1.0 -1.1071726988
O  O203  1  0.44294000  0.33541000  0.77827000  1.0 -0.6286135769
O  O204  1  0.32022000  0.14706000  0.79882000  1.0 -0.6451704752
O  O205  1  0.08025000  0.70466000  0.82729000  1.0 -1.0221408512
O  O206  1  0.13176000  0.70994000  0.77680000  1.0 -0.545158901
O  O207  1  0.80257000  0.47398000  0.62457000  1.0 -0.5368152725
O  O208  1  0.02867000  0.74639000  0.82336000  1.0 -1.1071726988
O  O209  1  0.05714000  0.66467000  0.72173000  1.0 -0.6286135769
O  O210  1  0.84824000  0.52140000  0.70118000  1.0 -0.6451704752
O  O211  1  0.12263000  0.79534000  0.87559000  1.0 -1.0221408512
O  O212  1  0.06686000  0.79006000  0.92182000  1.0 -0.5368152725
O  O213  1  0.15059000  0.02602000  0.82859000  1.0 -0.5368152725
O  O214  1  0.07697000  0.75361000  0.78228000  1.0 -1.1071726988
O  O215  1  0.05706000  0.83533000  0.89247000  1.0 -0.6286135769
O  O216  1  0.17978000  0.97860000  0.82684000  1.0 -0.6451704752
O  O217  1  0.12263000  0.82729000  0.24704000  1.0 -1.0221408512
O  O218  1  0.06686000  0.77680000  0.14504000  1.0 -0.545158901
O  O219  1  0.15059000  0.62457000  0.32200000  1.0 -0.5368152725
O  O220  1  0.07697000  0.82336000  0.29469000  1.0 -1.1071726988
O  O221  1  0.05706000  0.72173000  0.16459000  1.0 -0.6286135769
O  O222  1  0.17978000  0.70118000  0.35294000  1.0 -0.6451704752
O  O223  1  0.08025000  0.87559000  0.25296000  1.0 -1.0221408512
O  O224  1  0.13176000  0.92182000  0.35496000  1.0 -0.545158901
O  O225  1  0.80257000  0.82859000  0.17800000  1.0 -0.5368152725
O  O226  1  0.02867000  0.78228000  0.20531000  1.0 -1.1037464536
O  O227  1  0.05714000  0.89247000  0.33541000  1.0 -0.6286135769
O  O228  1  0.84824000  0.82684000  0.14706000  1.0 -0.6443483985
O  O229  1  0.37737000  0.62441000  0.70466000  1.0 -1.0221408512
O  O230  1  0.43314000  0.57818000  0.70994000  1.0 -0.545158901
O  O231  1  0.34941000  0.67141000  0.47398000  1.0 -0.5368152725
O  O232  1  0.42303000  0.71772000  0.74639000  1.0 -1.1071726988
O  O233  1  0.44294000  0.60753000  0.66467000  1.0 -0.6286135769
O  O234  1  0.32022000  0.67316000  0.52140000  1.0 -0.6451704752
O  O235  1  0.41975000  0.67271000  0.79534000  1.0 -1.0221408512
O  O236  1  0.36824000  0.72320000  0.79006000  1.0 -0.545158901
O  O237  1  0.69743000  0.87543000  0.02602000  1.0 -0.5368152725
O  O238  1  0.47133000  0.67664000  0.75361000  1.0 -1.1071726988
O  O239  1  0.44286000  0.77827000  0.83533000  1.0 -0.6286135769
O  O240  1  0.65176000  0.79882000  0.97860000  1.0 -0.6451704752
O  O241  1  0.67271000  0.79534000  0.41975000  1.0 -1.0221408512
O  O242  1  0.72320000  0.79006000  0.36824000  1.0 -0.545158901
O  O243  1  0.87543000  0.02602000  0.69743000  1.0 -0.5368152725
O  O244  1  0.67664000  0.75361000  0.47133000  1.0 -1.1071726988
O  O245  1  0.77827000  0.83533000  0.44286000  1.0 -0.6286135769
O  O246  1  0.79882000  0.97860000  0.65176000  1.0 -0.6443483985
O  O247  1  0.62441000  0.70466000  0.37737000  1.0 -1.0221408512
O  O248  1  0.57818000  0.70994000  0.43314000  1.0 -0.5368152725
O  O249  1  0.67141000  0.47398000  0.34941000  1.0 -0.5368152725
O  O250  1  0.71772000  0.74639000  0.42303000  1.0 -1.1037464536
O  O251  1  0.60753000  0.66467000  0.44294000  1.0 -0.6286135769
O  O252  1  0.67316000  0.52140000  0.32022000  1.0 -0.6451704752
O  O253  1  0.87559000  0.25296000  0.08025000  1.0 -1.0221408512
O  O254  1  0.92182000  0.35496000  0.13176000  1.0 -0.545158901
O  O255  1  0.82859000  0.17800000  0.80257000  1.0 -0.5368152725
O  O256  1  0.78228000  0.20531000  0.02867000  1.0 -1.1071726988
O  O257  1  0.89247000  0.33541000  0.05714000  1.0 -0.6286135769
O  O258  1  0.82684000  0.14706000  0.84824000  1.0 -0.6451704752
O  O259  1  0.82729000  0.24704000  0.12263000  1.0 -1.0221408512
O  O260  1  0.77680000  0.14504000  0.06686000  1.0 -0.545158901
O  O261  1  0.62457000  0.32200000  0.15059000  1.0 -0.5368152725
O  O262  1  0.82336000  0.29469000  0.07697000  1.0 -1.1071726988
O  O263  1  0.72173000  0.16459000  0.05706000  1.0 -0.6286135769
O  O264  1  0.70118000  0.35294000  0.17978000  1.0 -0.6451704752
O  O265  1  0.70466000  0.37737000  0.62441000  1.0 -1.0221408512
O  O266  1  0.70994000  0.43314000  0.57818000  1.0 -0.545158901
O  O267  1  0.47398000  0.34941000  0.67141000  1.0 -0.5368152725
O  O268  1  0.74639000  0.42303000  0.71772000  1.0 -1.1071726988
O  O269  1  0.66467000  0.44294000  0.60753000  1.0 -0.6286135769
O  O270  1  0.52140000  0.32022000  0.67316000  1.0 -0.6451704752
O  O271  1  0.79534000  0.41975000  0.67271000  1.0 -1.0221408512
O  O272  1  0.79006000  0.36824000  0.72320000  1.0 -0.545158901
O  O273  1  0.02602000  0.69743000  0.87543000  1.0 -0.5368152725
O  O274  1  0.75361000  0.47133000  0.67664000  1.0 -1.1071726988
O  O275  1  0.83533000  0.44286000  0.77827000  1.0 -0.6286135769
O  O276  1  0.97860000  0.65176000  0.79882000  1.0 -0.6451704752
O  O277  1  0.24704000  0.12263000  0.82729000  1.0 -1.0221408512
O  O278  1  0.14504000  0.06686000  0.77680000  1.0 -0.5368152725
O  O279  1  0.32200000  0.15059000  0.62457000  1.0 -0.5368152725
O  O280  1  0.29469000  0.07697000  0.82336000  1.0 -1.1071726988
O  O281  1  0.16459000  0.05706000  0.72173000  1.0 -0.6286135769
O  O282  1  0.35294000  0.17978000  0.70118000  1.0 -0.6451704752
O  O283  1  0.25296000  0.08025000  0.87559000  1.0 -1.0221408512
O  O284  1  0.35496000  0.13176000  0.92182000  1.0 -0.545158901
O  O285  1  0.17800000  0.80257000  0.82859000  1.0 -0.5368152725
O  O286  1  0.20531000  0.02867000  0.78228000  1.0 -1.1071726988
O  O287  1  0.33541000  0.05714000  0.89247000  1.0 -0.6286135769
O  O288  1  0.14706000  0.84824000  0.82684000  1.0 -0.6443483985
