# DDEC6 charges by PACMAN v1.1 (https://github.com/mtap-research/PACMAN-charge/)
data_QUGZEZ_ASR_pacman
_symmetry_space_group_name_H-M   'P 1'
_cell_length_a   17.10650000
_cell_length_b   17.10650000
_cell_length_c   17.10650000
_cell_angle_alpha   90.00000000
_cell_angle_beta   90.00000000
_cell_angle_gamma   90.00000000
_symmetry_Int_Tables_number   1
_chemical_formula_structural   Gd3Mn2C16(N12O)4
_chemical_formula_sum   'Gd12 Mn8 C64 N192 O16'
_cell_volume   5005.91516270
_cell_formula_units_Z   4
loop_
 _symmetry_equiv_pos_site_id
 _symmetry_equiv_pos_as_xyz
  1  'x, y, z'
loop_
 _atom_site_type_symbol
 _atom_site_label
 _atom_site_symmetry_multiplicity
 _atom_site_fract_x
 _atom_site_fract_y
 _atom_site_fract_z
 _atom_site_occupancy
 _atom_site_charge
Gd  Gd1  1  0.84161000  0.00000000  0.00000000  1.0 1.7054956661
Gd  Gd2  1  0.00000000  0.84161000  0.00000000  1.0 1.7054956661
Gd  Gd3  1  0.15839000  0.00000000  0.00000000  1.0 1.7044678436
Gd  Gd4  1  0.00000000  0.15839000  0.00000000  1.0 1.7044678436
Gd  Gd5  1  0.00000000  0.00000000  0.15839000  1.0 1.7044678436
Gd  Gd6  1  0.00000000  0.00000000  0.84161000  1.0 1.7044678436
Gd  Gd7  1  0.65839000  0.50000000  0.50000000  1.0 1.7054956661
Gd  Gd8  1  0.50000000  0.65839000  0.50000000  1.0 1.7054956661
Gd  Gd9  1  0.34161000  0.50000000  0.50000000  1.0 1.7054956661
Gd  Gd10  1  0.50000000  0.34161000  0.50000000  1.0 1.7044678436
Gd  Gd11  1  0.50000000  0.50000000  0.34161000  1.0 1.7054956661
Gd  Gd12  1  0.50000000  0.50000000  0.65839000  1.0 1.7054956661
Mn  Mn1  1  0.75000000  0.25000000  0.75000000  1.0 0.6848980294
Mn  Mn2  1  0.75000000  0.75000000  0.75000000  1.0 0.6848980294
Mn  Mn3  1  0.25000000  0.75000000  0.75000000  1.0 0.6848980294
Mn  Mn4  1  0.25000000  0.25000000  0.75000000  1.0 0.6848980294
Mn  Mn5  1  0.75000000  0.25000000  0.25000000  1.0 0.6848980294
Mn  Mn6  1  0.75000000  0.75000000  0.25000000  1.0 0.6848980294
Mn  Mn7  1  0.25000000  0.25000000  0.25000000  1.0 0.6848980294
Mn  Mn8  1  0.25000000  0.75000000  0.25000000  1.0 0.6848980294
C  C1  1  0.86060000  0.13940000  0.86060000  1.0 0.1691769095
C  C2  1  0.86060000  0.86060000  0.86060000  1.0 0.1691769095
C  C3  1  0.13940000  0.86060000  0.86060000  1.0 0.1691769095
C  C4  1  0.13940000  0.13940000  0.86060000  1.0 0.1691769095
C  C5  1  0.86060000  0.13940000  0.13940000  1.0 0.1691769095
C  C6  1  0.86060000  0.86060000  0.13940000  1.0 0.1691769095
C  C7  1  0.13940000  0.13940000  0.13940000  1.0 0.1691769095
C  C8  1  0.13940000  0.86060000  0.13940000  1.0 0.1691769095
C  C9  1  0.63940000  0.36060000  0.63940000  1.0 0.1691769095
C  C10  1  0.63940000  0.63940000  0.63940000  1.0 0.1691769095
C  C11  1  0.36060000  0.63940000  0.63940000  1.0 0.1691769095
C  C12  1  0.36060000  0.36060000  0.63940000  1.0 0.1691769095
C  C13  1  0.63940000  0.36060000  0.36060000  1.0 0.1691769095
C  C14  1  0.63940000  0.63940000  0.36060000  1.0 0.1691769095
C  C15  1  0.36060000  0.36060000  0.36060000  1.0 0.1691769095
C  C16  1  0.36060000  0.63940000  0.36060000  1.0 0.1691769095
C  C17  1  0.78280000  0.15340000  0.89950000  1.0 0.2329599749
C  C18  1  0.84660000  0.78280000  0.89950000  1.0 0.2329599749
C  C19  1  0.21720000  0.84660000  0.89950000  1.0 0.2329599749
C  C20  1  0.15340000  0.21720000  0.89950000  1.0 0.2329599749
C  C21  1  0.78280000  0.10050000  0.15340000  1.0 0.2329599749
C  C22  1  0.78280000  0.84660000  0.10050000  1.0 0.2329599749
C  C23  1  0.78280000  0.89950000  0.84660000  1.0 0.2329599749
C  C24  1  0.89950000  0.15340000  0.21720000  1.0 0.2329599749
C  C25  1  0.21720000  0.15340000  0.10050000  1.0 0.2329599749
C  C26  1  0.10050000  0.15340000  0.78280000  1.0 0.2329599749
C  C27  1  0.89950000  0.78280000  0.15340000  1.0 0.2329599749
C  C28  1  0.15340000  0.89950000  0.78280000  1.0 0.2329599749
C  C29  1  0.84660000  0.10050000  0.78280000  1.0 0.2329599749
C  C30  1  0.89950000  0.21720000  0.84660000  1.0 0.2329599749
C  C31  1  0.84660000  0.89950000  0.21720000  1.0 0.2329599749
C  C32  1  0.10050000  0.21720000  0.15340000  1.0 0.2329599749
C  C33  1  0.10050000  0.78280000  0.84660000  1.0 0.2329599749
C  C34  1  0.15340000  0.10050000  0.21720000  1.0 0.2329599749
C  C35  1  0.15340000  0.78280000  0.10050000  1.0 0.2329599749
C  C36  1  0.84660000  0.21720000  0.10050000  1.0 0.2329599749
C  C37  1  0.21720000  0.89950000  0.15340000  1.0 0.2329599749
C  C38  1  0.21720000  0.10050000  0.84660000  1.0 0.2329599749
C  C39  1  0.89950000  0.84660000  0.78280000  1.0 0.2329599749
C  C40  1  0.10050000  0.84660000  0.21720000  1.0 0.2329599749
C  C41  1  0.71720000  0.34660000  0.60050000  1.0 0.2329599749
C  C42  1  0.65340000  0.71720000  0.60050000  1.0 0.2329599749
C  C43  1  0.28280000  0.65340000  0.60050000  1.0 0.2329599749
C  C44  1  0.34660000  0.28280000  0.60050000  1.0 0.2329599749
C  C45  1  0.71720000  0.39950000  0.34660000  1.0 0.2329599749
C  C46  1  0.71720000  0.65340000  0.39950000  1.0 0.2329599749
C  C47  1  0.71720000  0.60050000  0.65340000  1.0 0.2329599749
C  C48  1  0.60050000  0.34660000  0.28280000  1.0 0.2329599749
C  C49  1  0.28280000  0.34660000  0.39950000  1.0 0.2329599749
C  C50  1  0.39950000  0.34660000  0.71720000  1.0 0.2329599749
C  C51  1  0.60050000  0.71720000  0.34660000  1.0 0.2329599749
C  C52  1  0.34660000  0.60050000  0.71720000  1.0 0.2329599749
C  C53  1  0.65340000  0.39950000  0.71720000  1.0 0.2329599749
C  C54  1  0.60050000  0.28280000  0.65340000  1.0 0.2329599749
C  C55  1  0.65340000  0.60050000  0.28280000  1.0 0.2329599749
C  C56  1  0.39950000  0.28280000  0.34660000  1.0 0.2329599749
C  C57  1  0.39950000  0.71720000  0.65340000  1.0 0.2329599749
C  C58  1  0.34660000  0.39950000  0.28280000  1.0 0.2329599749
C  C59  1  0.34660000  0.71720000  0.39950000  1.0 0.2329599749
C  C60  1  0.65340000  0.28280000  0.39950000  1.0 0.2329599749
C  C61  1  0.28280000  0.60050000  0.34660000  1.0 0.2329599749
C  C62  1  0.28280000  0.39950000  0.65340000  1.0 0.2329599749
C  C63  1  0.60050000  0.65340000  0.71720000  1.0 0.2329599749
C  C64  1  0.39950000  0.65340000  0.28280000  1.0 0.2329599749
N  N1  1  0.68800000  0.14560000  0.97940000  1.0 -0.0209741346
N  N2  1  0.85440000  0.68800000  0.97940000  1.0 -0.0209741346
N  N3  1  0.31200000  0.85440000  0.97940000  1.0 -0.0209741346
N  N4  1  0.14560000  0.31200000  0.97940000  1.0 -0.0209741346
N  N5  1  0.68800000  0.02060000  0.14560000  1.0 -0.0209741346
N  N6  1  0.68800000  0.85440000  0.02060000  1.0 -0.0209741346
N  N7  1  0.68800000  0.97940000  0.85440000  1.0 -0.0209741346
N  N8  1  0.97940000  0.14560000  0.31200000  1.0 -0.0209741346
N  N9  1  0.31200000  0.14560000  0.02060000  1.0 -0.0209741346
N  N10  1  0.02060000  0.14560000  0.68800000  1.0 -0.0209741346
N  N11  1  0.97940000  0.68800000  0.14560000  1.0 -0.0209741346
N  N12  1  0.14560000  0.97940000  0.68800000  1.0 -0.0209741346
N  N13  1  0.85440000  0.02060000  0.68800000  1.0 -0.0209741346
N  N14  1  0.97940000  0.31200000  0.85440000  1.0 -0.0209741346
N  N15  1  0.85440000  0.97940000  0.31200000  1.0 -0.0209741346
N  N16  1  0.02060000  0.31200000  0.14560000  1.0 -0.0209741346
N  N17  1  0.02060000  0.68800000  0.85440000  1.0 -0.0209741346
N  N18  1  0.14560000  0.02060000  0.31200000  1.0 -0.0209741346
N  N19  1  0.14560000  0.68800000  0.02060000  1.0 -0.0209741346
N  N20  1  0.85440000  0.31200000  0.02060000  1.0 -0.0209741346
N  N21  1  0.31200000  0.97940000  0.14560000  1.0 -0.0209741346
N  N22  1  0.31200000  0.02060000  0.85440000  1.0 -0.0209741346
N  N23  1  0.97940000  0.85440000  0.68800000  1.0 -0.0209741346
N  N24  1  0.02060000  0.85440000  0.31200000  1.0 -0.0209741346
N  N25  1  0.81200000  0.35440000  0.52060000  1.0 -0.0209741346
N  N26  1  0.64560000  0.81200000  0.52060000  1.0 -0.0209741346
N  N27  1  0.18800000  0.64560000  0.52060000  1.0 -0.0209741346
N  N28  1  0.35440000  0.18800000  0.52060000  1.0 -0.0209741346
N  N29  1  0.81200000  0.47940000  0.35440000  1.0 -0.0209741346
N  N30  1  0.81200000  0.64560000  0.47940000  1.0 -0.0209741346
N  N31  1  0.81200000  0.52060000  0.64560000  1.0 -0.0209741346
N  N32  1  0.52060000  0.35440000  0.18800000  1.0 -0.0209741346
N  N33  1  0.18800000  0.35440000  0.47940000  1.0 -0.0209741346
N  N34  1  0.47940000  0.35440000  0.81200000  1.0 -0.0209741346
N  N35  1  0.52060000  0.81200000  0.35440000  1.0 -0.0209741346
N  N36  1  0.35440000  0.52060000  0.81200000  1.0 -0.0209741346
N  N37  1  0.64560000  0.47940000  0.81200000  1.0 -0.0209741346
N  N38  1  0.52060000  0.18800000  0.64560000  1.0 -0.0209741346
N  N39  1  0.64560000  0.52060000  0.18800000  1.0 -0.0209741346
N  N40  1  0.47940000  0.18800000  0.35440000  1.0 -0.0209741346
N  N41  1  0.47940000  0.81200000  0.64560000  1.0 -0.0209741346
N  N42  1  0.35440000  0.47940000  0.18800000  1.0 -0.0209741346
N  N43  1  0.35440000  0.81200000  0.47940000  1.0 -0.0209741346
N  N44  1  0.64560000  0.18800000  0.47940000  1.0 -0.0209741346
N  N45  1  0.18800000  0.52060000  0.35440000  1.0 -0.0209741346
N  N46  1  0.18800000  0.47940000  0.64560000  1.0 -0.0209741346
N  N47  1  0.52060000  0.64560000  0.81200000  1.0 -0.0209741346
N  N48  1  0.47940000  0.64560000  0.18800000  1.0 -0.0209741346
N  N49  1  0.67070000  0.19610000  0.92380000  1.0 -0.0139411494
N  N50  1  0.80390000  0.67070000  0.92380000  1.0 -0.0139411494
N  N51  1  0.32930000  0.80390000  0.92380000  1.0 -0.0139411494
N  N52  1  0.19610000  0.32930000  0.92380000  1.0 -0.0139411494
N  N53  1  0.67070000  0.07620000  0.19610000  1.0 -0.0139411494
N  N54  1  0.67070000  0.80390000  0.07620000  1.0 -0.0139411494
N  N55  1  0.67070000  0.92380000  0.80390000  1.0 -0.0139411494
N  N56  1  0.92380000  0.19610000  0.32930000  1.0 -0.0139411494
N  N57  1  0.32930000  0.19610000  0.07620000  1.0 -0.0139411494
N  N58  1  0.07620000  0.19610000  0.67070000  1.0 -0.0139411494
N  N59  1  0.92380000  0.67070000  0.19610000  1.0 -0.0139411494
N  N60  1  0.19610000  0.92380000  0.67070000  1.0 -0.0139411494
N  N61  1  0.80390000  0.07620000  0.67070000  1.0 -0.0139411494
N  N62  1  0.92380000  0.32930000  0.80390000  1.0 -0.0139411494
N  N63  1  0.80390000  0.92380000  0.32930000  1.0 -0.0139411494
N  N64  1  0.07620000  0.32930000  0.19610000  1.0 -0.0139411494
N  N65  1  0.07620000  0.67070000  0.80390000  1.0 -0.0139411494
N  N66  1  0.19610000  0.07620000  0.32930000  1.0 -0.0139411494
N  N67  1  0.19610000  0.67070000  0.07620000  1.0 -0.0139411494
N  N68  1  0.80390000  0.32930000  0.07620000  1.0 -0.0139411494
N  N69  1  0.32930000  0.92380000  0.19610000  1.0 -0.0139411494
N  N70  1  0.32930000  0.07620000  0.80390000  1.0 -0.0139411494
N  N71  1  0.92380000  0.80390000  0.67070000  1.0 -0.0139411494
N  N72  1  0.07620000  0.80390000  0.32930000  1.0 -0.0139411494
N  N73  1  0.82930000  0.30390000  0.57620000  1.0 -0.0139411494
N  N74  1  0.69610000  0.82930000  0.57620000  1.0 -0.0139411494
N  N75  1  0.17070000  0.69610000  0.57620000  1.0 -0.0139411494
N  N76  1  0.30390000  0.17070000  0.57620000  1.0 -0.0139411494
N  N77  1  0.82930000  0.42380000  0.30390000  1.0 -0.0139411494
N  N78  1  0.82930000  0.69610000  0.42380000  1.0 -0.0139411494
N  N79  1  0.82930000  0.57620000  0.69610000  1.0 -0.0139411494
N  N80  1  0.57620000  0.30390000  0.17070000  1.0 -0.0139411494
N  N81  1  0.17070000  0.30390000  0.42380000  1.0 -0.0139411494
N  N82  1  0.42380000  0.30390000  0.82930000  1.0 -0.0139411494
N  N83  1  0.57620000  0.82930000  0.30390000  1.0 -0.0139411494
N  N84  1  0.30390000  0.57620000  0.82930000  1.0 -0.0139411494
N  N85  1  0.69610000  0.42380000  0.82930000  1.0 -0.0139411494
N  N86  1  0.57620000  0.17070000  0.69610000  1.0 -0.0139411494
N  N87  1  0.69610000  0.57620000  0.17070000  1.0 -0.0139411494
N  N88  1  0.42380000  0.17070000  0.30390000  1.0 -0.0139411494
N  N89  1  0.42380000  0.82930000  0.69610000  1.0 -0.0139411494
N  N90  1  0.30390000  0.42380000  0.17070000  1.0 -0.0139411494
N  N91  1  0.30390000  0.82930000  0.42380000  1.0 -0.0139411494
N  N92  1  0.69610000  0.17070000  0.42380000  1.0 -0.0139411494
N  N93  1  0.17070000  0.57620000  0.30390000  1.0 -0.0139411494
N  N94  1  0.17070000  0.42380000  0.69610000  1.0 -0.0139411494
N  N95  1  0.57620000  0.69610000  0.82930000  1.0 -0.0139411494
N  N96  1  0.42380000  0.69610000  0.17070000  1.0 -0.0139411494
N  N97  1  0.76080000  0.11700000  0.96460000  1.0 -0.3420028252
N  N98  1  0.88300000  0.76080000  0.96460000  1.0 -0.3420028252
N  N99  1  0.23920000  0.88300000  0.96460000  1.0 -0.3420028252
N  N100  1  0.11700000  0.23920000  0.96460000  1.0 -0.3420028252
N  N101  1  0.76080000  0.03540000  0.11700000  1.0 -0.3420028252
N  N102  1  0.76080000  0.88300000  0.03540000  1.0 -0.3420028252
N  N103  1  0.76080000  0.96460000  0.88300000  1.0 -0.3420028252
N  N104  1  0.96460000  0.11700000  0.23920000  1.0 -0.3420028252
N  N105  1  0.23920000  0.11700000  0.03540000  1.0 -0.3420028252
N  N106  1  0.03540000  0.11700000  0.76080000  1.0 -0.3420028252
N  N107  1  0.96460000  0.76080000  0.11700000  1.0 -0.3420028252
N  N108  1  0.11700000  0.96460000  0.76080000  1.0 -0.3420028252
N  N109  1  0.88300000  0.03540000  0.76080000  1.0 -0.3420028252
N  N110  1  0.96460000  0.23920000  0.88300000  1.0 -0.3420028252
N  N111  1  0.88300000  0.96460000  0.23920000  1.0 -0.3420028252
N  N112  1  0.03540000  0.23920000  0.11700000  1.0 -0.3420028252
N  N113  1  0.03540000  0.76080000  0.88300000  1.0 -0.3420028252
N  N114  1  0.11700000  0.03540000  0.23920000  1.0 -0.3420028252
N  N115  1  0.11700000  0.76080000  0.03540000  1.0 -0.3420028252
N  N116  1  0.88300000  0.23920000  0.03540000  1.0 -0.3420028252
N  N117  1  0.23920000  0.96460000  0.11700000  1.0 -0.3420028252
N  N118  1  0.23920000  0.03540000  0.88300000  1.0 -0.3420028252
N  N119  1  0.96460000  0.88300000  0.76080000  1.0 -0.3420028252
N  N120  1  0.03540000  0.88300000  0.23920000  1.0 -0.3420028252
N  N121  1  0.73920000  0.38300000  0.53540000  1.0 -0.3420028252
N  N122  1  0.61700000  0.73920000  0.53540000  1.0 -0.3420028252
N  N123  1  0.26080000  0.61700000  0.53540000  1.0 -0.3420028252
N  N124  1  0.38300000  0.26080000  0.53540000  1.0 -0.3420028252
N  N125  1  0.73920000  0.46460000  0.38300000  1.0 -0.3420028252
N  N126  1  0.73920000  0.61700000  0.46460000  1.0 -0.3420028252
N  N127  1  0.73920000  0.53540000  0.61700000  1.0 -0.3420028252
N  N128  1  0.53540000  0.38300000  0.26080000  1.0 -0.3420028252
N  N129  1  0.26080000  0.38300000  0.46460000  1.0 -0.3420028252
N  N130  1  0.46460000  0.38300000  0.73920000  1.0 -0.3420028252
N  N131  1  0.53540000  0.73920000  0.38300000  1.0 -0.3420028252
N  N132  1  0.38300000  0.53540000  0.73920000  1.0 -0.3420028252
N  N133  1  0.61700000  0.46460000  0.73920000  1.0 -0.3420028252
N  N134  1  0.53540000  0.26080000  0.61700000  1.0 -0.3420028252
N  N135  1  0.61700000  0.53540000  0.26080000  1.0 -0.3420028252
N  N136  1  0.46460000  0.26080000  0.38300000  1.0 -0.3420028252
N  N137  1  0.46460000  0.73920000  0.61700000  1.0 -0.3420028252
N  N138  1  0.38300000  0.46460000  0.26080000  1.0 -0.3420028252
N  N139  1  0.38300000  0.73920000  0.46460000  1.0 -0.3420028252
N  N140  1  0.61700000  0.26080000  0.46460000  1.0 -0.3420028252
N  N141  1  0.26080000  0.53540000  0.38300000  1.0 -0.3420028252
N  N142  1  0.26080000  0.46460000  0.61700000  1.0 -0.3420028252
N  N143  1  0.53540000  0.61700000  0.73920000  1.0 -0.3420028252
N  N144  1  0.46460000  0.61700000  0.26080000  1.0 -0.3420028252
N  N145  1  0.72910000  0.20040000  0.87110000  1.0 -0.2017814914
N  N146  1  0.79960000  0.72910000  0.87110000  1.0 -0.2017814914
N  N147  1  0.27090000  0.79960000  0.87110000  1.0 -0.2017814914
N  N148  1  0.20040000  0.27090000  0.87110000  1.0 -0.2017814914
N  N149  1  0.72910000  0.12890000  0.20040000  1.0 -0.2017814914
N  N150  1  0.72910000  0.79960000  0.12890000  1.0 -0.2017814914
N  N151  1  0.72910000  0.87110000  0.79960000  1.0 -0.2017814914
N  N152  1  0.87110000  0.20040000  0.27090000  1.0 -0.2017814914
N  N153  1  0.27090000  0.20040000  0.12890000  1.0 -0.2017814914
N  N154  1  0.12890000  0.20040000  0.72910000  1.0 -0.2017814914
N  N155  1  0.87110000  0.72910000  0.20040000  1.0 -0.2017814914
N  N156  1  0.20040000  0.87110000  0.72910000  1.0 -0.2017814914
N  N157  1  0.79960000  0.12890000  0.72910000  1.0 -0.2017814914
N  N158  1  0.87110000  0.27090000  0.79960000  1.0 -0.2017814914
N  N159  1  0.79960000  0.87110000  0.27090000  1.0 -0.2017814914
N  N160  1  0.12890000  0.27090000  0.20040000  1.0 -0.2017814914
N  N161  1  0.12890000  0.72910000  0.79960000  1.0 -0.2017814914
N  N162  1  0.20040000  0.12890000  0.27090000  1.0 -0.2017814914
N  N163  1  0.20040000  0.72910000  0.12890000  1.0 -0.2017814914
N  N164  1  0.79960000  0.27090000  0.12890000  1.0 -0.2017814914
N  N165  1  0.27090000  0.87110000  0.20040000  1.0 -0.2017814914
N  N166  1  0.27090000  0.12890000  0.79960000  1.0 -0.2017814914
N  N167  1  0.87110000  0.79960000  0.72910000  1.0 -0.2017814914
N  N168  1  0.12890000  0.79960000  0.27090000  1.0 -0.2017814914
N  N169  1  0.77090000  0.29960000  0.62890000  1.0 -0.2017814914
N  N170  1  0.70040000  0.77090000  0.62890000  1.0 -0.2017814914
N  N171  1  0.22910000  0.70040000  0.62890000  1.0 -0.2017814914
N  N172  1  0.29960000  0.22910000  0.62890000  1.0 -0.2017814914
N  N173  1  0.77090000  0.37110000  0.29960000  1.0 -0.2017814914
N  N174  1  0.77090000  0.70040000  0.37110000  1.0 -0.2017814914
N  N175  1  0.77090000  0.62890000  0.70040000  1.0 -0.2017814914
N  N176  1  0.62890000  0.29960000  0.22910000  1.0 -0.2017814914
N  N177  1  0.22910000  0.29960000  0.37110000  1.0 -0.2017814914
N  N178  1  0.37110000  0.29960000  0.77090000  1.0 -0.2017814914
N  N179  1  0.62890000  0.77090000  0.29960000  1.0 -0.2017814914
N  N180  1  0.29960000  0.62890000  0.77090000  1.0 -0.2017814914
N  N181  1  0.70040000  0.37110000  0.77090000  1.0 -0.2017814914
N  N182  1  0.62890000  0.22910000  0.70040000  1.0 -0.2017814914
N  N183  1  0.70040000  0.62890000  0.22910000  1.0 -0.2017814914
N  N184  1  0.37110000  0.22910000  0.29960000  1.0 -0.2017814914
N  N185  1  0.37110000  0.77090000  0.70040000  1.0 -0.2017814914
N  N186  1  0.29960000  0.37110000  0.22910000  1.0 -0.2017814914
N  N187  1  0.29960000  0.77090000  0.37110000  1.0 -0.2017814914
N  N188  1  0.70040000  0.22910000  0.37110000  1.0 -0.2017814914
N  N189  1  0.22910000  0.62890000  0.29960000  1.0 -0.2017814914
N  N190  1  0.22910000  0.37110000  0.70040000  1.0 -0.2017814914
N  N191  1  0.62890000  0.70040000  0.77090000  1.0 -0.2017814914
N  N192  1  0.37110000  0.70040000  0.22910000  1.0 -0.2017814914
O  O1  1  0.90760000  0.09240000  0.90760000  1.0 -0.7532076022
O  O2  1  0.90760000  0.90760000  0.90760000  1.0 -0.7532076022
O  O3  1  0.09240000  0.90760000  0.90760000  1.0 -0.7532076022
O  O4  1  0.09240000  0.09240000  0.90760000  1.0 -0.7532076022
O  O5  1  0.90760000  0.09240000  0.09240000  1.0 -0.7532076022
O  O6  1  0.90760000  0.90760000  0.09240000  1.0 -0.7532076022
O  O7  1  0.09240000  0.09240000  0.09240000  1.0 -0.7532076022
O  O8  1  0.09240000  0.90760000  0.09240000  1.0 -0.7532076022
O  O9  1  0.59240000  0.40760000  0.59240000  1.0 -0.7532076022
O  O10  1  0.59240000  0.59240000  0.59240000  1.0 -0.7532076022
O  O11  1  0.40760000  0.59240000  0.59240000  1.0 -0.7532076022
O  O12  1  0.40760000  0.40760000  0.59240000  1.0 -0.7532076022
O  O13  1  0.59240000  0.40760000  0.40760000  1.0 -0.7532076022
O  O14  1  0.59240000  0.59240000  0.40760000  1.0 -0.7532076022
O  O15  1  0.40760000  0.40760000  0.40760000  1.0 -0.7532076022
O  O16  1  0.40760000  0.59240000  0.40760000  1.0 -0.7532076022
