# DDEC6 charges by PACMAN v1.1 (https://github.com/mtap-research/PACMAN-charge/)
data_QUJKUD_ion_pacman
_symmetry_space_group_name_H-M   'P 1'
_cell_length_a   14.71940000
_cell_length_b   14.71940000
_cell_length_c   27.11390000
_cell_angle_alpha   85.96690000
_cell_angle_beta   94.03310000
_cell_angle_gamma   119.96500000
_symmetry_Int_Tables_number   1
_chemical_formula_structural   Cu3H29C43N13O14
_chemical_formula_sum   'Cu12 H116 C172 N52 O56'
_cell_volume   5072.45763652
_cell_formula_units_Z   4
loop_
 _symmetry_equiv_pos_site_id
 _symmetry_equiv_pos_as_xyz
  1  'x, y, z'
loop_
 _atom_site_type_symbol
 _atom_site_label
 _atom_site_symmetry_multiplicity
 _atom_site_fract_x
 _atom_site_fract_y
 _atom_site_fract_z
 _atom_site_occupancy
 _atom_site_charge
Cu  Cu1  1  0.63515000  0.43697000  0.56592000  1.0 0.8253564983
Cu  Cu2  1  0.56303000  0.36485000  0.06592000  1.0 0.8253564983
Cu  Cu3  1  0.76340000  0.30980000  0.61553000  1.0 0.758060351
Cu  Cu4  1  0.69020000  0.23660000  0.11553000  1.0 0.758060351
Cu  Cu5  1  0.51124000  0.18578000  0.61546000  1.0 0.6947092761
Cu  Cu6  1  0.81422000  0.48876000  0.11546000  1.0 0.6947092761
Cu  Cu7  1  0.43697000  0.63515000  0.93408000  1.0 0.8253564983
Cu  Cu8  1  0.36485000  0.56303000  0.43408000  1.0 0.8253564983
Cu  Cu9  1  0.30980000  0.76340000  0.88447000  1.0 0.758060351
Cu  Cu10  1  0.23660000  0.69020000  0.38447000  1.0 0.758060351
Cu  Cu11  1  0.18578000  0.51124000  0.88454000  1.0 0.6974829584
Cu  Cu12  1  0.48876000  0.81422000  0.38454000  1.0 0.6947092761
H  H1  1  0.48690000  0.22390000  0.74080000  1.0 0.1302509649
H  H2  1  0.77610000  0.51310000  0.24080000  1.0 0.1302509649
H  H3  1  0.76470000  0.28630000  0.83360000  1.0 0.1183105595
H  H4  1  0.71370000  0.23530000  0.33360000  1.0 0.1183105595
H  H5  1  0.53020000  0.35460000  0.80890000  1.0 0.1302509649
H  H6  1  0.64540000  0.46980000  0.30890000  1.0 0.1302509649
H  H7  1  0.53350000  0.37790000  0.89330000  1.0 0.1087713566
H  H8  1  0.62210000  0.46650000  0.39330000  1.0 0.1087713566
H  H9  1  0.77160000  0.31780000  0.91710000  1.0 0.1183105595
H  H10  1  0.68220000  0.22840000  0.41710000  1.0 0.1183105595
H  H11  1  0.79750000  0.35890000  0.74610000  1.0 0.1302509649
H  H12  1  0.64110000  0.20250000  0.24610000  1.0 0.1302509649
H  H13  1  0.97900000  0.52260000  0.64320000  1.0 0.1302509649
H  H14  1  0.47740000  0.02100000  0.14320000  1.0 0.1302509649
H  H15  1  0.84460000  0.66980000  0.56970000  1.0 0.1302509649
H  H16  1  0.33020000  0.15540000  0.06970000  1.0 0.1302509649
H  H17  1  0.65060000  0.74240000  0.52760000  1.0 0.1183105595
H  H18  1  0.25760000  0.34940000  0.02760000  1.0 0.1183105595
H  H19  1  0.48220000  0.94720000  0.61530000  1.0 0.1302509649
H  H20  1  0.05280000  0.51780000  0.11530000  1.0 0.1302509649
H  H21  1  0.61360000  0.69280000  0.67520000  1.0 0.1302509649
H  H22  1  0.30720000  0.38640000  0.17520000  1.0 0.1302509649
H  H23  1  0.41770000  0.44770000  0.54650000  1.0 0.1464483644
H  H24  1  0.55230000  0.58230000  0.04650000  1.0 0.1464483644
H  H25  1  0.29070000  0.17850000  0.62570000  1.0 0.1302509649
H  H26  1  0.82150000  0.70930000  0.12570000  1.0 0.1302509649
H  H27  1  0.22870000  0.37590000  0.51750000  1.0 0.1379145413
H  H28  1  0.62410000  0.77130000  0.01750000  1.0 0.1379145413
H  H29  1  0.19410000  0.26210000  0.65940000  1.0 0.1302509649
H  H30  1  0.73790000  0.80590000  0.15940000  1.0 0.1302509649
H  H31  1  0.03730000  0.26570000  0.66140000  1.0 0.1379145413
H  H32  1  0.73430000  0.96270000  0.16140000  1.0 0.1379145413
H  H33  1  0.07310000  0.38070000  0.51960000  1.0 0.1302509649
H  H34  1  0.61930000  0.92690000  0.01960000  1.0 0.1302509649
H  H35  1  0.65270000  0.90230000  0.53180000  1.0 0.1379145413
H  H36  1  0.09770000  0.34730000  0.03180000  1.0 0.1379145413
H  H37  1  0.61420000  0.85220000  0.67990000  1.0 0.1302509649
H  H38  1  0.14780000  0.38580000  0.17990000  1.0 0.1302509649
H  H39  1  0.79030000  0.10110000  0.60330000  1.0 0.1379145413
H  H40  1  0.89890000  0.20970000  0.10330000  1.0 0.1379145413
H  H41  1  0.08000000  0.70960000  0.52990000  1.0 0.1087713566
H  H42  1  0.29040000  0.92000000  0.02990000  1.0 0.1087713566
H  H43  1  0.23680000  0.87060000  0.52560000  1.0 0.2280163951
H  H44  1  0.12940000  0.76320000  0.02560000  1.0 0.2280163951
H  H45  1  0.04500000  0.77160000  0.66930000  1.0 0.1014166488
H  H46  1  0.22840000  0.95500000  0.16930000  1.0 0.1014166488
H  H47  1  0.20640000  0.92940000  0.66250000  1.0 0.1087713566
H  H48  1  0.07060000  0.79360000  0.16250000  1.0 0.1014166488
H  H49  1  0.64000000  0.28600000  0.55590000  1.0 0.3690990954
H  H50  1  0.71400000  0.36000000  0.05590000  1.0 0.3690990954
H  H51  1  0.09750000  0.74970000  0.56300000  1.0 0.1014166488
H  H52  1  0.25030000  0.90250000  0.06300000  1.0 0.0927466104
H  H53  1  0.99820000  0.74300000  0.69750000  1.0 0.1014166488
H  H54  1  0.25700000  0.00180000  0.19750000  1.0 0.1014166488
H  H55  1  0.14810000  0.90090000  0.71310000  1.0 0.1379145413
H  H56  1  0.09910000  0.85190000  0.21310000  1.0 0.1379145413
H  H57  1  0.24680000  0.90800000  0.57930000  1.0 0.1014166488
H  H58  1  0.09200000  0.75320000  0.07930000  1.0 0.1014166488
H  H59  1  0.22390000  0.48690000  0.75920000  1.0 0.1302509649
H  H60  1  0.51310000  0.77610000  0.25920000  1.0 0.1302509649
H  H61  1  0.28630000  0.76470000  0.66640000  1.0 0.1183105595
H  H62  1  0.23530000  0.71370000  0.16640000  1.0 0.1183105595
H  H63  1  0.35460000  0.53020000  0.69110000  1.0 0.1302509649
H  H64  1  0.46980000  0.64540000  0.19110000  1.0 0.1302509649
H  H65  1  0.37790000  0.53350000  0.60670000  1.0 0.1087713566
H  H66  1  0.46650000  0.62210000  0.10670000  1.0 0.1087713566
H  H67  1  0.31780000  0.77160000  0.58290000  1.0 0.1183105595
H  H68  1  0.22840000  0.68220000  0.08290000  1.0 0.1183105595
H  H69  1  0.35890000  0.79750000  0.75390000  1.0 0.1302509649
H  H70  1  0.20250000  0.64110000  0.25390000  1.0 0.1302509649
H  H71  1  0.52260000  0.97900000  0.85680000  1.0 0.1302509649
H  H72  1  0.02100000  0.47740000  0.35680000  1.0 0.1302509649
H  H73  1  0.66980000  0.84460000  0.93030000  1.0 0.1302509649
H  H74  1  0.15540000  0.33020000  0.43030000  1.0 0.1302509649
H  H75  1  0.74240000  0.65060000  0.97240000  1.0 0.1183105595
H  H76  1  0.34940000  0.25760000  0.47240000  1.0 0.1183105595
H  H77  1  0.94720000  0.48220000  0.88470000  1.0 0.1302509649
H  H78  1  0.51780000  0.05280000  0.38470000  1.0 0.1302509649
H  H79  1  0.69280000  0.61360000  0.82480000  1.0 0.1302509649
H  H80  1  0.38640000  0.30720000  0.32480000  1.0 0.1302509649
H  H81  1  0.44770000  0.41770000  0.95350000  1.0 0.1464483644
H  H82  1  0.58230000  0.55230000  0.45350000  1.0 0.1464483644
H  H83  1  0.17850000  0.29070000  0.87430000  1.0 0.1302509649
H  H84  1  0.70930000  0.82150000  0.37430000  1.0 0.1302509649
H  H85  1  0.37590000  0.22870000  0.98250000  1.0 0.1379145413
H  H86  1  0.77130000  0.62410000  0.48250000  1.0 0.1379145413
H  H87  1  0.26210000  0.19410000  0.84060000  1.0 0.1302509649
H  H88  1  0.80590000  0.73790000  0.34060000  1.0 0.1302509649
H  H89  1  0.26570000  0.03730000  0.83860000  1.0 0.1379145413
H  H90  1  0.96270000  0.73430000  0.33860000  1.0 0.1379145413
H  H91  1  0.38070000  0.07310000  0.98040000  1.0 0.1302509649
H  H92  1  0.92690000  0.61930000  0.48040000  1.0 0.1302509649
H  H93  1  0.90230000  0.65270000  0.96820000  1.0 0.1379145413
H  H94  1  0.34730000  0.09770000  0.46820000  1.0 0.1379145413
H  H95  1  0.85220000  0.61420000  0.82010000  1.0 0.1302509649
H  H96  1  0.38580000  0.14780000  0.32010000  1.0 0.1302509649
H  H97  1  0.10110000  0.79030000  0.89670000  1.0 0.1379145413
H  H98  1  0.20970000  0.89890000  0.39670000  1.0 0.1379145413
H  H99  1  0.70960000  0.08000000  0.97010000  1.0 0.1087713566
H  H100  1  0.92000000  0.29040000  0.47010000  1.0 0.1087713566
H  H101  1  0.87060000  0.23680000  0.97440000  1.0 0.2280163951
H  H102  1  0.76320000  0.12940000  0.47440000  1.0 0.2280163951
H  H103  1  0.77160000  0.04500000  0.83070000  1.0 0.1014166488
H  H104  1  0.95500000  0.22840000  0.33070000  1.0 0.1014166488
H  H105  1  0.92940000  0.20640000  0.83750000  1.0 0.1087713566
H  H106  1  0.79360000  0.07060000  0.33750000  1.0 0.1014166488
H  H107  1  0.28600000  0.64000000  0.94410000  1.0 0.3690990954
H  H108  1  0.36000000  0.71400000  0.44410000  1.0 0.3690990954
H  H109  1  0.74970000  0.09750000  0.93700000  1.0 0.1014166488
H  H110  1  0.90250000  0.25030000  0.43700000  1.0 0.0927466104
H  H111  1  0.74300000  0.99820000  0.80250000  1.0 0.1014166488
H  H112  1  0.00180000  0.25700000  0.30250000  1.0 0.1014166488
H  H113  1  0.90090000  0.14810000  0.78690000  1.0 0.1379145413
H  H114  1  0.85190000  0.09910000  0.28690000  1.0 0.1379145413
H  H115  1  0.90800000  0.24680000  0.92070000  1.0 0.1014166488
H  H116  1  0.75320000  0.09200000  0.42070000  1.0 0.1014166488
C  C1  1  0.65220000  0.34920000  0.91382000  1.0 -0.008949537
C  C2  1  0.65080000  0.34780000  0.41382000  1.0 -0.008949537
C  C3  1  0.55724000  0.25096000  0.73174000  1.0 0.1302509649
C  C4  1  0.74904000  0.44276000  0.23174000  1.0 0.1302509649
C  C5  1  0.71810000  0.30570000  0.84580000  1.0 -0.2306253389
C  C6  1  0.69430000  0.28190000  0.34580000  1.0 -0.2306253389
C  C7  1  0.64590000  0.31670000  0.81418000  1.0 0.1644364968
C  C8  1  0.68330000  0.35410000  0.31418000  1.0 0.1644364968
C  C9  1  0.57800000  0.34520000  0.83109000  1.0 -0.1682449907
C  C10  1  0.65480000  0.42200000  0.33109000  1.0 -0.1682449907
C  C11  1  0.58120000  0.36000000  0.88108000  1.0 -0.0732236934
C  C12  1  0.64000000  0.41880000  0.38108000  1.0 -0.0732236934
C  C13  1  0.72100000  0.32340000  0.89530000  1.0 -0.1259070896
C  C14  1  0.67660000  0.27900000  0.39530000  1.0 -0.1259070896
C  C15  1  0.72620000  0.32440000  0.73449000  1.0 0.1087713566
C  C16  1  0.67560000  0.27380000  0.23449000  1.0 0.1087713566
C  C17  1  0.92930000  0.53630000  0.62500000  1.0 0.0429569073
C  C18  1  0.46370000  0.07070000  0.12500000  1.0 0.0429569073
C  C19  1  0.85640000  0.61640000  0.58510000  1.0 0.0298677254
C  C20  1  0.38360000  0.14360000  0.08510000  1.0 0.0298677254
C  C21  1  0.63251000  0.70329000  0.60140000  1.0 -0.0198428133
C  C22  1  0.29671000  0.36749000  0.10140000  1.0 -0.0198428133
C  C23  1  0.62971000  0.59969000  0.59950000  1.0 0.5287593752
C  C24  1  0.40031000  0.37029000  0.09950000  1.0 0.5287593752
C  C25  1  0.64370000  0.76490000  0.55840000  1.0 -0.0803078678
C  C26  1  0.23510000  0.35630000  0.05840000  1.0 -0.0803078678
C  C27  1  0.55290000  0.00210000  0.61310000  1.0 0.0927466104
C  C28  1  0.99790000  0.44710000  0.11310000  1.0 0.0927466104
C  C29  1  0.62160000  0.73560000  0.64620000  1.0 -0.0803078678
C  C30  1  0.26440000  0.37840000  0.14620000  1.0 -0.0803078678
C  C31  1  0.40823000  0.38617000  0.56463000  1.0 0.1302509649
C  C32  1  0.61383000  0.59177000  0.06463000  1.0 0.1302509649
C  C33  1  0.22313000  0.31667000  0.58830000  1.0 0.1644364968
C  C34  1  0.68333000  0.77687000  0.08830000  1.0 0.1644364968
C  C35  1  0.33916000  0.23964000  0.60765000  1.0 0.0655006543
C  C36  1  0.76036000  0.66084000  0.10765000  1.0 0.0655006543
C  C37  1  0.04016000  0.32404000  0.59044000  1.0 -0.0198428133
C  C38  1  0.67596000  0.95984000  0.09044000  1.0 -0.0198428133
C  C39  1  0.18930000  0.35330000  0.54660000  1.0 -0.1682449907
C  C40  1  0.64670000  0.81070000  0.04660000  1.0 -0.1682449907
C  C41  1  0.16870000  0.28530000  0.63100000  1.0 -0.1917498634
C  C42  1  0.71470000  0.83130000  0.13100000  1.0 -0.1917498634
C  C43  1  0.07630000  0.28810000  0.63220000  1.0 -0.0803078678
C  C44  1  0.71190000  0.92370000  0.13220000  1.0 -0.0803078678
C  C45  1  0.09740000  0.35620000  0.54800000  1.0 -0.0803078678
C  C46  1  0.64380000  0.90260000  0.04800000  1.0 -0.0803078678
C  C47  1  0.64480000  0.85940000  0.56080000  1.0 -0.1580652744
C  C48  1  0.14060000  0.35520000  0.06080000  1.0 -0.1580652744
C  C49  1  0.62210000  0.82970000  0.64930000  1.0 -0.1779006422
C  C50  1  0.17030000  0.37790000  0.14930000  1.0 -0.1779006422
C  C51  1  0.63430000  0.88930000  0.60570000  1.0 0.1644364968
C  C52  1  0.11070000  0.36570000  0.10570000  1.0 0.1644364968
C  C53  1  0.72020000  0.08560000  0.60670000  1.0 0.1464483644
C  C54  1  0.91440000  0.27980000  0.10670000  1.0 0.1464483644
C  C55  1  0.65530000  0.36410000  0.96818000  1.0 0.5724700391
C  C56  1  0.63590000  0.34470000  0.46818000  1.0 0.5724700391
C  C57  1  0.93886000  0.32434000  0.58993000  1.0 0.5287593752
C  C58  1  0.67566000  0.06114000  0.08993000  1.0 0.5287593752
C  C59  1  0.04930000  0.72890000  0.59930000  1.0 0.0298677254
C  C60  1  0.27110000  0.95070000  0.09930000  1.0 0.0298677254
C  C61  1  0.10500000  0.75500000  0.55690000  1.0 -0.0907993177
C  C62  1  0.24500000  0.89500000  0.05690000  1.0 -0.0907993177
C  C63  1  0.34100000  0.01060000  0.59240000  1.0 0.2503165118
C  C64  1  0.98940000  0.65900000  0.09240000  1.0 0.2503165118
C  C65  1  0.19790000  0.84890000  0.55480000  1.0 -0.0732236934
C  C66  1  0.15110000  0.80210000  0.05480000  1.0 -0.0732236934
C  C67  1  0.08380000  0.79100000  0.64020000  1.0 0.0214257975
C  C68  1  0.20900000  0.91620000  0.14020000  1.0 0.0298677254
C  C69  1  0.23390000  0.91030000  0.59460000  1.0 -0.0292686794
C  C70  1  0.08970000  0.76610000  0.09460000  1.0 -0.0292686794
C  C71  1  0.17930000  0.88370000  0.63560000  1.0 -0.0292686794
C  C72  1  0.11630000  0.82070000  0.13560000  1.0 -0.0292686794
C  C73  1  0.03740000  0.73600000  0.62920000  1.0 -0.008949537
C  C74  1  0.26400000  0.96260000  0.12920000  1.0 -0.008949537
C  C75  1  0.31200000  0.02120000  0.65750000  1.0 0.2280163951
C  C76  1  0.97880000  0.68800000  0.15750000  1.0 0.2280163951
C  C77  1  0.21010000  0.91770000  0.64760000  1.0 -0.0463666134
C  C78  1  0.08230000  0.78990000  0.14760000  1.0 -0.0463666134
C  C79  1  0.10840000  0.78140000  0.59380000  1.0 -0.008949537
C  C80  1  0.21860000  0.89160000  0.09380000  1.0 -0.008949537
C  C81  1  0.04970000  0.77750000  0.67330000  1.0 -0.0907993177
C  C82  1  0.22250000  0.95030000  0.17330000  1.0 -0.0907993177
C  C83  1  0.13740000  0.86960000  0.68220000  1.0 -0.1038833261
C  C84  1  0.13040000  0.86260000  0.18220000  1.0 -0.1038833261
C  C85  1  0.19540000  0.87380000  0.60360000  1.0 -0.0292686794
C  C86  1  0.12620000  0.80460000  0.10360000  1.0 -0.0353923366
C  C87  1  0.34920000  0.65220000  0.58618000  1.0 -0.008949537
C  C88  1  0.34780000  0.65080000  0.08618000  1.0 -0.008949537
C  C89  1  0.25096000  0.55724000  0.76826000  1.0 0.1302509649
C  C90  1  0.44276000  0.74904000  0.26826000  1.0 0.1302509649
C  C91  1  0.30570000  0.71810000  0.65420000  1.0 -0.2306253389
C  C92  1  0.28190000  0.69430000  0.15420000  1.0 -0.2306253389
C  C93  1  0.31670000  0.64590000  0.68582000  1.0 0.1644364968
C  C94  1  0.35410000  0.68330000  0.18582000  1.0 0.1644364968
C  C95  1  0.34520000  0.57800000  0.66891000  1.0 -0.1682449907
C  C96  1  0.42200000  0.65480000  0.16891000  1.0 -0.1682449907
C  C97  1  0.36000000  0.58120000  0.61892000  1.0 -0.0732236934
C  C98  1  0.41880000  0.64000000  0.11892000  1.0 -0.0732236934
C  C99  1  0.32340000  0.72100000  0.60470000  1.0 -0.1259070896
C  C100  1  0.27900000  0.67660000  0.10470000  1.0 -0.1259070896
C  C101  1  0.32440000  0.72620000  0.76551000  1.0 0.1087713566
C  C102  1  0.27380000  0.67560000  0.26551000  1.0 0.1087713566
C  C103  1  0.53630000  0.92930000  0.87500000  1.0 0.0429569073
C  C104  1  0.07070000  0.46370000  0.37500000  1.0 0.0429569073
C  C105  1  0.61640000  0.85640000  0.91490000  1.0 0.0298677254
C  C106  1  0.14360000  0.38360000  0.41490000  1.0 0.0298677254
C  C107  1  0.70329000  0.63251000  0.89860000  1.0 -0.0198428133
C  C108  1  0.36749000  0.29671000  0.39860000  1.0 -0.0198428133
C  C109  1  0.59969000  0.62971000  0.90050000  1.0 0.5287593752
C  C110  1  0.37029000  0.40031000  0.40050000  1.0 0.5287593752
C  C111  1  0.76490000  0.64370000  0.94160000  1.0 -0.0803078678
C  C112  1  0.35630000  0.23510000  0.44160000  1.0 -0.0803078678
C  C113  1  0.00210000  0.55290000  0.88690000  1.0 0.0927466104
C  C114  1  0.44710000  0.99790000  0.38690000  1.0 0.0927466104
C  C115  1  0.73560000  0.62160000  0.85380000  1.0 -0.0803078678
C  C116  1  0.37840000  0.26440000  0.35380000  1.0 -0.0803078678
C  C117  1  0.38617000  0.40823000  0.93537000  1.0 0.1302509649
C  C118  1  0.59177000  0.61383000  0.43537000  1.0 0.1302509649
C  C119  1  0.31667000  0.22313000  0.91170000  1.0 0.1644364968
C  C120  1  0.77687000  0.68333000  0.41170000  1.0 0.1644364968
C  C121  1  0.23964000  0.33916000  0.89235000  1.0 0.0655006543
C  C122  1  0.66084000  0.76036000  0.39235000  1.0 0.0655006543
C  C123  1  0.32404000  0.04016000  0.90956000  1.0 -0.0198428133
C  C124  1  0.95984000  0.67596000  0.40956000  1.0 -0.0198428133
C  C125  1  0.35330000  0.18930000  0.95340000  1.0 -0.1682449907
C  C126  1  0.81070000  0.64670000  0.45340000  1.0 -0.1682449907
C  C127  1  0.28530000  0.16870000  0.86900000  1.0 -0.1917498634
C  C128  1  0.83130000  0.71470000  0.36900000  1.0 -0.1917498634
C  C129  1  0.28810000  0.07630000  0.86780000  1.0 -0.0803078678
C  C130  1  0.92370000  0.71190000  0.36780000  1.0 -0.0803078678
C  C131  1  0.35620000  0.09740000  0.95200000  1.0 -0.0803078678
C  C132  1  0.90260000  0.64380000  0.45200000  1.0 -0.0803078678
C  C133  1  0.85940000  0.64480000  0.93920000  1.0 -0.1580652744
C  C134  1  0.35520000  0.14060000  0.43920000  1.0 -0.1580652744
C  C135  1  0.82970000  0.62210000  0.85070000  1.0 -0.1779006422
C  C136  1  0.37790000  0.17030000  0.35070000  1.0 -0.1779006422
C  C137  1  0.88930000  0.63430000  0.89430000  1.0 0.1644364968
C  C138  1  0.36570000  0.11070000  0.39430000  1.0 0.1644364968
C  C139  1  0.08560000  0.72020000  0.89330000  1.0 0.1464483644
C  C140  1  0.27980000  0.91440000  0.39330000  1.0 0.1464483644
C  C141  1  0.36410000  0.65530000  0.53182000  1.0 0.5724700391
C  C142  1  0.34470000  0.63590000  0.03182000  1.0 0.5724700391
C  C143  1  0.32434000  0.93886000  0.91007000  1.0 0.5287593752
C  C144  1  0.06114000  0.67566000  0.41007000  1.0 0.5287593752
C  C145  1  0.72890000  0.04930000  0.90070000  1.0 0.0298677254
C  C146  1  0.95070000  0.27110000  0.40070000  1.0 0.0298677254
C  C147  1  0.75500000  0.10500000  0.94310000  1.0 -0.0907993177
C  C148  1  0.89500000  0.24500000  0.44310000  1.0 -0.0907993177
C  C149  1  0.01060000  0.34100000  0.90760000  1.0 0.2503165118
C  C150  1  0.65900000  0.98940000  0.40760000  1.0 0.2503165118
C  C151  1  0.84890000  0.19790000  0.94520000  1.0 -0.0732236934
C  C152  1  0.80210000  0.15110000  0.44520000  1.0 -0.0732236934
C  C153  1  0.79100000  0.08380000  0.85980000  1.0 0.0214257975
C  C154  1  0.91620000  0.20900000  0.35980000  1.0 0.0214257975
C  C155  1  0.91030000  0.23390000  0.90540000  1.0 -0.0198428133
C  C156  1  0.76610000  0.08970000  0.40540000  1.0 -0.0198428133
C  C157  1  0.88370000  0.17930000  0.86440000  1.0 -0.0198428133
C  C158  1  0.82070000  0.11630000  0.36440000  1.0 -0.0198428133
C  C159  1  0.73600000  0.03740000  0.87080000  1.0 -0.008949537
C  C160  1  0.96260000  0.26400000  0.37080000  1.0 -0.008949537
C  C161  1  0.02120000  0.31200000  0.84250000  1.0 0.2280163951
C  C162  1  0.68800000  0.97880000  0.34250000  1.0 0.2280163951
C  C163  1  0.91770000  0.21010000  0.85240000  1.0 -0.0463666134
C  C164  1  0.78990000  0.08230000  0.35240000  1.0 -0.0463666134
C  C165  1  0.78140000  0.10840000  0.90620000  1.0 -0.008949537
C  C166  1  0.89160000  0.21860000  0.40620000  1.0 -0.008949537
C  C167  1  0.77750000  0.04970000  0.82670000  1.0 -0.0907993177
C  C168  1  0.95030000  0.22250000  0.32670000  1.0 -0.0907993177
C  C169  1  0.86960000  0.13740000  0.81780000  1.0 -0.1038833261
C  C170  1  0.86260000  0.13040000  0.31780000  1.0 -0.1038833261
C  C171  1  0.87380000  0.19540000  0.89640000  1.0 -0.0292686794
C  C172  1  0.80460000  0.12620000  0.39640000  1.0 -0.0292686794
N  N1  1  0.83630000  0.46570000  0.61104000  1.0 -0.1682449907
N  N2  1  0.53430000  0.16370000  0.11104000  1.0 -0.1682449907
N  N3  1  0.78897000  0.51623000  0.58560000  1.0 -0.1779006422
N  N4  1  0.48377000  0.21103000  0.08560000  1.0 -0.1779006422
N  N5  1  0.64295000  0.29885000  0.76280000  1.0 -0.0198428133
N  N6  1  0.70115000  0.35705000  0.26280000  1.0 -0.0198428133
N  N7  1  0.58511000  0.24729000  0.68769000  1.0 -0.2074189391
N  N8  1  0.75271000  0.41489000  0.18769000  1.0 -0.2074189391
N  N9  1  0.69400000  0.29500000  0.68926000  1.0 -0.2074189391
N  N10  1  0.70500000  0.30600000  0.18926000  1.0 -0.2074189391
N  N11  1  0.94589000  0.63271000  0.61010000  1.0 0.0214257975
N  N12  1  0.36729000  0.05411000  0.11010000  1.0 0.0214257975
N  N13  1  0.43401000  0.26379000  0.59936000  1.0 -0.1779006422
N  N14  1  0.73621000  0.56599000  0.09936000  1.0 -0.1779006422
N  N15  1  0.58386000  0.10154000  0.61395000  1.0 -0.1917498634
N  N16  1  0.89846000  0.41614000  0.11395000  1.0 -0.1917498634
N  N17  1  0.47871000  0.35749000  0.57215000  1.0 -0.1682449907
N  N18  1  0.64251000  0.52129000  0.07215000  1.0 -0.1682449907
N  N19  1  0.63575000  0.98845000  0.60870000  1.0 -0.008949537
N  N20  1  0.01155000  0.36425000  0.10870000  1.0 -0.008949537
N  N21  1  0.69105000  0.15555000  0.61020000  1.0 -0.1682449907
N  N22  1  0.84445000  0.30895000  0.11020000  1.0 -0.1682449907
N  N23  1  0.31888000  0.31432000  0.58672000  1.0 -0.008949537
N  N24  1  0.68568000  0.68112000  0.08672000  1.0 -0.008949537
N  N25  1  0.46570000  0.83630000  0.88896000  1.0 -0.1682449907
N  N26  1  0.16370000  0.53430000  0.38896000  1.0 -0.1682449907
N  N27  1  0.51623000  0.78897000  0.91440000  1.0 -0.1779006422
N  N28  1  0.21103000  0.48377000  0.41440000  1.0 -0.1779006422
N  N29  1  0.29885000  0.64295000  0.73720000  1.0 -0.0198428133
N  N30  1  0.35705000  0.70115000  0.23720000  1.0 -0.0198428133
N  N31  1  0.24729000  0.58511000  0.81231000  1.0 -0.2074189391
N  N32  1  0.41489000  0.75271000  0.31231000  1.0 -0.2074189391
N  N33  1  0.29500000  0.69400000  0.81074000  1.0 -0.2074189391
N  N34  1  0.30600000  0.70500000  0.31074000  1.0 -0.2074189391
N  N35  1  0.63271000  0.94589000  0.88990000  1.0 0.0214257975
N  N36  1  0.05411000  0.36729000  0.38990000  1.0 0.0214257975
N  N37  1  0.26379000  0.43401000  0.90064000  1.0 -0.1779006422
N  N38  1  0.56599000  0.73621000  0.40064000  1.0 -0.1779006422
N  N39  1  0.10154000  0.58386000  0.88605000  1.0 -0.1917498634
N  N40  1  0.41614000  0.89846000  0.38605000  1.0 -0.1917498634
N  N41  1  0.35749000  0.47871000  0.92785000  1.0 -0.1682449907
N  N42  1  0.52129000  0.64251000  0.42785000  1.0 -0.1682449907
N  N43  1  0.98845000  0.63575000  0.89130000  1.0 -0.008949537
N  N44  1  0.36425000  0.01155000  0.39130000  1.0 -0.008949537
N  N45  1  0.15555000  0.69105000  0.88980000  1.0 -0.1682449907
N  N46  1  0.30895000  0.84445000  0.38980000  1.0 -0.1682449907
N  N47  1  0.31432000  0.31888000  0.91328000  1.0 -0.008949537
N  N48  1  0.68112000  0.68568000  0.41328000  1.0 -0.008949537
N  N49  1  0.00170000  0.41070000  0.24880000  1.0 0.5724700391
N  N50  1  0.41070000  0.00170000  0.25120000  1.0 0.5724700391
N  N51  1  0.99830000  0.58930000  0.75120000  1.0 0.5724700391
N  N52  1  0.58930000  0.99830000  0.74880000  1.0 0.5724700391
O  O1  1  0.63576000  0.30484000  0.58384000  1.0 -0.7418912351
O  O2  1  0.69516000  0.36424000  0.08384000  1.0 -0.7418912351
O  O3  1  0.63549000  0.57111000  0.55700000  1.0 -0.5481053442
O  O4  1  0.42889000  0.36451000  0.05700000  1.0 -0.5481053442
O  O5  1  0.62411000  0.54789000  0.63851000  1.0 -0.5671234429
O  O6  1  0.45211000  0.37589000  0.13851000  1.0 -0.5671234429
O  O7  1  0.58093000  0.37007000  0.98508000  1.0 -0.6027154178
O  O8  1  0.62993000  0.41907000  0.48508000  1.0 -0.6027154178
O  O9  1  0.73168000  0.36732000  0.99367000  1.0 -0.4978373498
O  O10  1  0.63268000  0.26832000  0.49367000  1.0 -0.4978373498
O  O11  1  0.37924000  0.05776000  0.62831000  1.0 -0.2306253389
O  O12  1  0.94224000  0.62076000  0.12831000  1.0 -0.2306253389
O  O13  1  0.89763000  0.33457000  0.55038000  1.0 -0.5134713799
O  O14  1  0.66543000  0.10237000  0.05038000  1.0 -0.5134713799
O  O15  1  0.89765000  0.31275000  0.63202000  1.0 -0.5382816792
O  O16  1  0.68725000  0.10235000  0.13202000  1.0 -0.5382816792
O  O17  1  0.38440000  0.03980000  0.55320000  1.0 -0.3702417649
O  O18  1  0.96020000  0.61560000  0.05320000  1.0 -0.3702417649
O  O19  1  0.32470000  0.06830000  0.69610000  1.0 -0.402637288
O  O20  1  0.93170000  0.67530000  0.19610000  1.0 -0.402637288
O  O21  1  0.29410000  0.88810000  0.49740000  1.0 -0.4615040472
O  O22  1  0.11190000  0.70590000  0.99740000  1.0 -0.4654497952
O  O23  1  0.30484000  0.63576000  0.91616000  1.0 -0.7418912351
O  O24  1  0.36424000  0.69516000  0.41616000  1.0 -0.7418912351
O  O25  1  0.57111000  0.63549000  0.94300000  1.0 -0.5481053442
O  O26  1  0.36451000  0.42889000  0.44300000  1.0 -0.5481053442
O  O27  1  0.54789000  0.62411000  0.86149000  1.0 -0.5671234429
O  O28  1  0.37589000  0.45211000  0.36149000  1.0 -0.5671234429
O  O29  1  0.37007000  0.58093000  0.51492000  1.0 -0.6027154178
O  O30  1  0.41907000  0.62993000  0.01492000  1.0 -0.6027154178
O  O31  1  0.36732000  0.73168000  0.50633000  1.0 -0.4978373498
O  O32  1  0.26832000  0.63268000  0.00633000  1.0 -0.4978373498
O  O33  1  0.05776000  0.37924000  0.87169000  1.0 -0.2306253389
O  O34  1  0.62076000  0.94224000  0.37169000  1.0 -0.2306253389
O  O35  1  0.33457000  0.89763000  0.94962000  1.0 -0.5134713799
O  O36  1  0.10237000  0.66543000  0.44962000  1.0 -0.5134713799
O  O37  1  0.31275000  0.89765000  0.86798000  1.0 -0.5382816792
O  O38  1  0.10235000  0.68725000  0.36798000  1.0 -0.5382816792
O  O39  1  0.03980000  0.38440000  0.94680000  1.0 -0.3702417649
O  O40  1  0.61560000  0.96020000  0.44680000  1.0 -0.3702417649
O  O41  1  0.06830000  0.32470000  0.80390000  1.0 -0.402637288
O  O42  1  0.67530000  0.93170000  0.30390000  1.0 -0.402637288
O  O43  1  0.88810000  0.29410000  0.00260000  1.0 -0.4615040472
O  O44  1  0.70590000  0.11190000  0.50260000  1.0 -0.4615040472
O  O45  1  0.09160000  0.45120000  0.25520000  1.0 -0.3424174488
O  O46  1  0.95680000  0.33320000  0.22380000  1.0 -0.3596844971
O  O47  1  0.94880000  0.43660000  0.26950000  1.0 -0.3702417649
O  O48  1  0.45120000  0.09160000  0.24480000  1.0 -0.3424174488
O  O49  1  0.33320000  0.95680000  0.27620000  1.0 -0.3596844971
O  O50  1  0.43660000  0.94880000  0.23050000  1.0 -0.3702417649
O  O51  1  0.90840000  0.54880000  0.74480000  1.0 -0.3424174488
O  O52  1  0.04320000  0.66680000  0.77620000  1.0 -0.3596844971
O  O53  1  0.05120000  0.56340000  0.73050000  1.0 -0.3702417649
O  O54  1  0.54880000  0.90840000  0.75520000  1.0 -0.3424174488
O  O55  1  0.66680000  0.04320000  0.72380000  1.0 -0.3596844971
O  O56  1  0.56340000  0.05120000  0.76950000  1.0 -0.3702417649
