# DDEC6 charges by PACMAN v1.1 (https://github.com/mtap-research/PACMAN-charge/)
data_QUMBOS_ion_pacman
_symmetry_space_group_name_H-M   'P 1'
_cell_length_a   17.10200000
_cell_length_b   18.30470000
_cell_length_c   21.04380000
_cell_angle_alpha   111.82400000
_cell_angle_beta   89.84320000
_cell_angle_gamma   107.43700000
_symmetry_Int_Tables_number   1
_chemical_formula_structural   Ag4H89C99S4N12O15F13
_chemical_formula_sum   'Ag8 H178 C198 S8 N24 O30 F26'
_cell_volume   5790.45123568
_cell_formula_units_Z   2
loop_
 _symmetry_equiv_pos_site_id
 _symmetry_equiv_pos_as_xyz
  1  'x, y, z'
loop_
 _atom_site_type_symbol
 _atom_site_label
 _atom_site_symmetry_multiplicity
 _atom_site_fract_x
 _atom_site_fract_y
 _atom_site_fract_z
 _atom_site_occupancy
 _atom_site_charge
Ag  Ag1  1  0.93375000  0.55792000  0.52498000  1.0 0.3093725161
Ag  Ag2  1  0.85008000  0.68776000  0.52809000  1.0 0.2804217132
Ag  Ag3  1  0.72820000  0.78421000  0.53196000  1.0 0.3525407703
Ag  Ag4  1  0.92460000  0.53533000  0.01474000  1.0 0.3093725161
Ag  Ag5  1  0.06625000  0.44208000  0.47502000  1.0 0.3093725161
Ag  Ag6  1  0.14992000  0.31224000  0.47191000  1.0 0.2804217132
Ag  Ag7  1  0.27180000  0.21579000  0.46804000  1.0 0.3525407703
Ag  Ag8  1  0.07540000  0.46467000  0.98526000  1.0 0.3093725161
H  H1  1  0.93310000  0.63090000  0.40010000  1.0 0.1017193445
H  H2  1  0.02410000  0.68010000  0.33333333  1.0 0.1296943731
H  H3  1  0.02930000  0.91020000  0.45330000  1.0 0.1407471125
H  H4  1  0.94510000  0.85780000  0.52140000  1.0 0.1099342351
H  H5  1  0.06190000  0.81490000  0.29370000  1.0 0.1196778863
H  H6  1  0.11150000  0.89540000  0.36000000  1.0 0.1099342351
H  H7  1  0.25180000  0.79030000  0.26750000  1.0 0.1196778863
H  H8  1  0.20890000  0.85560000  0.26390000  1.0 0.1099342351
H  H9  1  0.11120000  0.64330000  0.24290000  1.0 0.1407471125
H  H10  1  0.01580000  0.54580000  0.15020000  1.0 0.1017193445
H  H11  1  0.05880000  0.69990000  0.05470000  1.0 0.1017193445
H  H12  1  0.14950000  0.80210000  0.14700000  1.0 0.1407471125
H  H13  1  0.20100000  0.86230000  0.43440000  1.0 0.1099342351
H  H14  1  0.25200000  0.91180000  0.39090000  1.0 0.1099342351
H  H15  1  0.21740000  0.70650000  0.38540000  1.0 0.1296943731
H  H16  1  0.31580000  0.64700000  0.38870000  1.0 0.1099342351
H  H17  1  0.46670000  0.65530000  0.39500000  1.0 0.1196778863
H  H18  1  0.60330000  0.73140000  0.40150000  1.0 0.1099342351
H  H19  1  0.64020000  0.86920000  0.41270000  1.0 0.1017193445
H  H20  1  0.53960000  0.93060000  0.41080000  1.0 0.1099342351
H  H21  1  0.39150000  0.91820000  0.39870000  1.0 0.1196778863
H  H22  1  0.97250000  0.69010000  0.66950000  1.0 0.1099342351
H  H23  1  0.05780000  0.82250000  0.73610000  1.0 0.1407471125
H  H24  1  0.17730000  0.82270000  0.57020000  1.0 0.1296943731
H  H25  1  0.08760000  0.69070000  0.50760000  1.0 0.1099342351
H  H26  1  0.16360000  0.94890000  0.74590000  1.0 0.1099342351
H  H27  1  0.23870000  0.91500000  0.72020000  1.0 0.1099342351
H  H28  1  0.15350000  0.06190000  0.71830000  1.0 0.1099342351
H  H29  1  0.09480000  0.98130000  0.65640000  1.0 0.1196778863
H  H30  1  0.16370000  0.96720000  0.53680000  1.0 0.1296943731
H  H31  1  0.20030000  0.03670000  0.46360000  1.0 0.1017193445
H  H32  1  0.21980000  0.25000000  0.61660000  1.0 0.1017193445
H  H33  1  0.18070000  0.18400000  0.69220000  1.0 0.1407471125
H  H34  1  0.30060000  0.06000000  0.74800000  1.0 0.1099342351
H  H35  1  0.30360000  0.08600000  0.68300000  1.0 0.1099342351
H  H36  1  0.29840000  0.92080000  0.57530000  1.0 0.1099342351
H  H37  1  0.40030000  0.86430000  0.53270000  1.0 0.1099342351
H  H38  1  0.54420000  0.86240000  0.54530000  1.0 0.1099342351
H  H39  1  0.66920000  0.91250000  0.61100000  1.0 0.1017193445
H  H40  1  0.69020000  0.00720000  0.72510000  1.0 0.1196778863
H  H41  1  0.58410000  0.05780000  0.77200000  1.0 0.1196778863
H  H42  1  0.44150000  0.06480000  0.75640000  1.0 0.1196778863
H  H43  1  0.86320000  0.46100000  0.37350000  1.0 0.1017193445
H  H44  1  0.76120000  0.34430000  0.30130000  1.0 0.1296943731
H  H45  1  0.67650000  0.30420000  0.46850000  1.0 0.1296943731
H  H46  1  0.78520000  0.41690000  0.53580000  1.0 0.1017193445
H  H47  1  0.65760000  0.18660000  0.31490000  1.0 0.1196778863
H  H48  1  0.59100000  0.22350000  0.35740000  1.0 0.1099342351
H  H49  1  0.54300000  0.30750000  0.24380000  1.0 0.1196778863
H  H50  1  0.60270000  0.36170000  0.31460000  1.0 0.1196778863
H  H51  1  0.40350000  0.20450000  0.24790000  1.0 0.1407471125
H  H52  1  0.29910000  0.17960000  0.31350000  1.0 0.1017193445
H  H53  1  0.44310000  0.34330000  0.48370000  1.0 0.1099342351
H  H54  1  0.55070000  0.37180000  0.42130000  1.0 0.1495750095
H  H55  1  0.53300000  0.17430000  0.18040000  1.0 0.1099342351
H  H56  1  0.52170000  0.13040000  0.23460000  1.0 0.1017193445
H  H57  1  0.71740000  0.22030000  0.19060000  1.0 0.1017193445
H  H58  1  0.81650000  0.15500000  0.13820000  1.0 0.1196778863
H  H59  1  0.85420000  0.03210000  0.09240000  1.0 0.1196778863
H  H60  1  0.81600000  0.89330000  0.05850000  1.0 0.1296943731
H  H61  1  0.68910000  0.81350000  0.06260000  1.0 0.1196778863
H  H62  1  0.58830000  0.88310000  0.11010000  1.0 0.1196778863
H  H63  1  0.54430000  0.00230000  0.15930000  1.0 0.1099342351
H  H64  1  0.69520000  0.54360000  0.51780000  1.0 0.1099342351
H  H65  1  0.59890000  0.50040000  0.58500000  1.0 0.1407471125
H  H66  1  0.74990000  0.68140000  0.75210000  1.0 0.1296943731
H  H67  1  0.83750000  0.72270000  0.68040000  1.0 0.1099342351
H  H68  1  0.57230000  0.60560000  0.73980000  1.0 0.1099342351
H  H69  1  0.56130000  0.50890000  0.69930000  1.0 0.1099342351
H  H70  1  0.69350000  0.47920000  0.72310000  1.0 0.1196778863
H  H71  1  0.61890000  0.44150000  0.75990000  1.0 0.1099342351
H  H72  1  0.81880000  0.59640000  0.82160000  1.0 0.1495750095
H  H73  1  0.90820000  0.60900000  0.90850000  1.0 0.1099342351
H  H74  1  0.75970000  0.41270000  0.92660000  1.0 0.1017193445
H  H75  1  0.66290000  0.39820000  0.84150000  1.0 0.1495750095
H  H76  1  0.61780000  0.56310000  0.87870000  1.0 0.1017193445
H  H77  1  0.53790000  0.53380000  0.82440000  1.0 0.1099342351
H  H78  1  0.46660000  0.63250000  0.88810000  1.0 0.1099342351
H  H79  1  0.46370000  0.76880000  0.93590000  1.0 0.0901636871
H  H80  1  0.52240000  0.92040000  0.97070000  1.0 0.1017193445
H  H81  1  0.62310000  0.02530000  0.94950000  1.0 0.0807378212
H  H82  1  0.74260000  0.00600000  0.90420000  1.0 0.1196778863
H  H83  1  0.76020000  0.87170000  0.86540000  1.0 0.1099342351
H  H84  1  0.70580000  0.72370000  0.86370000  1.0 0.1017193445
H  H85  1  0.60810000  0.95960000  0.94880000  1.0 0.0901636871
H  H86  1  0.49480000  0.95700000  0.99440000  1.0 0.0901636871
H  H87  1  0.39130000  0.85460000  0.97540000  1.0 0.1407471125
H  H88  1  0.39460000  0.72280000  0.92380000  1.0 0.1017193445
H  H89  1  0.69560000  0.86270000  0.90160000  1.0 0.0807378212
H  H90  1  0.06690000  0.36910000  0.59990000  1.0 0.1017193445
H  H91  1  0.97590000  0.31990000  0.66666667  1.0 0.1296943731
H  H92  1  0.97070000  0.08980000  0.54670000  1.0 0.1407471125
H  H93  1  0.05490000  0.14220000  0.47860000  1.0 0.1099342351
H  H94  1  0.93810000  0.18510000  0.70630000  1.0 0.1196778863
H  H95  1  0.88850000  0.10460000  0.64000000  1.0 0.1099342351
H  H96  1  0.74820000  0.20970000  0.73250000  1.0 0.1196778863
H  H97  1  0.79110000  0.14440000  0.73610000  1.0 0.1099342351
H  H98  1  0.88880000  0.35670000  0.75710000  1.0 0.1407471125
H  H99  1  0.98420000  0.45420000  0.84980000  1.0 0.1017193445
H  H100  1  0.94120000  0.30010000  0.94530000  1.0 0.1017193445
H  H101  1  0.85050000  0.19790000  0.85300000  1.0 0.1407471125
H  H102  1  0.79900000  0.13770000  0.56560000  1.0 0.1099342351
H  H103  1  0.74800000  0.08820000  0.60910000  1.0 0.1099342351
H  H104  1  0.78260000  0.29350000  0.61460000  1.0 0.1296943731
H  H105  1  0.68420000  0.35300000  0.61130000  1.0 0.1099342351
H  H106  1  0.53330000  0.34470000  0.60500000  1.0 0.1196778863
H  H107  1  0.39670000  0.26860000  0.59850000  1.0 0.1099342351
H  H108  1  0.35980000  0.13080000  0.58730000  1.0 0.1017193445
H  H109  1  0.46040000  0.06940000  0.58920000  1.0 0.1099342351
H  H110  1  0.60850000  0.08180000  0.60130000  1.0 0.1196778863
H  H111  1  0.02750000  0.30990000  0.33050000  1.0 0.1099342351
H  H112  1  0.94220000  0.17750000  0.26390000  1.0 0.1407471125
H  H113  1  0.82270000  0.17730000  0.42980000  1.0 0.1296943731
H  H114  1  0.91240000  0.30930000  0.49240000  1.0 0.1099342351
H  H115  1  0.83640000  0.05110000  0.25410000  1.0 0.1099342351
H  H116  1  0.76130000  0.08500000  0.27980000  1.0 0.1099342351
H  H117  1  0.84650000  0.93810000  0.28170000  1.0 0.1099342351
H  H118  1  0.90520000  0.01870000  0.34360000  1.0 0.1196778863
H  H119  1  0.83630000  0.03280000  0.46320000  1.0 0.1296943731
H  H120  1  0.79970000  0.96330000  0.53640000  1.0 0.1017193445
H  H121  1  0.78020000  0.75000000  0.38340000  1.0 0.1017193445
H  H122  1  0.81930000  0.81600000  0.30780000  1.0 0.1407471125
H  H123  1  0.69940000  0.94000000  0.25200000  1.0 0.1099342351
H  H124  1  0.69640000  0.91400000  0.31700000  1.0 0.1099342351
H  H125  1  0.70160000  0.07920000  0.42470000  1.0 0.1099342351
H  H126  1  0.59970000  0.13570000  0.46730000  1.0 0.1099342351
H  H127  1  0.45580000  0.13760000  0.45470000  1.0 0.1099342351
H  H128  1  0.33080000  0.08750000  0.38900000  1.0 0.1017193445
H  H129  1  0.30980000  0.99280000  0.27490000  1.0 0.1196778863
H  H130  1  0.41590000  0.94220000  0.22800000  1.0 0.1196778863
H  H131  1  0.55850000  0.93520000  0.24360000  1.0 0.1196778863
H  H132  1  0.13680000  0.53900000  0.62650000  1.0 0.0901636871
H  H133  1  0.23880000  0.65570000  0.69870000  1.0 0.1296943731
H  H134  1  0.32350000  0.69580000  0.53150000  1.0 0.1296943731
H  H135  1  0.21480000  0.58310000  0.46420000  1.0 0.1017193445
H  H136  1  0.34240000  0.81340000  0.68510000  1.0 0.1196778863
H  H137  1  0.40900000  0.77650000  0.64260000  1.0 0.1099342351
H  H138  1  0.45700000  0.69250000  0.75620000  1.0 0.1099342351
H  H139  1  0.39730000  0.63830000  0.68540000  1.0 0.1196778863
H  H140  1  0.59650000  0.79550000  0.75210000  1.0 0.1407471125
H  H141  1  0.70090000  0.82040000  0.68650000  1.0 0.1017193445
H  H142  1  0.55690000  0.65670000  0.51630000  1.0 0.1099342351
H  H143  1  0.44930000  0.62820000  0.57870000  1.0 0.1495750095
H  H144  1  0.46700000  0.82570000  0.81960000  1.0 0.1099342351
H  H145  1  0.47830000  0.86960000  0.76540000  1.0 0.1017193445
H  H146  1  0.28260000  0.77970000  0.80940000  1.0 0.1017193445
H  H147  1  0.18350000  0.84500000  0.86180000  1.0 0.1196778863
H  H148  1  0.14580000  0.96790000  0.90760000  1.0 0.1196778863
H  H149  1  0.18400000  0.10670000  0.94150000  1.0 0.1296943731
H  H150  1  0.31090000  0.18650000  0.93740000  1.0 0.1196778863
H  H151  1  0.41170000  0.11690000  0.88990000  1.0 0.1196778863
H  H152  1  0.45570000  0.99770000  0.84070000  1.0 0.1099342351
H  H153  1  0.30480000  0.45640000  0.48220000  1.0 0.1099342351
H  H154  1  0.40110000  0.49960000  0.41500000  1.0 0.1407471125
H  H155  1  0.25010000  0.31860000  0.24790000  1.0 0.1296943731
H  H156  1  0.16250000  0.27730000  0.31960000  1.0 0.1099342351
H  H157  1  0.42770000  0.39440000  0.26020000  1.0 0.1099342351
H  H158  1  0.43870000  0.49110000  0.30070000  1.0 0.1099342351
H  H159  1  0.30650000  0.52080000  0.27690000  1.0 0.1196778863
H  H160  1  0.38110000  0.55850000  0.24010000  1.0 0.1099342351
H  H161  1  0.18120000  0.40360000  0.17840000  1.0 0.1495750095
H  H162  1  0.09180000  0.39100000  0.09150000  1.0 0.1099342351
H  H163  1  0.24030000  0.58730000  0.07340000  1.0 0.1017193445
H  H164  1  0.33710000  0.60180000  0.15850000  1.0 0.1495750095
H  H165  1  0.38220000  0.43690000  0.12130000  1.0 0.1099342351
H  H166  1  0.46210000  0.46620000  0.17560000  1.0 0.1099342351
H  H167  1  0.53340000  0.36750000  0.11190000  1.0 0.1099342351
H  H168  1  0.53630000  0.23120000  0.06410000  1.0 0.0901636871
H  H169  1  0.47760000  0.07960000  0.02930000  1.0 0.1017193445
H  H170  1  0.37690000  0.97470000  0.05050000  1.0 0.0807378212
H  H171  1  0.25740000  0.99400000  0.09580000  1.0 0.1196778863
H  H172  1  0.23980000  0.12830000  0.13460000  1.0 0.1099342351
H  H173  1  0.29420000  0.27630000  0.13630000  1.0 0.1017193445
H  H174  1  0.39190000  0.04040000  0.05120000  1.0 0.0901636871
H  H175  1  0.50520000  0.04300000  0.00560000  1.0 0.0901636871
H  H176  1  0.60870000  0.14540000  0.02460000  1.0 0.1407471125
H  H177  1  0.60540000  0.27720000  0.07620000  1.0 0.1017193445
H  H178  1  0.30440000  0.13730000  0.09840000  1.0 0.0807378212
C  C1  1  0.95430000  0.68920000  0.41200000  1.0 0.0588532442
C  C2  1  0.00750000  0.71800000  0.37120000  1.0 -0.1888558069
C  C3  1  0.03660000  0.80150000  0.38500000  1.0 0.1495750095
C  C4  1  0.01100000  0.85200000  0.44180000  1.0 -0.2102478274
C  C5  1  0.96020000  0.82060000  0.48200000  1.0 0.0702724576
C  C6  1  0.09270000  0.83390000  0.33970000  1.0 -0.1888558069
C  C7  1  0.19840000  0.80120000  0.26750000  1.0 -0.1797289169
C  C8  1  0.14020000  0.73460000  0.20620000  1.0 0.1495750095
C  C9  1  0.10010000  0.65690000  0.20530000  1.0 -0.1888558069
C  C10  1  0.04380000  0.59880000  0.14940000  1.0 0.0702724576
C  C11  1  0.06810000  0.68850000  0.09410000  1.0 0.0901636871
C  C12  1  0.12300000  0.74930000  0.14860000  1.0 -0.1888558069
C  C13  1  0.22770000  0.85590000  0.39170000  1.0 -0.1797289169
C  C14  1  0.29480000  0.82040000  0.39350000  1.0 0.1017193445
C  C15  1  0.27390000  0.73780000  0.38930000  1.0 -0.1423930043
C  C16  1  0.33210000  0.70230000  0.39080000  1.0 -0.1581812223
C  C17  1  0.41750000  0.74590000  0.39540000  1.0 0.0588532442
C  C18  1  0.48080000  0.71060000  0.39720000  1.0 -0.1581812223
C  C19  1  0.56150000  0.75610000  0.40220000  1.0 -0.0985058486
C  C20  1  0.58350000  0.83800000  0.40810000  1.0 -0.105670376
C  C21  1  0.52390000  0.87470000  0.40720000  1.0 -0.1487634761
C  C22  1  0.44030000  0.82920000  0.40100000  1.0 0.0702724576
C  C23  1  0.37670000  0.86350000  0.39780000  1.0 -0.2213690302
C  C24  1  0.01480000  0.71750000  0.64900000  1.0 0.0807378212
C  C25  1  0.06570000  0.79690000  0.68930000  1.0 -0.1888558069
C  C26  1  0.12820000  0.83880000  0.66140000  1.0 0.1579875838
C  C27  1  0.13540000  0.79680000  0.59190000  1.0 -0.2102478274
C  C28  1  0.08180000  0.71760000  0.55480000  1.0 0.0702724576
C  C29  1  0.18840000  0.92270000  0.70450000  1.0 -0.1888558069
C  C30  1  0.15120000  0.02200000  0.67070000  1.0 -0.1888558069
C  C31  1  0.17060000  0.06740000  0.62290000  1.0 0.1579875838
C  C32  1  0.17540000  0.02580000  0.55450000  1.0 -0.2007343688
C  C33  1  0.19700000  0.06730000  0.51060000  1.0 0.0533245471
C  C34  1  0.20800000  0.19150000  0.59980000  1.0 0.0807378212
C  C35  1  0.18560000  0.15270000  0.64570000  1.0 -0.2102478274
C  C36  1  0.29530000  0.03850000  0.69700000  1.0 -0.1797289169
C  C37  1  0.36040000  0.99780000  0.67150000  1.0 0.1099342351
C  C38  1  0.34900000  0.93830000  0.60370000  1.0 -0.1487634761
C  C39  1  0.40990000  0.90550000  0.57810000  1.0 -0.1423930043
C  C40  1  0.48550000  0.93140000  0.61740000  1.0 0.0588532442
C  C41  1  0.55160000  0.90260000  0.59100000  1.0 -0.1581812223
C  C42  1  0.62530000  0.93170000  0.63030000  1.0 -0.0985058486
C  C43  1  0.63850000  0.98890000  0.69810000  1.0 -0.0985058486
C  C44  1  0.57540000  0.01870000  0.72570000  1.0 -0.1712626848
C  C45  1  0.49880000  0.99180000  0.68600000  1.0 0.0807378212
C  C46  1  0.43350000  0.02390000  0.71090000  1.0 -0.2102478274
C  C47  1  0.82540000  0.42790000  0.39310000  1.0 0.0901636871
C  C48  1  0.76380000  0.35890000  0.34970000  1.0 -0.1797289169
C  C49  1  0.70510000  0.31000000  0.37610000  1.0 0.1495750095
C  C50  1  0.71490000  0.33470000  0.44730000  1.0 -0.2102478274
C  C51  1  0.77940000  0.40290000  0.48740000  1.0 0.0702724576
C  C52  1  0.63740000  0.23500000  0.33050000  1.0 -0.1797289169
C  C53  1  0.56300000  0.30610000  0.28730000  1.0 -0.1888558069
C  C54  1  0.49020000  0.29010000  0.32710000  1.0 0.1495750095
C  C55  1  0.41340000  0.23350000  0.29660000  1.0 -0.2007343688
C  C56  1  0.35130000  0.21880000  0.33600000  1.0 0.0807378212
C  C57  1  0.43500000  0.31400000  0.43510000  1.0 0.0702724576
C  C58  1  0.49940000  0.33130000  0.39800000  1.0 -0.1888558069
C  C59  1  0.56290000  0.16490000  0.21530000  1.0 -0.1712626848
C  C60  1  0.62230000  0.11910000  0.18130000  1.0 0.0807378212
C  C61  1  0.70190000  0.16150000  0.17400000  1.0 -0.1888558069
C  C62  1  0.76340000  0.12330000  0.14320000  1.0 -0.1217637866
C  C63  1  0.74090000  0.04220000  0.12290000  1.0 0.0588532442
C  C64  1  0.79980000  0.00160000  0.09600000  1.0 -0.1423930043
C  C65  1  0.77610000  0.91980000  0.07600000  1.0 -0.0985058486
C  C66  1  0.70240000  0.87210000  0.07820000  1.0 -0.0985058486
C  C67  1  0.64240000  0.91340000  0.10570000  1.0 -0.1487634761
C  C68  1  0.66540000  0.99350000  0.12430000  1.0 0.0702724576
C  C69  1  0.59840000  0.03460000  0.15680000  1.0 -0.2374769716
C  C70  1  0.70540000  0.57310000  0.56640000  1.0 0.0807378212
C  C71  1  0.64800000  0.54580000  0.60620000  1.0 -0.2102478274
C  C72  1  0.66350000  0.58600000  0.67740000  1.0 0.1579875838
C  C73  1  0.73630000  0.65240000  0.70350000  1.0 -0.2007343688
C  C74  1  0.78860000  0.67660000  0.66080000  1.0 0.0807378212
C  C75  1  0.60220000  0.56450000  0.72450000  1.0 -0.1888558069
C  C76  1  0.66890000  0.48960000  0.76700000  1.0 -0.1712626848
C  C77  1  0.73050000  0.49740000  0.82300000  1.0 0.1407471125
C  C78  1  0.80380000  0.55790000  0.84340000  1.0 -0.1797289169
C  C79  1  0.85720000  0.56490000  0.89510000  1.0 0.0702724576
C  C80  1  0.77160000  0.45240000  0.90600000  1.0 0.0807378212
C  C81  1  0.71360000  0.44260000  0.85450000  1.0 -0.2102478274
C  C82  1  0.59410000  0.57430000  0.84170000  1.0 -0.1797289169
C  C83  1  0.58940000  0.66190000  0.87040000  1.0 0.1196778863
C  C84  1  0.51470000  0.67730000  0.89210000  1.0 -0.2213690302
C  C85  1  0.51290000  0.75900000  0.91920000  1.0 -0.0407296812
C  C86  1  0.57950000  0.82610000  0.92280000  1.0 -0.0784293036
C  C87  1  0.56860000  0.91020000  0.94830000  1.0 -0.0985058486
C  C88  1  0.63000000  0.97230000  0.93730000  1.0 -0.1295186898
C  C89  1  0.70160000  0.96080000  0.90900000  1.0 -0.1295186898
C  C90  1  0.71370000  0.88180000  0.88750000  1.0 -0.1797289169
C  C91  1  0.65040000  0.81710000  0.90120000  1.0 -0.0115715649
C  C92  1  0.65460000  0.73140000  0.87640000  1.0 -0.2374769716
C  C93  1  0.66970000  0.54860000  0.30170000  1.0 0.4668631347
C  C94  1  0.77200000  0.37500000  0.12400000  1.0 0.3026058318
C  C95  1  0.50160000  0.90500000  0.96810000  1.0 -0.1217637866
C  C96  1  0.44140000  0.84550000  0.96070000  1.0 -0.1581812223
C  C97  1  0.44300000  0.76900000  0.93310000  1.0 -0.1295186898
C  C98  1  0.04570000  0.31080000  0.58800000  1.0 0.0588532442
C  C99  1  0.99250000  0.28200000  0.62880000  1.0 -0.1888558069
C  C100  1  0.96340000  0.19850000  0.61500000  1.0 0.1495750095
C  C101  1  0.98900000  0.14800000  0.55820000  1.0 -0.2102478274
C  C102  1  0.03980000  0.17940000  0.51800000  1.0 0.0702724576
C  C103  1  0.90730000  0.16610000  0.66030000  1.0 -0.1888558069
C  C104  1  0.80160000  0.19880000  0.73250000  1.0 -0.1797289169
C  C105  1  0.85980000  0.26540000  0.79380000  1.0 0.1495750095
C  C106  1  0.89990000  0.34310000  0.79470000  1.0 -0.1888558069
C  C107  1  0.95620000  0.40120000  0.85060000  1.0 0.0702724576
C  C108  1  0.93190000  0.31150000  0.90590000  1.0 0.0901636871
C  C109  1  0.87700000  0.25070000  0.85140000  1.0 -0.1888558069
C  C110  1  0.77230000  0.14410000  0.60830000  1.0 -0.1797289169
C  C111  1  0.70520000  0.17960000  0.60650000  1.0 0.1017193445
C  C112  1  0.72610000  0.26220000  0.61070000  1.0 -0.1423930043
C  C113  1  0.66790000  0.29770000  0.60920000  1.0 -0.1581812223
C  C114  1  0.58250000  0.25410000  0.60460000  1.0 0.0588532442
C  C115  1  0.51920000  0.28940000  0.60280000  1.0 -0.1581812223
C  C116  1  0.43850000  0.24390000  0.59780000  1.0 -0.0985058486
C  C117  1  0.41650000  0.16200000  0.59190000  1.0 -0.105670376
C  C118  1  0.47610000  0.12530000  0.59280000  1.0 -0.1487634761
C  C119  1  0.55970000  0.17080000  0.59900000  1.0 0.0702724576
C  C120  1  0.62330000  0.13650000  0.60220000  1.0 -0.2213690302
C  C121  1  0.98520000  0.28250000  0.35100000  1.0 0.0807378212
C  C122  1  0.93430000  0.20310000  0.31070000  1.0 -0.1888558069
C  C123  1  0.87180000  0.16120000  0.33860000  1.0 0.1579875838
C  C124  1  0.86460000  0.20320000  0.40810000  1.0 -0.2102478274
C  C125  1  0.91820000  0.28240000  0.44520000  1.0 0.0702724576
C  C126  1  0.81160000  0.07730000  0.29550000  1.0 -0.1888558069
C  C127  1  0.84880000  0.97800000  0.32930000  1.0 -0.1888558069
C  C128  1  0.82940000  0.93260000  0.37710000  1.0 0.1579875838
C  C129  1  0.82460000  0.97420000  0.44550000  1.0 -0.2007343688
C  C130  1  0.80300000  0.93270000  0.48940000  1.0 0.0533245471
C  C131  1  0.79200000  0.80850000  0.40020000  1.0 0.0807378212
C  C132  1  0.81440000  0.84730000  0.35430000  1.0 -0.2102478274
C  C133  1  0.70470000  0.96150000  0.30300000  1.0 -0.1797289169
C  C134  1  0.63960000  0.00220000  0.32850000  1.0 0.1099342351
C  C135  1  0.65100000  0.06170000  0.39630000  1.0 -0.1487634761
C  C136  1  0.59010000  0.09450000  0.42190000  1.0 -0.1423930043
C  C137  1  0.51450000  0.06860000  0.38260000  1.0 0.0588532442
C  C138  1  0.44840000  0.09740000  0.40900000  1.0 -0.1581812223
C  C139  1  0.37470000  0.06830000  0.36970000  1.0 -0.0985058486
C  C140  1  0.36150000  0.01110000  0.30190000  1.0 -0.0985058486
C  C141  1  0.42460000  0.98130000  0.27430000  1.0 -0.1712626848
C  C142  1  0.50120000  0.00820000  0.31400000  1.0 0.0807378212
C  C143  1  0.56650000  0.97610000  0.28910000  1.0 -0.2102478274
C  C144  1  0.17460000  0.57210000  0.60690000  1.0 0.0901636871
C  C145  1  0.23620000  0.64110000  0.65030000  1.0 -0.1797289169
C  C146  1  0.29490000  0.69000000  0.62390000  1.0 0.1495750095
C  C147  1  0.28510000  0.66530000  0.55270000  1.0 -0.2102478274
C  C148  1  0.22060000  0.59710000  0.51260000  1.0 0.0702724576
C  C149  1  0.36260000  0.76500000  0.66950000  1.0 -0.1797289169
C  C150  1  0.43700000  0.69390000  0.71270000  1.0 -0.1888558069
C  C151  1  0.50980000  0.70990000  0.67290000  1.0 0.1495750095
C  C152  1  0.58660000  0.76650000  0.70340000  1.0 -0.2007343688
C  C153  1  0.64870000  0.78120000  0.66400000  1.0 0.0807378212
C  C154  1  0.56500000  0.68600000  0.56490000  1.0 0.0702724576
C  C155  1  0.50060000  0.66870000  0.60200000  1.0 -0.1888558069
C  C156  1  0.43710000  0.83510000  0.78470000  1.0 -0.1712626848
C  C157  1  0.37770000  0.88090000  0.81870000  1.0 0.0807378212
C  C158  1  0.29810000  0.83850000  0.82600000  1.0 -0.1888558069
C  C159  1  0.23660000  0.87670000  0.85680000  1.0 -0.1217637866
C  C160  1  0.25910000  0.95780000  0.87710000  1.0 0.0533245471
C  C161  1  0.20020000  0.99840000  0.90400000  1.0 -0.1423930043
C  C162  1  0.22390000  0.08020000  0.92400000  1.0 -0.0985058486
C  C163  1  0.29760000  0.12790000  0.92180000  1.0 -0.0985058486
C  C164  1  0.35760000  0.08660000  0.89430000  1.0 -0.1487634761
C  C165  1  0.33460000  0.00650000  0.87570000  1.0 0.0702724576
C  C166  1  0.40160000  0.96540000  0.84320000  1.0 -0.2491966047
C  C167  1  0.29460000  0.42690000  0.43360000  1.0 0.0807378212
C  C168  1  0.35200000  0.45420000  0.39380000  1.0 -0.2102478274
C  C169  1  0.33650000  0.41400000  0.32260000  1.0 0.1579875838
C  C170  1  0.26370000  0.34760000  0.29650000  1.0 -0.2007343688
C  C171  1  0.21140000  0.32340000  0.33920000  1.0 0.0807378212
C  C172  1  0.39780000  0.43550000  0.27550000  1.0 -0.1888558069
C  C173  1  0.33110000  0.51040000  0.23300000  1.0 -0.1712626848
C  C174  1  0.26950000  0.50260000  0.17700000  1.0 0.1407471125
C  C175  1  0.19620000  0.44210000  0.15660000  1.0 -0.1797289169
C  C176  1  0.14280000  0.43510000  0.10490000  1.0 0.0702724576
C  C177  1  0.22840000  0.54760000  0.09400000  1.0 0.0807378212
C  C178  1  0.28640000  0.55740000  0.14550000  1.0 -0.2102478274
C  C179  1  0.40590000  0.42570000  0.15830000  1.0 -0.1797289169
C  C180  1  0.41060000  0.33810000  0.12960000  1.0 0.1196778863
C  C181  1  0.48530000  0.32270000  0.10790000  1.0 -0.2213690302
C  C182  1  0.48710000  0.24100000  0.08080000  1.0 -0.0407296812
C  C183  1  0.42050000  0.17390000  0.07720000  1.0 -0.0784293036
C  C184  1  0.43140000  0.08980000  0.05170000  1.0 -0.0985058486
C  C185  1  0.37000000  0.02770000  0.06270000  1.0 -0.1295186898
C  C186  1  0.29840000  0.03920000  0.09100000  1.0 -0.1295186898
C  C187  1  0.28630000  0.11820000  0.11250000  1.0 -0.1797289169
C  C188  1  0.34960000  0.18290000  0.09880000  1.0 -0.0115715649
C  C189  1  0.34540000  0.26860000  0.12360000  1.0 -0.2374769716
C  C190  1  0.33030000  0.45140000  0.69830000  1.0 0.4668631347
C  C191  1  0.22800000  0.62500000  0.87600000  1.0 0.3026058318
C  C192  1  0.49840000  0.09500000  0.03190000  1.0 -0.1217637866
C  C193  1  0.55860000  0.15450000  0.03930000  1.0 -0.1581812223
C  C194  1  0.55700000  0.23100000  0.06690000  1.0 -0.1295186898
C  C195  1  0.99110000  0.45750000  0.27300000  1.0 0.4783385338
C  C196  1  0.08420000  0.02580000  0.24860000  1.0 0.4783385338
C  C197  1  0.00890000  0.54250000  0.72700000  1.0 0.4783385338
C  C198  1  0.91580000  0.97420000  0.75140000  1.0 0.4783385338
S  S1  1  0.65429000  0.56553000  0.38962000  1.0 0.9787726493
S  S2  1  0.83010000  0.36672000  0.05733000  1.0 0.5807563753
S  S3  1  0.34571000  0.43447000  0.61038000  1.0 0.9787726493
S  S4  1  0.16990000  0.63328000  0.94267000  1.0 0.5807563753
S  S5  1  0.07152000  0.50908000  0.34506000  1.0 0.9787726493
S  S6  1  0.11012000  0.06772000  0.34041000  1.0 0.9739262255
S  S7  1  0.92848000  0.49092000  0.65494000  1.0 0.9787726493
S  S8  1  0.88988000  0.93228000  0.65959000  1.0 0.9739262255
N  N1  1  0.93100000  0.73890000  0.46740000  1.0 -0.1888558069
N  N2  1  0.16520000  0.80470000  0.33230000  1.0 -0.0503399579
N  N3  1  0.02690000  0.61370000  0.09380000  1.0 -0.2491966047
N  N4  1  0.02180000  0.67720000  0.58270000  1.0 -0.2007343688
N  N5  1  0.21180000  0.97850000  0.66840000  1.0 -0.0784293036
N  N6  1  0.21360000  0.15090000  0.53340000  1.0 -0.2102478274
N  N7  1  0.83470000  0.45080000  0.46190000  1.0 -0.1888558069
N  N8  1  0.60720000  0.24450000  0.27040000  1.0 -0.0722754339
N  N9  1  0.36110000  0.25730000  0.40510000  1.0 -0.2007343688
N  N10  1  0.77300000  0.63750000  0.59190000  1.0 -0.2007343688
N  N11  1  0.64580000  0.56460000  0.78530000  1.0 -0.0722754339
N  N12  1  0.84130000  0.51340000  0.92730000  1.0 -0.1888558069
N  N13  1  0.06900000  0.26110000  0.53260000  1.0 -0.1888558069
N  N14  1  0.83480000  0.19530000  0.66770000  1.0 -0.0503399579
N  N15  1  0.97310000  0.38630000  0.90620000  1.0 -0.2491966047
N  N16  1  0.97820000  0.32280000  0.41730000  1.0 -0.2007343688
N  N17  1  0.78820000  0.02150000  0.33160000  1.0 -0.0784293036
N  N18  1  0.78640000  0.84910000  0.46660000  1.0 -0.2102478274
N  N19  1  0.16530000  0.54920000  0.53810000  1.0 -0.1888558069
N  N20  1  0.39280000  0.75550000  0.72960000  1.0 -0.0722754339
N  N21  1  0.63890000  0.74270000  0.59490000  1.0 -0.2007343688
N  N22  1  0.22700000  0.36250000  0.40810000  1.0 -0.2007343688
N  N23  1  0.35420000  0.43540000  0.21470000  1.0 -0.0722754339
N  N24  1  0.15870000  0.48660000  0.07270000  1.0 -0.1888558069
O  O1  1  0.71090000  0.64580000  0.42880000  1.0 -0.5808007527
O  O2  1  0.66950000  0.49890000  0.39900000  1.0 -0.5422144143
O  O3  1  0.57010000  0.56100000  0.39140000  1.0 -0.5556091277
O  O4  1  0.81390000  0.41600000  0.02760000  1.0 -0.1712626848
O  O5  1  0.79390000  0.27970000  0.02230000  1.0 -0.1888558069
O  O6  1  0.92280000  0.39070000  0.07710000  1.0 -0.2374769716
O  O7  1  0.76930000  0.33200000  0.99920000  1.0 -0.2007343688
O  O8  1  0.83700000  0.30100000  0.08200000  1.0 -0.1581812223
O  O9  1  0.88090000  0.44140000  0.07710000  1.0 -0.1423930043
O  O10  1  0.28910000  0.35420000  0.57120000  1.0 -0.5876829831
O  O11  1  0.33050000  0.50110000  0.60100000  1.0 -0.5422144143
O  O12  1  0.42990000  0.43900000  0.60860000  1.0 -0.5556091277
O  O13  1  0.18610000  0.58400000  0.97240000  1.0 -0.1712626848
O  O14  1  0.20610000  0.72030000  0.97770000  1.0 -0.1797289169
O  O15  1  0.07720000  0.60930000  0.92290000  1.0 -0.2374769716
O  O16  1  0.23070000  0.66800000  0.00080000  1.0 -0.2102478274
O  O17  1  0.16300000  0.69900000  0.91800000  1.0 -0.1581812223
O  O18  1  0.11910000  0.55860000  0.92290000  1.0 -0.1423930043
O  O19  1  0.02580000  0.52720000  0.40380000  1.0 -0.6044011919
O  O20  1  0.11160000  0.44800000  0.33910000  1.0 -0.5876829831
O  O21  1  0.11990000  0.57890000  0.33170000  1.0 -0.5696453659
O  O22  1  0.11660000  0.15240000  0.36130000  1.0 -0.5696453659
O  O23  1  0.18760000  0.05490000  0.34750000  1.0 -0.5808007527
O  O24  1  0.04620000  0.02000000  0.36580000  1.0 -0.5542931168
O  O25  1  0.97420000  0.47280000  0.59620000  1.0 -0.6044011919
O  O26  1  0.88840000  0.55200000  0.66090000  1.0 -0.5876829831
O  O27  1  0.88010000  0.42110000  0.66830000  1.0 -0.5696453659
O  O28  1  0.88340000  0.84760000  0.63870000  1.0 -0.5696453659
O  O29  1  0.81240000  0.94510000  0.65250000  1.0 -0.5808007527
O  O30  1  0.95380000  0.98000000  0.63420000  1.0 -0.5542931168
F  F1  1  0.65780000  0.60780000  0.28530000  1.0 -0.1712626848
F  F2  1  0.74460000  0.55450000  0.29160000  1.0 -0.1581812223
F  F3  1  0.62230000  0.47890000  0.25660000  1.0 -0.1797289169
F  F4  1  0.69710000  0.32800000  0.11510000  1.0 -0.0784293036
F  F5  1  0.80790000  0.36150000  0.17470000  1.0 -0.0636489002
F  F6  1  0.81970000  0.46060000  0.17240000  1.0 -0.0115715649
F  F7  1  0.71900000  0.42200000  0.13170000  1.0 0.0134452477
F  F8  1  0.34220000  0.39220000  0.71470000  1.0 -0.1712626848
F  F9  1  0.25540000  0.44550000  0.70840000  1.0 -0.1581812223
F  F10  1  0.37770000  0.52110000  0.74340000  1.0 -0.1797289169
F  F11  1  0.30290000  0.67200000  0.88490000  1.0 -0.0784293036
F  F12  1  0.19210000  0.63850000  0.82530000  1.0 -0.0636489002
F  F13  1  0.18030000  0.53940000  0.82760000  1.0 -0.0115715649
F  F14  1  0.28100000  0.57800000  0.86830000  1.0 0.0134452477
F  F15  1  0.02000000  0.43980000  0.21290000  1.0 -0.1712626848
F  F16  1  0.94450000  0.50530000  0.27510000  1.0 -0.1888558069
F  F17  1  0.94060000  0.38580000  0.27340000  1.0 -0.1888558069
F  F18  1  0.13800000  0.06370000  0.21830000  1.0 -0.1888558069
F  F19  1  0.01170000  0.03070000  0.23160000  1.0 -0.2007343688
F  F20  1  0.07880000  0.94730000  0.22140000  1.0 -0.1888558069
F  F21  1  0.98000000  0.56020000  0.78710000  1.0 -0.1712626848
F  F22  1  0.05550000  0.49470000  0.72490000  1.0 -0.1888558069
F  F23  1  0.05940000  0.61420000  0.72660000  1.0 -0.1888558069
F  F24  1  0.86200000  0.93630000  0.78170000  1.0 -0.1888558069
F  F25  1  0.98830000  0.96930000  0.76840000  1.0 -0.2007343688
F  F26  1  0.92120000  0.05270000  0.77860000  1.0 -0.1888558069
