# DDEC6 charges by PACMAN v1.1 (https://github.com/mtap-research/PACMAN-charge/)
data_QUNWAZ_ASR_pacman
_symmetry_space_group_name_H-M   'P 1'
_cell_length_a   17.24710000
_cell_length_b   18.93200000
_cell_length_c   21.34000000
_cell_angle_alpha   88.58800000
_cell_angle_beta   106.56900000
_cell_angle_gamma   113.24100000
_symmetry_Int_Tables_number   1
_chemical_formula_structural   Zn5H128C228(N3O11)2
_chemical_formula_sum   'Zn5 H128 C228 N6 O22'
_cell_volume   6106.06693281
_cell_formula_units_Z   1
loop_
 _symmetry_equiv_pos_site_id
 _symmetry_equiv_pos_as_xyz
  1  'x, y, z'
loop_
 _atom_site_type_symbol
 _atom_site_label
 _atom_site_symmetry_multiplicity
 _atom_site_fract_x
 _atom_site_fract_y
 _atom_site_fract_z
 _atom_site_occupancy
 _atom_site_charge
Zn  Zn1  1  0.50000000  0.00000000  0.50000000  1.0 1.0171196702
Zn  Zn2  1  0.41288000  0.03597000  0.60723000  1.0 0.8246315959
Zn  Zn3  1  0.58712000  0.96403000  0.39277000  1.0 0.8246315959
Zn  Zn4  1  0.98277000  0.01527000  0.05891000  1.0 0.7849012854
Zn  Zn5  1  0.01723000  0.98473000  0.94109000  1.0 0.7853836062
H  H1  1  0.29790000  0.18350000  0.49880000  1.0 0.119283515
H  H2  1  0.70210000  0.81650000  0.50120000  1.0 0.119283515
H  H3  1  0.43550000  0.16200000  0.38210000  1.0 0.1278892792
H  H4  1  0.56450000  0.83800000  0.61790000  1.0 0.1278892792
H  H5  1  0.26970000  0.27670000  0.43400000  1.0 0.119283515
H  H6  1  0.73030000  0.72330000  0.56600000  1.0 0.119283515
H  H7  1  0.39180000  0.24580000  0.31310000  1.0 0.119283515
H  H8  1  0.60820000  0.75420000  0.68690000  1.0 0.119283515
H  H9  1  0.30180000  0.37490000  0.18080000  1.0 0.119283515
H  H10  1  0.69820000  0.62510000  0.81920000  1.0 0.119283515
H  H11  1  0.26060000  0.43390000  0.40180000  1.0 0.111957072
H  H12  1  0.73940000  0.56610000  0.59820000  1.0 0.111957072
H  H13  1  0.22900000  0.56890000  0.09320000  1.0 0.111957072
H  H14  1  0.77100000  0.43110000  0.90680000  1.0 0.111957072
H  H15  1  0.18220000  0.62870000  0.31530000  1.0 0.111957072
H  H16  1  0.81780000  0.37130000  0.68470000  1.0 0.111957072
H  H17  1  0.45960000  0.44160000  0.16780000  1.0 0.119283515
H  H18  1  0.54040000  0.55840000  0.83220000  1.0 0.119283515
H  H19  1  0.17140000  0.27520000  0.09150000  1.0 0.119283515
H  H20  1  0.82860000  0.72480000  0.90850000  1.0 0.119283515
H  H21  1  0.40160000  0.53740000  0.49060000  1.0 0.111957072
H  H22  1  0.59840000  0.46260000  0.50940000  1.0 0.111957072
H  H23  1  0.11740000  0.36850000  0.43150000  1.0 0.119283515
H  H24  1  0.88260000  0.63150000  0.56850000  1.0 0.119283515
H  H25  1  0.38190000  0.64340000  0.07610000  1.0 0.119283515
H  H26  1  0.61810000  0.35660000  0.92390000  1.0 0.119283515
H  H27  1  0.55400000  0.54300000  0.12640000  1.0 0.111957072
H  H28  1  0.44600000  0.45700000  0.87360000  1.0 0.111957072
H  H29  1  0.09580000  0.47490000  0.00260000  1.0 0.119283515
H  H30  1  0.90420000  0.52510000  0.99740000  1.0 0.119283515
H  H31  1  0.04080000  0.24420000  0.00410000  1.0 0.111957072
H  H32  1  0.95920000  0.75580000  0.99590000  1.0 0.111957072
H  H33  1  0.32300000  0.73260000  0.39740000  1.0 0.119283515
H  H34  1  0.67700000  0.26740000  0.60260000  1.0 0.119283515
H  H35  1  0.48650000  0.66610000  0.53290000  1.0 0.111957072
H  H36  1  0.51350000  0.33390000  0.46710000  1.0 0.111957072
H  H37  1  0.03460000  0.56760000  0.33970000  1.0 0.111957072
H  H38  1  0.96540000  0.43240000  0.66030000  1.0 0.111957072
H  H39  1  0.98210000  0.36940000  0.43340000  1.0 0.119283515
H  H40  1  0.01790000  0.63060000  0.56660000  1.0 0.119283515
H  H41  1  0.51380000  0.63720000  0.07170000  1.0 0.119283515
H  H42  1  0.48620000  0.36280000  0.92830000  1.0 0.119283515
H  H43  1  0.00730000  0.34640000  0.96190000  1.0 0.1030959598
H  H44  1  0.99270000  0.65360000  0.03810000  1.0 0.1030959598
H  H45  1  0.44390000  0.76290000  0.49150000  1.0 0.119283515
H  H46  1  0.55610000  0.23710000  0.50850000  1.0 0.119283515
H  H47  1  0.94800000  0.46920000  0.38840000  1.0 0.111957072
H  H48  1  0.05200000  0.53080000  0.61160000  1.0 0.111957072
H  H49  1  0.10290000  0.74830000  0.21720000  1.0 0.119283515
H  H50  1  0.89710000  0.25170000  0.78280000  1.0 0.119283515
H  H51  1  0.21170000  0.75190000  0.07210000  1.0 0.1278892792
H  H52  1  0.78830000  0.24810000  0.92790000  1.0 0.1278892792
H  H53  1  0.06410000  0.84640000  0.17160000  1.0 0.119283515
H  H54  1  0.93590000  0.15360000  0.82840000  1.0 0.119283515
H  H55  1  0.15530000  0.83750000  0.02120000  1.0 0.119283515
H  H56  1  0.84470000  0.16250000  0.97880000  1.0 0.119283515
H  H57  1  0.96430000  0.94890000  0.18430000  1.0 0.119283515
H  H58  1  0.03570000  0.05110000  0.81570000  1.0 0.119283515
H  H59  1  0.87660000  0.10010000  0.08660000  1.0 0.119283515
H  H60  1  0.12340000  0.89990000  0.91340000  1.0 0.119283515
H  H61  1  0.88360000  0.93550000  0.25700000  1.0 0.1278892792
H  H62  1  0.11640000  0.06450000  0.74300000  1.0 0.1278892792
H  H63  1  0.78800000  0.08190000  0.15600000  1.0 0.1278892792
H  H64  1  0.21200000  0.91810000  0.84400000  1.0 0.1278892792
H  H65  1  0.28600000  0.14280000  0.99840000  1.0 0.1278892792
H  H66  1  0.71400000  0.85720000  0.00160000  1.0 0.1278892792
H  H67  1  0.24720000  0.19000000  0.16920000  1.0 0.1278892792
H  H68  1  0.75280000  0.81000000  0.83080000  1.0 0.1278892792
H  H69  1  0.43360000  0.23760000  0.03490000  1.0 0.1278892792
H  H70  1  0.56640000  0.76240000  0.96510000  1.0 0.1278892792
H  H71  1  0.39330000  0.28190000  0.20450000  1.0 0.111957072
H  H72  1  0.60670000  0.71810000  0.79550000  1.0 0.111957072
H  H73  1  0.86050000  0.99690000  0.34160000  1.0 0.1278892792
H  H74  1  0.13950000  0.00310000  0.65840000  1.0 0.1278892792
H  H75  1  0.66560000  0.99530000  0.18440000  1.0 0.1278892792
H  H76  1  0.33440000  0.00470000  0.81560000  1.0 0.1278892792
H  H77  1  0.76710000  0.97990000  0.40710000  1.0 0.119283515
H  H78  1  0.23290000  0.02010000  0.59290000  1.0 0.119283515
H  H79  1  0.57060000  0.98130000  0.24830000  1.0 0.119283515
H  H80  1  0.42940000  0.01870000  0.75170000  1.0 0.119283515
H  H81  1  0.56420000  0.37060000  0.29420000  1.0 0.111957072
H  H82  1  0.43580000  0.62940000  0.70580000  1.0 0.111957072
H  H83  1  0.67180000  0.43370000  0.08560000  1.0 0.111957072
H  H84  1  0.32820000  0.56630000  0.91440000  1.0 0.111957072
H  H85  1  0.82030000  0.55830000  0.41550000  1.0 0.119283515
H  H86  1  0.17970000  0.44170000  0.58450000  1.0 0.119283515
H  H87  1  0.92810000  0.62830000  0.21070000  1.0 0.111957072
H  H88  1  0.07190000  0.37170000  0.78930000  1.0 0.111957072
H  H89  1  0.47260000  0.42920000  0.32810000  1.0 0.119283515
H  H90  1  0.52740000  0.57080000  0.67190000  1.0 0.119283515
H  H91  1  0.59870000  0.26320000  0.35370000  1.0 0.119283515
H  H92  1  0.40130000  0.73680000  0.64630000  1.0 0.119283515
H  H93  1  0.63360000  0.53860000  0.01280000  1.0 0.119283515
H  H94  1  0.36640000  0.46140000  0.98720000  1.0 0.119283515
H  H95  1  0.76000000  0.36240000  0.05560000  1.0 0.119283515
H  H96  1  0.24000000  0.63760000  0.94440000  1.0 0.119283515
H  H97  1  0.73290000  0.62830000  0.45390000  1.0 0.119283515
H  H98  1  0.26710000  0.37170000  0.54610000  1.0 0.119283515
H  H99  1  0.46850000  0.52810000  0.38700000  1.0 0.111957072
H  H100  1  0.53150000  0.47190000  0.61300000  1.0 0.111957072
H  H101  1  0.85860000  0.45220000  0.48390000  1.0 0.111957072
H  H102  1  0.14140000  0.54780000  0.51610000  1.0 0.111957072
H  H103  1  0.69940000  0.22800000  0.43290000  1.0 0.111957072
H  H104  1  0.30060000  0.77200000  0.56710000  1.0 0.111957072
H  H105  1  0.89200000  0.73440000  0.14710000  1.0 0.119283515
H  H106  1  0.10800000  0.26560000  0.85290000  1.0 0.119283515
H  H107  1  0.66870000  0.66610000  0.99200000  1.0 0.111957072
H  H108  1  0.33130000  0.33390000  0.00800000  1.0 0.111957072
H  H109  1  0.01860000  0.56130000  0.17890000  1.0 0.111957072
H  H110  1  0.98140000  0.43870000  0.82110000  1.0 0.111957072
H  H111  1  0.89580000  0.35850000  0.06380000  1.0 0.119283515
H  H112  1  0.10420000  0.64150000  0.93620000  1.0 0.119283515
H  H113  1  0.59580000  0.63000000  0.44860000  1.0 0.119283515
H  H114  1  0.40420000  0.37000000  0.55140000  1.0 0.119283515
H  H115  1  0.82630000  0.32290000  0.50200000  1.0 0.1030959598
H  H116  1  0.17370000  0.67710000  0.49800000  1.0 0.1030959598
H  H117  1  0.79350000  0.76300000  0.05930000  1.0 0.111957072
H  H118  1  0.20650000  0.23700000  0.94070000  1.0 0.111957072
H  H119  1  0.02590000  0.46190000  0.12170000  1.0 0.111957072
H  H120  1  0.97410000  0.53810000  0.87830000  1.0 0.111957072
H  H121  1  0.11120000  0.73560000  0.32510000  1.0 0.111957072
H  H122  1  0.88880000  0.26440000  0.67490000  1.0 0.111957072
H  H123  1  0.02050000  0.75200000  0.47380000  1.0 0.1278892792
H  H124  1  0.97950000  0.24800000  0.52620000  1.0 0.1278892792
H  H125  1  0.25190000  0.82490000  0.38430000  1.0 0.1278892792
H  H126  1  0.74810000  0.17510000  0.61570000  1.0 0.1278892792
H  H127  1  0.15580000  0.85160000  0.52770000  1.0 0.119283515
H  H128  1  0.84420000  0.14840000  0.47230000  1.0 0.119283515
C  C1  1  0.40150000  0.11270000  0.49220000  1.0 0.6044945362
C  C2  1  0.59850000  0.88730000  0.50780000  1.0 0.6044945362
C  C3  1  0.37120000  0.16510000  0.44620000  1.0 -0.0253097509
C  C4  1  0.62880000  0.83490000  0.55380000  1.0 -0.0253097509
C  C5  1  0.31860000  0.19760000  0.46230000  1.0 -0.0996374673
C  C6  1  0.68140000  0.80240000  0.53770000  1.0 -0.0996374673
C  C7  1  0.39970000  0.18390000  0.39120000  1.0 -0.0805291615
C  C8  1  0.60030000  0.81610000  0.60880000  1.0 -0.0805291615
C  C9  1  0.29940000  0.25080000  0.42160000  1.0 -0.1601363465
C  C10  1  0.70060000  0.74920000  0.57840000  1.0 -0.1601363465
C  C11  1  0.37280000  0.23390000  0.35030000  1.0 -0.1601363465
C  C12  1  0.62720000  0.76610000  0.64970000  1.0 -0.1601363465
C  C13  1  0.32060000  0.26870000  0.36370000  1.0 0.1407355808
C  C14  1  0.67940000  0.73130000  0.63630000  1.0 0.1407355808
C  C15  1  0.29910000  0.32590000  0.32940000  1.0 -0.1184405243
C  C16  1  0.70090000  0.67410000  0.67060000  1.0 -0.1184405243
C  C17  1  0.28430000  0.38000000  0.30160000  1.0 -0.0906962122
C  C18  1  0.71570000  0.62000000  0.69840000  1.0 -0.0906962122
C  C19  1  0.26820000  0.44080000  0.27490000  1.0 0.059483353
C  C20  1  0.73180000  0.55920000  0.72510000  1.0 0.059483353
C  C21  1  0.26970000  0.45990000  0.21160000  1.0 -0.0091281664
C  C22  1  0.73030000  0.54010000  0.78840000  1.0 -0.0091281664
C  C23  1  0.24320000  0.48410000  0.31180000  1.0 0.0108030487
C  C24  1  0.75680000  0.51590000  0.68820000  1.0 0.0108030487
C  C25  1  0.28620000  0.41730000  0.16210000  1.0 -0.0996374673
C  C26  1  0.71380000  0.58270000  0.83790000  1.0 -0.0996374673
C  C27  1  0.24290000  0.51740000  0.18490000  1.0 0.0108030487
C  C28  1  0.75710000  0.48260000  0.81510000  1.0 0.0108030487
C  C29  1  0.24430000  0.47630000  0.38410000  1.0 -0.0906962122
C  C30  1  0.75570000  0.52370000  0.61590000  1.0 -0.0906962122
C  C31  1  0.21950000  0.54330000  0.28590000  1.0 -0.0020277361
C  C32  1  0.78050000  0.45670000  0.71410000  1.0 -0.0020277361
C  C33  1  0.35930000  0.47890000  0.14220000  1.0 0.0419809804
C  C34  1  0.64070000  0.52110000  0.85780000  1.0 0.0419809804
C  C35  1  0.20450000  0.38970000  0.10370000  1.0 0.0484051576
C  C36  1  0.79550000  0.61030000  0.89630000  1.0 0.0484051576
C  C37  1  0.24400000  0.52610000  0.11180000  1.0 -0.0906962122
C  C38  1  0.75600000  0.47390000  0.88820000  1.0 -0.0906962122
C  C39  1  0.21840000  0.56120000  0.22190000  1.0 0.0484051576
C  C40  1  0.78160000  0.43880000  0.77810000  1.0 0.0484051576
C  C41  1  0.30780000  0.55760000  0.41870000  1.0 0.0484051576
C  C42  1  0.69220000  0.44240000  0.58130000  1.0 0.0484051576
C  C43  1  0.15590000  0.46890000  0.38750000  1.0 0.0419809804
C  C44  1  0.84410000  0.53110000  0.61250000  1.0 0.0419809804
C  C45  1  0.19970000  0.58750000  0.33420000  1.0 -0.0996374673
C  C46  1  0.80030000  0.41250000  0.66580000  1.0 -0.0996374673
C  C47  1  0.33950000  0.54060000  0.11550000  1.0 0.0484051576
C  C48  1  0.66050000  0.45940000  0.88450000  1.0 0.0484051576
C  C49  1  0.44330000  0.48050000  0.14880000  1.0 -0.1601363465
C  C50  1  0.55670000  0.51950000  0.85120000  1.0 -0.1601363465
C  C51  1  0.18430000  0.45040000  0.07590000  1.0 0.0484051576
C  C52  1  0.81570000  0.54960000  0.92410000  1.0 0.0419809804
C  C53  1  0.15520000  0.31460000  0.07360000  1.0 -0.1374446658
C  C54  1  0.84480000  0.68540000  0.92640000  1.0 -0.1374446658
C  C55  1  0.20090000  0.62440000  0.19660000  1.0 -0.0906962122
C  C56  1  0.79910000  0.37560000  0.80340000  1.0 -0.0906962122
C  C57  1  0.28370000  0.61660000  0.39230000  1.0 0.0419809804
C  C58  1  0.71630000  0.38340000  0.60770000  1.0 0.0419809804
C  C59  1  0.38350000  0.57590000  0.47300000  1.0 -0.1497992839
C  C60  1  0.61650000  0.42410000  0.52700000  1.0 -0.1497992839
C  C61  1  0.13320000  0.52790000  0.35930000  1.0 0.0419809804
C  C62  1  0.86680000  0.47210000  0.64070000  1.0 0.0419809804
C  C63  1  0.10030000  0.40740000  0.41310000  1.0 -0.1601363465
C  C64  1  0.89970000  0.59260000  0.58690000  1.0 -0.1601363465
C  C65  1  0.39580000  0.60190000  0.09080000  1.0 -0.1601363465
C  C66  1  0.60420000  0.39810000  0.90920000  1.0 -0.1601363465
C  C67  1  0.49800000  0.54120000  0.12250000  1.0 -0.0996374673
C  C68  1  0.50200000  0.45880000  0.87750000  1.0 -0.0996374673
C  C69  1  0.10930000  0.43490000  0.02160000  1.0 -0.1601363465
C  C70  1  0.89070000  0.56510000  0.97840000  1.0 -0.1601363465
C  C71  1  0.07660000  0.29490000  0.02220000  1.0 -0.0996374673
C  C72  1  0.92340000  0.70510000  0.97780000  1.0 -0.0996374673
C  C73  1  0.18450000  0.67860000  0.17420000  1.0 -0.1184405243
C  C74  1  0.81550000  0.32140000  0.82580000  1.0 -0.1111857102
C  C75  1  0.33760000  0.69300000  0.41730000  1.0 -0.1324219463
C  C76  1  0.66240000  0.30700000  0.58270000  1.0 -0.1324219463
C  C77  1  0.43510000  0.65300000  0.49750000  1.0 -0.0996374673
C  C78  1  0.56490000  0.34700000  0.50250000  1.0 -0.0996374673
C  C79  1  0.05220000  0.52910000  0.35860000  1.0 -0.1601363465
C  C80  1  0.94780000  0.47090000  0.64140000  1.0 -0.1601363465
C  C81  1  0.02050000  0.40800000  0.41550000  1.0 -0.1184405243
C  C82  1  0.97950000  0.59200000  0.58450000  1.0 -0.1184405243
C  C83  1  0.47680000  0.60020000  0.09160000  1.0 -0.1184405243
C  C84  1  0.52320000  0.39980000  0.90840000  1.0 -0.1184405243
C  C85  1  0.05730000  0.35720000  0.99780000  1.0 -0.0996374673
C  C86  1  0.94270000  0.64280000  0.00220000  1.0 -0.1111857102
C  C87  1  0.15720000  0.73530000  0.14680000  1.0 0.1407355808
C  C88  1  0.84280000  0.26470000  0.85320000  1.0 0.1407355808
C  C89  1  0.41000000  0.71180000  0.47280000  1.0 -0.0906962122
C  C90  1  0.59000000  0.28820000  0.52720000  1.0 -0.0906962122
C  C91  1  0.00080000  0.46820000  0.38660000  1.0 -0.0996374673
C  C92  1  0.99920000  0.53180000  0.61340000  1.0 -0.0996374673
C  C93  1  0.11430000  0.76620000  0.17840000  1.0 -0.1601363465
C  C94  1  0.88570000  0.23380000  0.82160000  1.0 -0.1601363465
C  C95  1  0.17730000  0.76670000  0.09070000  1.0 -0.1497992839
C  C96  1  0.82270000  0.23330000  0.90930000  1.0 -0.1497992839
C  C97  1  0.08970000  0.82440000  0.14920000  1.0 -0.0996374673
C  C98  1  0.91030000  0.17560000  0.85080000  1.0 -0.0996374673
C  C99  1  0.14530000  0.82010000  0.06070000  1.0 -0.1111857102
C  C100  1  0.85470000  0.17990000  0.93930000  1.0 -0.1111857102
C  C101  1  0.09910000  0.84940000  0.08930000  1.0 -0.0226578341
C  C102  1  0.90090000  0.15060000  0.91070000  1.0 -0.0226578341
C  C103  1  0.06080000  0.90490000  0.05630000  1.0 0.5569516661
C  C104  1  0.93920000  0.09510000  0.94370000  1.0 0.5569516661
C  C105  1  0.92900000  0.97660000  0.17960000  1.0 0.0705236568
C  C106  1  0.07100000  0.02340000  0.82040000  1.0 0.0705236568
C  C107  1  0.87710000  0.06620000  0.11920000  1.0 0.0809910259
C  C108  1  0.12290000  0.93380000  0.88080000  1.0 0.0809910259
C  C109  1  0.15620000  0.10750000  0.05180000  1.0 0.5528836491
C  C110  1  0.84380000  0.89250000  0.94820000  1.0 0.5528836491
C  C111  1  0.88060000  0.96820000  0.22360000  1.0 -0.197107481
C  C112  1  0.11940000  0.03180000  0.77640000  1.0 -0.197107481
C  C113  1  0.82580000  0.05630000  0.16250000  1.0 -0.197107481
C  C114  1  0.17420000  0.94370000  0.83750000  1.0 -0.197107481
C  C115  1  0.25280000  0.16090000  0.07900000  1.0 -0.0091281664
C  C116  1  0.74720000  0.83910000  0.92100000  1.0 -0.0091281664
C  C117  1  0.82840000  0.01060000  0.21460000  1.0 0.0907215698
C  C118  1  0.17160000  0.98940000  0.78540000  1.0 0.0907215698
C  C119  1  0.30730000  0.17340000  0.03870000  1.0 -0.1184405243
C  C120  1  0.69270000  0.82660000  0.96130000  1.0 -0.1184405243
C  C121  1  0.28360000  0.20050000  0.14190000  1.0 -0.1184405243
C  C122  1  0.71640000  0.79950000  0.85810000  1.0 -0.1184405243
C  C123  1  0.77400000  0.00060000  0.25640000  1.0 0.0907215698
C  C124  1  0.22600000  0.99940000  0.74360000  1.0 0.0907215698
C  C125  1  0.39630000  0.22670000  0.06170000  1.0 -0.1497992839
C  C126  1  0.60370000  0.77330000  0.93830000  1.0 -0.1497992839
C  C127  1  0.37200000  0.25320000  0.16380000  1.0 -0.1497992839
C  C128  1  0.62800000  0.74680000  0.83620000  1.0 -0.1497992839
C  C129  1  0.80330000  0.99460000  0.32300000  1.0 -0.1872087178
C  C130  1  0.19670000  0.00540000  0.67700000  1.0 -0.1872087178
C  C131  1  0.68600000  0.99280000  0.22960000  1.0 -0.1779635605
C  C132  1  0.31400000  0.00720000  0.77040000  1.0 -0.1779635605
C  C133  1  0.42780000  0.26510000  0.12480000  1.0 0.1407355808
C  C134  1  0.57220000  0.73490000  0.87520000  1.0 0.1407355808
C  C135  1  0.74700000  0.98320000  0.36170000  1.0 0.0809910259
C  C136  1  0.25300000  0.01680000  0.63830000  1.0 0.0809910259
C  C137  1  0.62750000  0.98260000  0.26600000  1.0 0.0705236568
C  C138  1  0.37250000  0.01740000  0.73400000  1.0 0.0705236568
C  C139  1  0.51460000  0.32250000  0.14930000  1.0 -0.1111857102
C  C140  1  0.48540000  0.67750000  0.85070000  1.0 -0.1111857102
C  C141  1  0.58690000  0.37740000  0.17790000  1.0 -0.0996374673
C  C142  1  0.41310000  0.62260000  0.82210000  1.0 -0.0996374673
C  C143  1  0.66530000  0.44030000  0.21150000  1.0 0.059483353
C  C144  1  0.33470000  0.55970000  0.78850000  1.0 0.059483353
C  C145  1  0.68330000  0.45390000  0.27940000  1.0 0.0108030487
C  C146  1  0.31670000  0.54610000  0.72060000  1.0 0.0108030487
C  C147  1  0.73160000  0.48400000  0.18400000  1.0 -0.0020277361
C  C148  1  0.26840000  0.51600000  0.81600000  1.0 -0.0020277361
C  C149  1  0.62000000  0.41180000  0.32060000  1.0 -0.0906962122
C  C150  1  0.38000000  0.58820000  0.67940000  1.0 -0.0906962122
C  C151  1  0.75990000  0.51440000  0.31740000  1.0 -0.0091281664
C  C152  1  0.24010000  0.48560000  0.68260000  1.0 -0.0091281664
C  C153  1  0.72650000  0.47400000  0.11290000  1.0 -0.0906962122
C  C154  1  0.27350000  0.52600000  0.88710000  1.0 -0.0906962122
C  C155  1  0.81000000  0.54300000  0.22270000  1.0 -0.0020277361
C  C156  1  0.19000000  0.45700000  0.77730000  1.0 -0.0020277361
C  C157  1  0.60700000  0.46840000  0.35500000  1.0 0.0419809804
C  C158  1  0.39300000  0.53160000  0.64500000  1.0 0.0419809804
C  C159  1  0.67470000  0.37920000  0.37310000  1.0 0.0419809804
C  C160  1  0.32530000  0.62080000  0.62690000  1.0 0.0419809804
C  C161  1  0.76470000  0.51710000  0.38880000  1.0 -0.0996374673
C  C162  1  0.23530000  0.48290000  0.61120000  1.0 -0.0996374673
C  C163  1  0.82530000  0.55950000  0.28940000  1.0 0.0419809804
C  C164  1  0.17470000  0.44050000  0.71060000  1.0 0.0419809804
C  C165  1  0.74200000  0.56000000  0.09210000  1.0 0.0484051576
C  C166  1  0.25800000  0.44000000  0.90790000  1.0 0.0484051576
C  C167  1  0.80750000  0.46360000  0.11160000  1.0 0.0419809804
C  C168  1  0.19250000  0.53640000  0.88840000  1.0 0.0419809804
C  C169  1  0.87210000  0.58760000  0.18380000  1.0 -0.0996374673
C  C170  1  0.12790000  0.41240000  0.81620000  1.0 -0.0996374673
C  C171  1  0.68330000  0.53050000  0.39160000  1.0 0.0484051576
C  C172  1  0.31670000  0.46950000  0.60840000  1.0 0.0484051576
C  C173  1  0.52510000  0.46890000  0.35280000  1.0 -0.1497992839
C  C174  1  0.47490000  0.53110000  0.64720000  1.0 -0.1497992839
C  C175  1  0.75260000  0.43960000  0.40880000  1.0 0.0419809804
C  C176  1  0.24740000  0.56040000  0.59120000  1.0 0.0419809804
C  C177  1  0.65200000  0.30040000  0.37940000  1.0 -0.1497992839
C  C178  1  0.34800000  0.69960000  0.62060000  1.0 -0.1497992839
C  C179  1  0.90530000  0.62100000  0.32890000  1.0 -0.0805291615
C  C180  1  0.09470000  0.37900000  0.67110000  1.0 -0.0805291615
C  C181  1  0.81960000  0.61830000  0.13140000  1.0 0.0419809804
C  C182  1  0.18040000  0.38170000  0.86860000  1.0 0.0419809804
C  C183  1  0.68390000  0.57720000  0.03970000  1.0 -0.1497992839
C  C184  1  0.31610000  0.42280000  0.96030000  1.0 -0.1497992839
C  C185  1  0.88530000  0.52430000  0.14860000  1.0 0.0484051576
C  C186  1  0.11470000  0.47570000  0.85140000  1.0 0.0484051576
C  C187  1  0.81250000  0.40130000  0.08160000  1.0 -0.1601363465
C  C188  1  0.18750000  0.59870000  0.91840000  1.0 -0.1601363465
C  C189  1  0.68060000  0.58960000  0.42770000  1.0 -0.1601363465
C  C190  1  0.31940000  0.41040000  0.57230000  1.0 -0.1601363465
C  C191  1  0.52320000  0.52910000  0.38780000  1.0 -0.0996374673
C  C192  1  0.47680000  0.47090000  0.61220000  1.0 -0.0996374673
C  C193  1  0.80580000  0.41420000  0.45780000  1.0 -0.1601363465
C  C194  1  0.19420000  0.58580000  0.54220000  1.0 -0.1601363465
C  C195  1  0.71160000  0.27970000  0.42760000  1.0 -0.0805291615
C  C196  1  0.28840000  0.72030000  0.57240000  1.0 -0.0805291615
C  C197  1  0.96930000  0.67360000  0.35840000  1.0 -0.1111857102
C  C198  1  0.03070000  0.32640000  0.64160000  1.0 -0.1111857102
C  C199  1  0.84050000  0.69550000  0.12060000  1.0 -0.1497992839
C  C200  1  0.15950000  0.30450000  0.87940000  1.0 -0.1497992839
C  C201  1  0.70610000  0.65410000  0.02710000  1.0 -0.1111857102
C  C202  1  0.29390000  0.34590000  0.97290000  1.0 -0.1111857102
C  C203  1  0.96720000  0.52250000  0.15340000  1.0 -0.1497992839
C  C204  1  0.03280000  0.47750000  0.84660000  1.0 -0.1497992839
C  C205  1  0.89420000  0.40000000  0.08520000  1.0 -0.1184405243
C  C206  1  0.10580000  0.60000000  0.91480000  1.0 -0.1184405243
C  C207  1  0.59890000  0.59010000  0.42610000  1.0 -0.1111857102
C  C208  1  0.40110000  0.40990000  0.57390000  1.0 -0.1111857102
C  C209  1  0.78900000  0.33670000  0.46850000  1.0 -0.1111857102
C  C210  1  0.21100000  0.66330000  0.53150000  1.0 -0.1111857102
C  C211  1  0.05040000  0.73240000  0.39350000  1.0 0.1278892792
C  C212  1  0.94960000  0.26760000  0.60650000  1.0 0.1278892792
C  C213  1  0.78250000  0.71190000  0.06740000  1.0 -0.0906962122
C  C214  1  0.21750000  0.28810000  0.93260000  1.0 -0.0906962122
C  C215  1  0.97150000  0.46230000  0.12000000  1.0 -0.0996374673
C  C216  1  0.02850000  0.53770000  0.88000000  1.0 -0.0996374673
C  C217  1  0.12050000  0.75700000  0.36690000  1.0 -0.1671506223
C  C218  1  0.87950000  0.24300000  0.63310000  1.0 -0.1671506223
C  C219  1  0.06600000  0.76850000  0.45460000  1.0 -0.1601363465
C  C220  1  0.93400000  0.23150000  0.54540000  1.0 -0.1601363465
C  C221  1  0.20440000  0.81250000  0.40140000  1.0 -0.0906962122
C  C222  1  0.79560000  0.18750000  0.59860000  1.0 -0.0906962122
C  C223  1  0.14800000  0.82620000  0.48790000  1.0 -0.0996374673
C  C224  1  0.85200000  0.17380000  0.51210000  1.0 -0.0996374673
C  C225  1  0.21910000  0.84910000  0.46200000  1.0 -0.0253097509
C  C226  1  0.78090000  0.15090000  0.53800000  1.0 -0.0253097509
C  C227  1  0.31040000  0.90560000  0.50110000  1.0 0.5852520707
C  C228  1  0.68960000  0.09440000  0.49890000  1.0 0.5852520707
N  N1  1  0.54450000  0.98230000  0.64740000  1.0 0.7551838997
N  N2  1  0.45550000  0.01770000  0.35260000  1.0 0.7551838997
N  N3  1  0.33920000  0.02320000  0.66730000  1.0 -0.2534167525
N  N4  1  0.66080000  0.97680000  0.33270000  1.0 -0.2534167525
N  N5  1  0.92780000  0.02320000  0.12850000  1.0 -0.2385677305
N  N6  1  0.07220000  0.97680000  0.87150000  1.0 -0.2385677305
O  O1  1  0.45150000  0.08570000  0.47760000  1.0 -0.5588527279
O  O2  1  0.54850000  0.91430000  0.52240000  1.0 -0.5588527279
O  O3  1  0.50990000  0.01290000  0.59720000  1.0 -0.5117770788
O  O4  1  0.49010000  0.98710000  0.40280000  1.0 -0.5117770788
O  O5  1  0.37210000  0.92030000  0.47380000  1.0 -0.5588527279
O  O6  1  0.62790000  0.07970000  0.52620000  1.0 -0.5588527279
O  O7  1  0.37970000  0.10150000  0.54590000  1.0 -0.5588527279
O  O8  1  0.62030000  0.89850000  0.45410000  1.0 -0.5588527279
O  O9  1  0.31150000  0.94010000  0.55040000  1.0 -0.5304728505
O  O10  1  0.68850000  0.05990000  0.44960000  1.0 -0.5304728505
O  O11  1  0.51270000  0.96830000  0.69670000  1.0 -0.4895773119
O  O12  1  0.48730000  0.03170000  0.30330000  1.0 -0.4895773119
O  O13  1  0.59490000  0.94840000  0.64160000  1.0 -0.4131367264
O  O14  1  0.40510000  0.05160000  0.35840000  1.0 -0.4131367264
O  O15  1  0.03490000  0.93550000  0.09120000  1.0 -0.5018575844
O  O16  1  0.96510000  0.06450000  0.90880000  1.0 -0.5018575844
O  O17  1  0.05590000  0.90890000  0.99940000  1.0 -0.4895773119
O  O18  1  0.94410000  0.09110000  0.00060000  1.0 -0.484828448
O  O19  1  0.10900000  0.09560000  0.08830000  1.0 -0.4895773119
O  O20  1  0.89100000  0.90440000  0.91170000  1.0 -0.4895773119
O  O21  1  0.86500000  0.92670000  0.00050000  1.0 -0.4895773119
O  O22  1  0.13500000  0.07330000  0.99950000  1.0 -0.4895773119
