# DDEC6 charges by PACMAN v1.1 (https://github.com/mtap-research/PACMAN-charge/)
data_QUQQOJ_FSR_pacman
_symmetry_space_group_name_H-M   'P 1'
_cell_length_a   14.26490000
_cell_length_b   14.26490000
_cell_length_c   7.34000000
_cell_angle_alpha   75.27370000
_cell_angle_beta   104.72600000
_cell_angle_gamma   114.42800000
_symmetry_Int_Tables_number   1
_chemical_formula_structural   ZnH24C32(N5O2)2
_chemical_formula_sum   'Zn2 H48 C64 N20 O8'
_cell_volume   1296.23866067
_cell_formula_units_Z   2
loop_
 _symmetry_equiv_pos_site_id
 _symmetry_equiv_pos_as_xyz
  1  'x, y, z'
loop_
 _atom_site_type_symbol
 _atom_site_label
 _atom_site_symmetry_multiplicity
 _atom_site_fract_x
 _atom_site_fract_y
 _atom_site_fract_z
 _atom_site_occupancy
 _atom_site_charge
Zn  Zn1  1  0.00000000  0.50000000  0.00000000  1.0 0.7572888356
Zn  Zn2  1  0.50000000  0.00000000  0.50000000  1.0 0.7572888356
H  H1  1  0.23150000  0.33610000  0.96860000  1.0 0.1293342035
H  H2  1  0.33610000  0.23150000  0.53140000  1.0 0.1293342035
H  H3  1  0.76850000  0.66390000  0.03140000  1.0 0.1293342035
H  H4  1  0.66390000  0.76850000  0.46860000  1.0 0.1293342035
H  H5  1  0.23650000  0.33290000  0.42480000  1.0 0.1293342035
H  H6  1  0.33290000  0.23650000  0.07520000  1.0 0.1293342035
H  H7  1  0.76350000  0.66710000  0.57520000  1.0 0.1293342035
H  H8  1  0.66710000  0.76350000  0.92480000  1.0 0.1293342035
H  H9  1  0.34540000  0.81140000  0.98560000  1.0 0.1293342035
H  H10  1  0.81140000  0.34540000  0.51440000  1.0 0.1293342035
H  H11  1  0.65460000  0.18860000  0.01440000  1.0 0.1293342035
H  H12  1  0.18860000  0.65460000  0.48560000  1.0 0.1293342035
H  H13  1  0.23310000  0.63970000  0.99200000  1.0 0.1212366741
H  H14  1  0.63970000  0.23310000  0.50800000  1.0 0.1212366741
H  H15  1  0.76690000  0.36030000  0.00800000  1.0 0.1212366741
H  H16  1  0.36030000  0.76690000  0.49200000  1.0 0.1212366741
H  H17  1  0.10530000  0.04970000  0.99390000  1.0 0.1900408264
H  H18  1  0.04970000  0.10530000  0.50610000  1.0 0.1900408264
H  H19  1  0.89470000  0.95030000  0.00610000  1.0 0.1900408264
H  H20  1  0.95030000  0.89470000  0.49390000  1.0 0.1900408264
H  H21  1  0.19060000  0.03540000  0.93560000  1.0 0.1601016046
H  H22  1  0.03540000  0.19060000  0.56440000  1.0 0.1601016046
H  H23  1  0.80940000  0.96460000  0.06440000  1.0 0.1601016046
H  H24  1  0.96460000  0.80940000  0.43560000  1.0 0.1601016046
H  H25  1  0.28030000  0.93910000  0.96800000  1.0 0.0797174743
H  H26  1  0.93910000  0.28030000  0.53200000  1.0 0.0797174743
H  H27  1  0.71970000  0.06090000  0.03200000  1.0 0.0797174743
H  H28  1  0.06090000  0.71970000  0.46800000  1.0 0.0797174743
H  H29  1  0.99500000  0.71520000  0.95570000  1.0 0.0797174743
H  H30  1  0.71520000  0.99500000  0.54430000  1.0 0.0797174743
H  H31  1  0.00500000  0.28480000  0.04430000  1.0 0.0797174743
H  H32  1  0.28480000  0.00500000  0.45570000  1.0 0.0797174743
H  H33  1  0.09950000  0.05770000  0.62200000  1.0 0.166328631
H  H34  1  0.05770000  0.09950000  0.87800000  1.0 0.166328631
H  H35  1  0.90050000  0.94230000  0.37800000  1.0 0.166328631
H  H36  1  0.94230000  0.90050000  0.12200000  1.0 0.166328631
H  H37  1  0.19290000  0.03630000  0.73710000  1.0 0.1601016046
H  H38  1  0.03630000  0.19290000  0.76290000  1.0 0.1601016046
H  H39  1  0.80710000  0.96370000  0.26290000  1.0 0.1601016046
H  H40  1  0.96370000  0.80710000  0.23710000  1.0 0.1601016046
H  H41  1  0.99660000  0.71060000  0.78310000  1.0 0.0797174743
H  H42  1  0.71060000  0.99660000  0.71690000  1.0 0.0797174743
H  H43  1  0.00340000  0.28940000  0.21690000  1.0 0.0797174743
H  H44  1  0.28940000  0.00340000  0.28310000  1.0 0.0797174743
H  H45  1  0.27650000  0.93970000  0.87330000  1.0 0.0892338376
H  H46  1  0.93970000  0.27650000  0.62670000  1.0 0.0892338376
H  H47  1  0.72350000  0.06030000  0.12670000  1.0 0.0892338376
H  H48  1  0.06030000  0.72350000  0.37330000  1.0 0.0892338376
C  C1  1  0.22190000  0.34570000  0.68380000  1.0 0.1047613915
C  C2  1  0.34570000  0.22190000  0.81620000  1.0 0.1047613915
C  C3  1  0.77810000  0.65430000  0.31620000  1.0 0.1047613915
C  C4  1  0.65430000  0.77810000  0.18380000  1.0 0.1047613915
C  C5  1  0.15630000  0.40870000  0.61610000  1.0 -0.1905504096
C  C6  1  0.40870000  0.15630000  0.88390000  1.0 -0.1905504096
C  C7  1  0.84370000  0.59130000  0.38390000  1.0 -0.1905504096
C  C8  1  0.59130000  0.84370000  0.11610000  1.0 -0.1905504096
C  C9  1  0.25240000  0.31540000  0.88040000  1.0 -0.1712641254
C  C10  1  0.31540000  0.25240000  0.61960000  1.0 -0.1712641254
C  C11  1  0.74760000  0.68460000  0.11960000  1.0 -0.1712641254
C  C12  1  0.68460000  0.74760000  0.38040000  1.0 -0.1712641254
C  C13  1  0.12170000  0.44170000  0.73770000  1.0 0.1601016046
C  C14  1  0.44170000  0.12170000  0.76230000  1.0 0.1601016046
C  C15  1  0.87830000  0.55830000  0.26230000  1.0 0.1601016046
C  C16  1  0.55830000  0.87830000  0.23770000  1.0 0.1601016046
C  C17  1  0.12470000  0.44010000  0.41860000  1.0 0.1827458474
C  C18  1  0.44010000  0.12470000  0.08140000  1.0 0.1827458474
C  C19  1  0.87530000  0.55990000  0.58140000  1.0 0.1827458474
C  C20  1  0.55990000  0.87530000  0.91860000  1.0 0.1827458474
C  C21  1  0.25510000  0.31330000  0.55550000  1.0 -0.1792408381
C  C22  1  0.31330000  0.25510000  0.94450000  1.0 -0.1792408381
C  C23  1  0.74490000  0.68670000  0.44450000  1.0 -0.1792408381
C  C24  1  0.68670000  0.74490000  0.05550000  1.0 -0.1792408381
C  C25  1  0.27450000  0.79330000  0.98150000  1.0 -0.0773678146
C  C26  1  0.79330000  0.27450000  0.51850000  1.0 -0.0773678146
C  C27  1  0.72550000  0.20670000  0.01850000  1.0 -0.0773678146
C  C28  1  0.20670000  0.72550000  0.48150000  1.0 -0.0773678146
C  C29  1  0.20630000  0.69030000  0.98360000  1.0 -0.0895371376
C  C30  1  0.69030000  0.20630000  0.51640000  1.0 -0.0895371376
C  C31  1  0.79370000  0.30970000  0.01640000  1.0 -0.0895371376
C  C32  1  0.30970000  0.79370000  0.48360000  1.0 -0.0895371376
C  C33  1  0.23610000  0.86930000  0.97330000  1.0 -0.0312048815
C  C34  1  0.86930000  0.23610000  0.52670000  1.0 -0.0312048815
C  C35  1  0.76390000  0.13070000  0.02670000  1.0 -0.0312048815
C  C36  1  0.13070000  0.76390000  0.47330000  1.0 -0.0312048815
C  C37  1  0.12930000  0.83830000  0.97310000  1.0 -0.0043265595
C  C38  1  0.83830000  0.12930000  0.52690000  1.0 -0.0043265595
C  C39  1  0.87070000  0.16170000  0.02690000  1.0 -0.0043265595
C  C40  1  0.16170000  0.87070000  0.47310000  1.0 -0.0043265595
C  C41  1  0.06670000  0.73490000  0.96630000  1.0 0.0165679702
C  C42  1  0.73490000  0.06670000  0.53370000  1.0 0.0165679702
C  C43  1  0.93330000  0.26510000  0.03370000  1.0 0.0165679702
C  C44  1  0.26510000  0.93330000  0.46630000  1.0 0.0165679702
C  C45  1  0.07780000  0.90960000  0.98880000  1.0 0.0091087637
C  C46  1  0.90960000  0.07780000  0.51120000  1.0 0.0091087637
C  C47  1  0.92220000  0.09040000  0.01120000  1.0 0.0091087637
C  C48  1  0.09040000  0.92220000  0.48880000  1.0 0.0091087637
C  C49  1  0.13270000  0.84130000  0.80300000  1.0 -0.0175222088
C  C50  1  0.84130000  0.13270000  0.69700000  1.0 -0.0175222088
C  C51  1  0.86730000  0.15870000  0.19700000  1.0 -0.0175222088
C  C52  1  0.15870000  0.86730000  0.30300000  1.0 -0.0175222088
C  C53  1  0.07500000  0.90900000  0.68100000  1.0 0.1127426155
C  C54  1  0.90900000  0.07500000  0.81900000  1.0 0.1127426155
C  C55  1  0.92500000  0.09100000  0.31900000  1.0 0.1127426155
C  C56  1  0.09100000  0.92500000  0.18100000  1.0 0.1127426155
C  C57  1  0.06540000  0.73260000  0.84400000  1.0 -0.0312048815
C  C58  1  0.73260000  0.06540000  0.65600000  1.0 -0.0312048815
C  C59  1  0.93460000  0.26740000  0.15600000  1.0 -0.0312048815
C  C60  1  0.26740000  0.93460000  0.34400000  1.0 -0.0312048815
C  C61  1  0.23310000  0.86890000  0.88300000  1.0 -0.0312048815
C  C62  1  0.86890000  0.23310000  0.61700000  1.0 -0.0312048815
C  C63  1  0.76690000  0.13110000  0.11700000  1.0 -0.0312048815
C  C64  1  0.13110000  0.76690000  0.38300000  1.0 -0.0312048815
N  N1  1  0.10350000  0.66110000  0.97400000  1.0 -0.1712641254
N  N2  1  0.66110000  0.10350000  0.52600000  1.0 -0.1712641254
N  N3  1  0.89650000  0.33890000  0.02600000  1.0 -0.1712641254
N  N4  1  0.33890000  0.89650000  0.47400000  1.0 -0.1712641254
N  N5  1  0.09720000  0.46680000  0.25850000  1.0 -0.4051384408
N  N6  1  0.46680000  0.09720000  0.24150000  1.0 -0.4051384408
N  N7  1  0.90280000  0.53320000  0.74150000  1.0 -0.4051384408
N  N8  1  0.53320000  0.90280000  0.75850000  1.0 -0.4051384408
N  N9  1  0.09070000  0.46990000  0.84100000  1.0 -0.4219705541
N  N10  1  0.46990000  0.09070000  0.65900000  1.0 -0.4219705541
N  N11  1  0.90930000  0.53010000  0.15900000  1.0 -0.4219705541
N  N12  1  0.53010000  0.90930000  0.34100000  1.0 -0.4219705541
N  N13  1  0.13040000  0.00940000  0.97070000  1.0 -0.2181514953
N  N14  1  0.00940000  0.13040000  0.52930000  1.0 -0.2181514953
N  N15  1  0.86960000  0.99060000  0.02930000  1.0 -0.2181514953
N  N16  1  0.99060000  0.86960000  0.47070000  1.0 -0.2181514953
N  N17  1  0.12950000  0.01450000  0.68000000  1.0 -0.2720175166
N  N18  1  0.01450000  0.12950000  0.82000000  1.0 -0.2720175166
N  N19  1  0.87050000  0.98550000  0.32000000  1.0 -0.2720175166
N  N20  1  0.98550000  0.87050000  0.18000000  1.0 -0.2720175166
O  O1  1  0.98970000  0.86870000  0.03990000  1.0 -0.0773678146
O  O2  1  0.86870000  0.98970000  0.46010000  1.0 -0.0773678146
O  O3  1  0.01030000  0.13130000  0.96010000  1.0 -0.0773678146
O  O4  1  0.13130000  0.01030000  0.53990000  1.0 -0.0773678146
O  O5  1  0.98680000  0.86900000  0.60700000  1.0 -0.0895371376
O  O6  1  0.86900000  0.98680000  0.89300000  1.0 -0.0895371376
O  O7  1  0.01320000  0.13100000  0.39300000  1.0 -0.0895371376
O  O8  1  0.13100000  0.01320000  0.10700000  1.0 -0.0895371376
