# DDEC6 charges by PACMAN v1.1 (https://github.com/mtap-research/PACMAN-charge/)
data_QURBOX_ASR_pacman
_symmetry_space_group_name_H-M   'P 1'
_cell_length_a   19.17880000
_cell_length_b   19.17880000
_cell_length_c   9.22100000
_cell_angle_alpha   77.20240000
_cell_angle_beta   102.79800000
_cell_angle_gamma   56.71740000
_symmetry_Int_Tables_number   1
_chemical_formula_structural   Zn2H36C62S4O13
_chemical_formula_sum   'Zn4 H72 C124 S8 O26'
_cell_volume   2508.19359146
_cell_formula_units_Z   2
loop_
 _symmetry_equiv_pos_site_id
 _symmetry_equiv_pos_as_xyz
  1  'x, y, z'
loop_
 _atom_site_type_symbol
 _atom_site_label
 _atom_site_symmetry_multiplicity
 _atom_site_fract_x
 _atom_site_fract_y
 _atom_site_fract_z
 _atom_site_occupancy
 _atom_site_charge
Zn  Zn1  1  0.53161000  0.46839000  0.67951000  1.0 0.9666188751
Zn  Zn2  1  0.86598000  0.13402000  0.98162000  1.0 0.7003509794
Zn  Zn3  1  0.46839000  0.53161000  0.32049000  1.0 0.9666188751
Zn  Zn4  1  0.13402000  0.86598000  0.01838000  1.0 0.7003509794
H  H1  1  0.67713000  0.70293000  0.63084000  1.0 0.1130453739
H  H2  1  0.79728000  0.55336000  0.67919000  1.0 0.1155540068
H  H3  1  0.91532000  0.45000000  0.94035000  1.0 0.0998693751
H  H4  1  0.91147000  0.49315000  0.15778000  1.0 0.0998693751
H  H5  1  0.51966000  0.16146000  0.33259000  1.0 0.1130453739
H  H6  1  0.49346000  0.29740000  0.31161000  1.0 0.1258776728
H  H7  1  0.64523000  0.18351000  0.79692000  1.0 0.1130453739
H  H8  1  0.67463000  0.04513000  0.81928000  1.0 0.0915485472
H  H9  1  0.75285000  0.02103000  0.55817000  1.0 0.0772580676
H  H10  1  0.81041000  0.05795000  0.38610000  1.0 0.0915485472
H  H11  1  0.75500000  0.93880000  0.11996000  1.0 0.0998693751
H  H12  1  0.68918000  0.91090000  0.28650000  1.0 0.0915485472
H  H13  1  0.67021000  0.89663000  0.26580000  1.0 0.0772580676
H  H14  1  0.75331000  0.88935000  0.11229000  1.0 0.0772580676
H  H15  1  0.83306000  0.00676000  0.34371000  1.0 0.0998693751
H  H16  1  0.75211000  0.00989000  0.49899000  1.0 0.0915485472
H  H17  1  0.91170000  0.87094000  0.02031000  1.0 0.2371075507
H  H18  1  0.70293000  0.67713000  0.36916000  1.0 0.1130453739
H  H19  1  0.55336000  0.79728000  0.32081000  1.0 0.1155540068
H  H20  1  0.45000000  0.91532000  0.05965000  1.0 0.0998693751
H  H21  1  0.49315000  0.91147000  0.84222000  1.0 0.0998693751
H  H22  1  0.16146000  0.51966000  0.66741000  1.0 0.1130453739
H  H23  1  0.29740000  0.49346000  0.68839000  1.0 0.1258776728
H  H24  1  0.18351000  0.64523000  0.20308000  1.0 0.1130453739
H  H25  1  0.04513000  0.67463000  0.18072000  1.0 0.0915485472
H  H26  1  0.02103000  0.75285000  0.44183000  1.0 0.0772580676
H  H27  1  0.05795000  0.81041000  0.61390000  1.0 0.0915485472
H  H28  1  0.93880000  0.75500000  0.88004000  1.0 0.0998693751
H  H29  1  0.91090000  0.68918000  0.71350000  1.0 0.0915485472
H  H30  1  0.89663000  0.67021000  0.73420000  1.0 0.0772580676
H  H31  1  0.88935000  0.75331000  0.88771000  1.0 0.0772580676
H  H32  1  0.00676000  0.83306000  0.65629000  1.0 0.0998693751
H  H33  1  0.00989000  0.75211000  0.50101000  1.0 0.0915485472
H  H34  1  0.87094000  0.91170000  0.97969000  1.0 0.2371075507
H  H35  1  0.32287000  0.29707000  0.36916000  1.0 0.1130453739
H  H36  1  0.20272000  0.44664000  0.32081000  1.0 0.1155540068
H  H37  1  0.08468000  0.55000000  0.05965000  1.0 0.0998693751
H  H38  1  0.08853000  0.50685000  0.84222000  1.0 0.0998693751
H  H39  1  0.48034000  0.83854000  0.66741000  1.0 0.1130453739
H  H40  1  0.50654000  0.70260000  0.68839000  1.0 0.1258776728
H  H41  1  0.35477000  0.81649000  0.20308000  1.0 0.1130453739
H  H42  1  0.32537000  0.95487000  0.18072000  1.0 0.0915485472
H  H43  1  0.24715000  0.97897000  0.44183000  1.0 0.0772580676
H  H44  1  0.18959000  0.94205000  0.61390000  1.0 0.0915485472
H  H45  1  0.24500000  0.06120000  0.88004000  1.0 0.0998693751
H  H46  1  0.31082000  0.08910000  0.71350000  1.0 0.0915485472
H  H47  1  0.32979000  0.10337000  0.73420000  1.0 0.0772580676
H  H48  1  0.24669000  0.11065000  0.88771000  1.0 0.0772580676
H  H49  1  0.16694000  0.99324000  0.65629000  1.0 0.0998693751
H  H50  1  0.24789000  0.99011000  0.50101000  1.0 0.0915485472
H  H51  1  0.08830000  0.12906000  0.97969000  1.0 0.2371075507
H  H52  1  0.29707000  0.32287000  0.63084000  1.0 0.1130453739
H  H53  1  0.44664000  0.20272000  0.67919000  1.0 0.1155540068
H  H54  1  0.55000000  0.08468000  0.94035000  1.0 0.0998693751
H  H55  1  0.50685000  0.08853000  0.15778000  1.0 0.0998693751
H  H56  1  0.83854000  0.48034000  0.33259000  1.0 0.1130453739
H  H57  1  0.70260000  0.50654000  0.31161000  1.0 0.1258776728
H  H58  1  0.81649000  0.35477000  0.79692000  1.0 0.1130453739
H  H59  1  0.95487000  0.32537000  0.81928000  1.0 0.0915485472
H  H60  1  0.97897000  0.24715000  0.55817000  1.0 0.0772580676
H  H61  1  0.94205000  0.18959000  0.38610000  1.0 0.0915485472
H  H62  1  0.06120000  0.24500000  0.11996000  1.0 0.0998693751
H  H63  1  0.08910000  0.31082000  0.28650000  1.0 0.0915485472
H  H64  1  0.10337000  0.32979000  0.26580000  1.0 0.0772580676
H  H65  1  0.11065000  0.24669000  0.11229000  1.0 0.0772580676
H  H66  1  0.99324000  0.16694000  0.34371000  1.0 0.0998693751
H  H67  1  0.99011000  0.24789000  0.49899000  1.0 0.0915485472
H  H68  1  0.12906000  0.08830000  0.02031000  1.0 0.2371075507
H  H69  1  0.01210000  0.98790000  0.03110000  1.0 0.0772580676
H  H70  1  0.96600000  0.03400000  0.86200000  1.0 0.1660962794
H  H71  1  0.98790000  0.01210000  0.96890000  1.0 0.0772580676
H  H72  1  0.03400000  0.96600000  0.13800000  1.0 0.1660962794
C  C1  1  0.63677000  0.85521000  0.72478000  1.0 -0.0121615528
C  C2  1  0.66437000  0.94677000  0.52310000  1.0 -0.0734016075
C  C3  1  0.61956000  0.00216000  0.59220000  1.0 -0.1384089198
C  C4  1  0.65607000  0.78401000  0.84293000  1.0 -0.0121615528
C  C5  1  0.72331000  0.68885000  0.86463000  1.0 0.0508030262
C  C6  1  0.72507000  0.66087000  0.73800000  1.0 -0.1287467431
C  C7  1  0.79642000  0.57182000  0.76670000  1.0 -0.0823446009
C  C8  1  0.86589000  0.51029000  0.92170000  1.0 -0.1484443247
C  C9  1  0.86381000  0.53621000  0.05080000  1.0 -0.179285815
C  C10  1  0.79213000  0.62517000  0.02458000  1.0 0.059519032
C  C11  1  0.60079000  0.08959000  0.57690000  1.0 0.0772580676
C  C12  1  0.54626000  0.16526000  0.42750000  1.0 -0.1384089198
C  C13  1  0.53031000  0.24611000  0.41520000  1.0 -0.0823446009
C  C14  1  0.56736000  0.25316000  0.55180000  1.0 -0.0192605329
C  C15  1  0.62041000  0.17861000  0.70200000  1.0 -0.1287467431
C  C16  1  0.63766000  0.09646000  0.71550000  1.0 -0.2411471313
C  C17  1  0.54828000  0.34168000  0.53750000  1.0 0.6022300813
C  C18  1  0.71270000  0.96310000  0.44040000  1.0 0.0171500482
C  C19  1  0.75070000  0.00610000  0.46650000  1.0 -0.0192605329
C  C20  1  0.78550000  0.02810000  0.36490000  1.0 -0.1051145997
C  C21  1  0.78350000  0.00610000  0.23230000  1.0 -0.0192605329
C  C22  1  0.75160000  0.95860000  0.20570000  1.0 -0.0121615528
C  C23  1  0.71450000  0.94030000  0.30850000  1.0 0.0130352099
C  C24  1  0.81470000  0.03750000  0.11570000  1.0 0.3189014811
C  C25  1  0.70300000  0.95480000  0.39660000  1.0 0.0423096288
C  C26  1  0.70380000  0.91880000  0.28160000  1.0 -0.0192605329
C  C27  1  0.75270000  0.91450000  0.19040000  1.0 -0.1216945108
C  C28  1  0.80140000  0.94800000  0.21460000  1.0 -0.0631658509
C  C29  1  0.80030000  0.98370000  0.32790000  1.0 -0.0121615528
C  C30  1  0.75170000  0.98610000  0.41900000  1.0 -0.0121615528
C  C31  1  0.86160000  0.93780000  0.12660000  1.0 0.059519032
C  C32  1  0.85521000  0.63677000  0.27522000  1.0 -0.0121615528
C  C33  1  0.94677000  0.66437000  0.47690000  1.0 -0.0734016075
C  C34  1  0.00216000  0.61956000  0.40780000  1.0 -0.1384089198
C  C35  1  0.78401000  0.65607000  0.15707000  1.0 -0.0121615528
C  C36  1  0.68885000  0.72331000  0.13537000  1.0 0.0508030262
C  C37  1  0.66087000  0.72507000  0.26200000  1.0 -0.1287467431
C  C38  1  0.57182000  0.79642000  0.23330000  1.0 -0.0823446009
C  C39  1  0.51029000  0.86589000  0.07830000  1.0 -0.1484443247
C  C40  1  0.53621000  0.86381000  0.94920000  1.0 -0.179285815
C  C41  1  0.62517000  0.79213000  0.97542000  1.0 0.059519032
C  C42  1  0.08959000  0.60079000  0.42310000  1.0 0.0772580676
C  C43  1  0.16526000  0.54626000  0.57250000  1.0 -0.1384089198
C  C44  1  0.24611000  0.53031000  0.58480000  1.0 -0.0823446009
C  C45  1  0.25316000  0.56736000  0.44820000  1.0 -0.0192605329
C  C46  1  0.17861000  0.62041000  0.29800000  1.0 -0.1216945108
C  C47  1  0.09646000  0.63766000  0.28450000  1.0 -0.2411471313
C  C48  1  0.34168000  0.54828000  0.46250000  1.0 0.6022300813
C  C49  1  0.96310000  0.71270000  0.55960000  1.0 0.0171500482
C  C50  1  0.00610000  0.75070000  0.53350000  1.0 -0.0192605329
C  C51  1  0.02810000  0.78550000  0.63510000  1.0 -0.1051145997
C  C52  1  0.00610000  0.78350000  0.76770000  1.0 -0.0192605329
C  C53  1  0.95860000  0.75160000  0.79430000  1.0 -0.0121615528
C  C54  1  0.94030000  0.71450000  0.69150000  1.0 0.0130352099
C  C55  1  0.03750000  0.81470000  0.88430000  1.0 0.3189014811
C  C56  1  0.95480000  0.70300000  0.60340000  1.0 0.0423096288
C  C57  1  0.91880000  0.70380000  0.71840000  1.0 -0.0192605329
C  C58  1  0.91450000  0.75270000  0.80960000  1.0 -0.1216945108
C  C59  1  0.94800000  0.80140000  0.78540000  1.0 -0.0631658509
C  C60  1  0.98370000  0.80030000  0.67210000  1.0 -0.0121615528
C  C61  1  0.98610000  0.75170000  0.58100000  1.0 -0.0121615528
C  C62  1  0.93780000  0.86160000  0.87340000  1.0 0.0677364413
C  C63  1  0.36323000  0.14479000  0.27522000  1.0 -0.0121615528
C  C64  1  0.33563000  0.05323000  0.47690000  1.0 -0.0734016075
C  C65  1  0.38044000  0.99784000  0.40780000  1.0 -0.1384089198
C  C66  1  0.34393000  0.21599000  0.15707000  1.0 -0.0121615528
C  C67  1  0.27669000  0.31115000  0.13537000  1.0 0.0508030262
C  C68  1  0.27493000  0.33913000  0.26200000  1.0 -0.1287467431
C  C69  1  0.20358000  0.42818000  0.23330000  1.0 -0.0823446009
C  C70  1  0.13411000  0.48971000  0.07830000  1.0 -0.1484443247
C  C71  1  0.13619000  0.46379000  0.94920000  1.0 -0.179285815
C  C72  1  0.20787000  0.37483000  0.97542000  1.0 0.059519032
C  C73  1  0.39921000  0.91041000  0.42310000  1.0 0.0772580676
C  C74  1  0.45374000  0.83474000  0.57250000  1.0 -0.1384089198
C  C75  1  0.46969000  0.75389000  0.58480000  1.0 -0.0823446009
C  C76  1  0.43264000  0.74684000  0.44820000  1.0 -0.0192605329
C  C77  1  0.37959000  0.82139000  0.29800000  1.0 -0.1287467431
C  C78  1  0.36234000  0.90354000  0.28450000  1.0 -0.2411471313
C  C79  1  0.45172000  0.65832000  0.46250000  1.0 0.6022300813
C  C80  1  0.28730000  0.03690000  0.55960000  1.0 0.0171500482
C  C81  1  0.24930000  0.99390000  0.53350000  1.0 -0.0192605329
C  C82  1  0.21450000  0.97190000  0.63510000  1.0 -0.1051145997
C  C83  1  0.21650000  0.99390000  0.76770000  1.0 -0.0192605329
C  C84  1  0.24840000  0.04140000  0.79430000  1.0 -0.0121615528
C  C85  1  0.28550000  0.05970000  0.69150000  1.0 0.0130352099
C  C86  1  0.18530000  0.96250000  0.88430000  1.0 0.3189014811
C  C87  1  0.29700000  0.04520000  0.60340000  1.0 0.0423096288
C  C88  1  0.29620000  0.08120000  0.71840000  1.0 -0.0192605329
C  C89  1  0.24730000  0.08550000  0.80960000  1.0 -0.1216945108
C  C90  1  0.19860000  0.05200000  0.78540000  1.0 -0.0631658509
C  C91  1  0.19970000  0.01630000  0.67210000  1.0 -0.0121615528
C  C92  1  0.24830000  0.01390000  0.58100000  1.0 -0.0121615528
C  C93  1  0.13840000  0.06220000  0.87340000  1.0 0.0677364413
C  C94  1  0.14479000  0.36323000  0.72478000  1.0 -0.0121615528
C  C95  1  0.05323000  0.33563000  0.52310000  1.0 -0.0734016075
C  C96  1  0.99784000  0.38044000  0.59220000  1.0 -0.1384089198
C  C97  1  0.21599000  0.34393000  0.84293000  1.0 -0.0121615528
C  C98  1  0.31115000  0.27669000  0.86463000  1.0 0.0508030262
C  C99  1  0.33913000  0.27493000  0.73800000  1.0 -0.1287467431
C  C100  1  0.42818000  0.20358000  0.76670000  1.0 -0.0823446009
C  C101  1  0.48971000  0.13411000  0.92170000  1.0 -0.1484443247
C  C102  1  0.46379000  0.13619000  0.05080000  1.0 -0.179285815
C  C103  1  0.37483000  0.20787000  0.02458000  1.0 0.059519032
C  C104  1  0.91041000  0.39921000  0.57690000  1.0 0.0772580676
C  C105  1  0.83474000  0.45374000  0.42750000  1.0 -0.1384089198
C  C106  1  0.75389000  0.46969000  0.41520000  1.0 -0.0823446009
C  C107  1  0.74684000  0.43264000  0.55180000  1.0 -0.0192605329
C  C108  1  0.82139000  0.37959000  0.70200000  1.0 -0.1216945108
C  C109  1  0.90354000  0.36234000  0.71550000  1.0 -0.2411471313
C  C110  1  0.65832000  0.45172000  0.53750000  1.0 0.6022300813
C  C111  1  0.03690000  0.28730000  0.44040000  1.0 0.0171500482
C  C112  1  0.99390000  0.24930000  0.46650000  1.0 -0.0192605329
C  C113  1  0.97190000  0.21450000  0.36490000  1.0 -0.1051145997
C  C114  1  0.99390000  0.21650000  0.23230000  1.0 -0.0192605329
C  C115  1  0.04140000  0.24840000  0.20570000  1.0 -0.0121615528
C  C116  1  0.05970000  0.28550000  0.30850000  1.0 0.0130352099
C  C117  1  0.96250000  0.18530000  0.11570000  1.0 0.3189014811
C  C118  1  0.04520000  0.29700000  0.39660000  1.0 0.0423096288
C  C119  1  0.08120000  0.29620000  0.28160000  1.0 -0.0192605329
C  C120  1  0.08550000  0.24730000  0.19040000  1.0 -0.1216945108
C  C121  1  0.05200000  0.19860000  0.21460000  1.0 -0.0631658509
C  C122  1  0.01630000  0.19970000  0.32790000  1.0 -0.0121615528
C  C123  1  0.01390000  0.24830000  0.41900000  1.0 -0.0121615528
C  C124  1  0.06220000  0.13840000  0.12660000  1.0 0.0677364413
S  S1  1  0.67572000  0.84612000  0.56985000  1.0 -0.1484443247
S  S2  1  0.57777000  0.96705000  0.71676000  1.0 -0.0290273172
S  S3  1  0.84612000  0.67572000  0.43015000  1.0 -0.1484443247
S  S4  1  0.96705000  0.57777000  0.28324000  1.0 -0.0290273172
S  S5  1  0.32428000  0.15388000  0.43015000  1.0 -0.1484443247
S  S6  1  0.42223000  0.03295000  0.28324000  1.0 -0.0290273172
S  S7  1  0.15388000  0.32428000  0.56985000  1.0 -0.1484443247
S  S8  1  0.03295000  0.42223000  0.71676000  1.0 -0.0290273172
O  O1  1  0.56628000  0.35068000  0.67010000  1.0 -0.5407469179
O  O2  1  0.51444000  0.40164000  0.39470000  1.0 -0.5606474187
O  O3  1  0.83678000  0.00378000  0.02080000  1.0 -0.0290273172
O  O4  1  0.81244000  0.10524000  0.11340000  1.0 -0.496908335
O  O5  1  0.86299000  0.89479000  0.03390000  1.0 -0.1287467431
O  O6  1  0.90630000  0.96350000  0.14550000  1.0 -0.1974719222
O  O7  1  0.35068000  0.56628000  0.32990000  1.0 -0.5407469179
O  O8  1  0.40164000  0.51444000  0.60530000  1.0 -0.5606474187
O  O9  1  0.00378000  0.83678000  0.97920000  1.0 -0.0290273172
O  O10  1  0.10524000  0.81244000  0.88660000  1.0 -0.496908335
O  O11  1  0.89479000  0.86299000  0.96610000  1.0 -0.1287467431
O  O12  1  0.96350000  0.90630000  0.85450000  1.0 -0.1974719222
O  O13  1  0.43372000  0.64932000  0.32990000  1.0 -0.5407469179
O  O14  1  0.48556000  0.59836000  0.60530000  1.0 -0.5606474187
O  O15  1  0.16322000  0.99622000  0.97920000  1.0 -0.0290273172
O  O16  1  0.18756000  0.89476000  0.88660000  1.0 -0.496908335
O  O17  1  0.13701000  0.10521000  0.96610000  1.0 -0.1287467431
O  O18  1  0.09370000  0.03650000  0.85450000  1.0 -0.1974719222
O  O19  1  0.64932000  0.43372000  0.67010000  1.0 -0.5407469179
O  O20  1  0.59836000  0.48556000  0.39470000  1.0 -0.5606474187
O  O21  1  0.99622000  0.16322000  0.02080000  1.0 -0.0290273172
O  O22  1  0.89476000  0.18756000  0.11340000  1.0 -0.496908335
O  O23  1  0.10521000  0.13701000  0.03390000  1.0 -0.1287467431
O  O24  1  0.03650000  0.09370000  0.14550000  1.0 -0.1974719222
O  O25  1  0.96550000  0.03450000  0.95090000  1.0 -0.2411471313
O  O26  1  0.03450000  0.96550000  0.04910000  1.0 -0.2411471313
