# DDEC6 charges by PACMAN v1.1 (https://github.com/mtap-research/PACMAN-charge/)
data_QURNOI_FSR_pacman
_symmetry_space_group_name_H-M   'P 1'
_cell_length_a   26.07290000
_cell_length_b   26.07290000
_cell_length_c   26.07290000
_cell_angle_alpha   90.00000000
_cell_angle_beta   90.00000000
_cell_angle_gamma   90.00000000
_symmetry_Int_Tables_number   1
_chemical_formula_structural   Zr3Co6H36C54N12(Cl3O5)4
_chemical_formula_sum   'Zr24 Co48 H288 C432 N96 Cl96 O160'
_cell_volume   17724.25611140
_cell_formula_units_Z   8
loop_
 _symmetry_equiv_pos_site_id
 _symmetry_equiv_pos_as_xyz
  1  'x, y, z'
loop_
 _atom_site_type_symbol
 _atom_site_label
 _atom_site_symmetry_multiplicity
 _atom_site_fract_x
 _atom_site_fract_y
 _atom_site_fract_z
 _atom_site_occupancy
 _atom_site_charge
Zr  Zr1  1  0.98470000  0.40759000  0.98687000  1.0 2.0241908178
Zr  Zr2  1  0.98687000  0.98470000  0.40759000  1.0 2.0241908178
Zr  Zr3  1  0.40759000  0.98687000  0.98470000  1.0 2.0257022723
Zr  Zr4  1  0.09241000  0.01313000  0.48470000  1.0 2.0257022723
Zr  Zr5  1  0.48687000  0.51530000  0.59241000  1.0 2.0257022723
Zr  Zr6  1  0.59241000  0.48687000  0.51530000  1.0 2.0257022723
Zr  Zr7  1  0.51313000  0.01530000  0.90759000  1.0 2.0257022723
Zr  Zr8  1  0.01313000  0.48470000  0.09241000  1.0 2.0257022723
Zr  Zr9  1  0.90759000  0.51313000  0.01530000  1.0 2.0241908178
Zr  Zr10  1  0.51530000  0.59241000  0.48687000  1.0 2.0257022723
Zr  Zr11  1  0.48470000  0.09241000  0.01313000  1.0 2.0257022723
Zr  Zr12  1  0.01530000  0.90759000  0.51313000  1.0 2.0257022723
Zr  Zr13  1  0.01530000  0.59241000  0.01313000  1.0 2.0257022723
Zr  Zr14  1  0.01313000  0.01530000  0.59241000  1.0 2.0257022723
Zr  Zr15  1  0.59241000  0.01313000  0.01530000  1.0 2.0257022723
Zr  Zr16  1  0.90759000  0.98687000  0.51530000  1.0 2.0241908178
Zr  Zr17  1  0.51313000  0.48470000  0.40759000  1.0 2.0257022723
Zr  Zr18  1  0.40759000  0.51313000  0.48470000  1.0 2.0257022723
Zr  Zr19  1  0.48687000  0.98470000  0.09241000  1.0 2.0257022723
Zr  Zr20  1  0.98687000  0.51530000  0.90759000  1.0 2.0241908178
Zr  Zr21  1  0.09241000  0.48687000  0.98470000  1.0 2.0257022723
Zr  Zr22  1  0.48470000  0.40759000  0.51313000  1.0 2.0257022723
Zr  Zr23  1  0.51530000  0.90759000  0.98687000  1.0 2.0257022723
Zr  Zr24  1  0.98470000  0.09241000  0.48687000  1.0 2.0241908178
Co  Co1  1  0.96813000  0.29983000  0.30084000  1.0 0.2681699142
Co  Co2  1  0.30084000  0.96813000  0.29983000  1.0 0.2681699142
Co  Co3  1  0.29983000  0.30084000  0.96813000  1.0 0.2681699142
Co  Co4  1  0.20017000  0.69916000  0.46813000  1.0 0.2681699142
Co  Co5  1  0.80084000  0.53187000  0.70017000  1.0 0.2681699142
Co  Co6  1  0.70017000  0.80084000  0.53187000  1.0 0.2681699142
Co  Co7  1  0.19916000  0.03187000  0.79983000  1.0 0.2681699142
Co  Co8  1  0.69916000  0.46813000  0.20017000  1.0 0.2681699142
Co  Co9  1  0.79983000  0.19916000  0.03187000  1.0 0.2681699142
Co  Co10  1  0.53187000  0.70017000  0.80084000  1.0 0.2681699142
Co  Co11  1  0.46813000  0.20017000  0.69916000  1.0 0.2681699142
Co  Co12  1  0.03187000  0.79983000  0.19916000  1.0 0.2681699142
Co  Co13  1  0.03187000  0.70017000  0.69916000  1.0 0.2681699142
Co  Co14  1  0.69916000  0.03187000  0.70017000  1.0 0.2681699142
Co  Co15  1  0.70017000  0.69916000  0.03187000  1.0 0.2681699142
Co  Co16  1  0.79983000  0.30084000  0.53187000  1.0 0.2681699142
Co  Co17  1  0.19916000  0.46813000  0.29983000  1.0 0.2681699142
Co  Co18  1  0.29983000  0.19916000  0.46813000  1.0 0.2681699142
Co  Co19  1  0.80084000  0.96813000  0.20017000  1.0 0.2681699142
Co  Co20  1  0.30084000  0.53187000  0.79983000  1.0 0.2681699142
Co  Co21  1  0.20017000  0.80084000  0.96813000  1.0 0.2681699142
Co  Co22  1  0.46813000  0.29983000  0.19916000  1.0 0.2681699142
Co  Co23  1  0.53187000  0.79983000  0.30084000  1.0 0.2681699142
Co  Co24  1  0.96813000  0.20017000  0.80084000  1.0 0.2681699142
Co  Co25  1  0.00250000  0.29575000  0.29950000  1.0 0.2782893424
Co  Co26  1  0.29950000  0.00250000  0.29575000  1.0 0.2782893424
Co  Co27  1  0.29575000  0.29950000  0.00250000  1.0 0.2782893424
Co  Co28  1  0.20425000  0.70050000  0.50250000  1.0 0.2782893424
Co  Co29  1  0.79950000  0.49750000  0.70425000  1.0 0.2782893424
Co  Co30  1  0.70425000  0.79950000  0.49750000  1.0 0.2782893424
Co  Co31  1  0.20050000  0.99750000  0.79575000  1.0 0.2782893424
Co  Co32  1  0.70050000  0.50250000  0.20425000  1.0 0.2782893424
Co  Co33  1  0.79575000  0.20050000  0.99750000  1.0 0.2782893424
Co  Co34  1  0.49750000  0.70425000  0.79950000  1.0 0.2782893424
Co  Co35  1  0.50250000  0.20425000  0.70050000  1.0 0.2782893424
Co  Co36  1  0.99750000  0.79575000  0.20050000  1.0 0.2782893424
Co  Co37  1  0.99750000  0.70425000  0.70050000  1.0 0.2782893424
Co  Co38  1  0.70050000  0.99750000  0.70425000  1.0 0.2782893424
Co  Co39  1  0.70425000  0.70050000  0.99750000  1.0 0.2782893424
Co  Co40  1  0.79575000  0.29950000  0.49750000  1.0 0.2782893424
Co  Co41  1  0.20050000  0.50250000  0.29575000  1.0 0.2782893424
Co  Co42  1  0.29575000  0.20050000  0.50250000  1.0 0.2782893424
Co  Co43  1  0.79950000  0.00250000  0.20425000  1.0 0.2782893424
Co  Co44  1  0.29950000  0.49750000  0.79575000  1.0 0.2782893424
Co  Co45  1  0.20425000  0.79950000  0.00250000  1.0 0.2782893424
Co  Co46  1  0.50250000  0.29575000  0.20050000  1.0 0.2782893424
Co  Co47  1  0.49750000  0.79575000  0.29950000  1.0 0.2782893424
Co  Co48  1  0.00250000  0.20425000  0.79950000  1.0 0.2782893424
H  H1  1  0.99690000  0.19510000  0.14070000  1.0 0.0803763987
H  H2  1  0.14070000  0.99690000  0.19510000  1.0 0.0803763987
H  H3  1  0.19510000  0.14070000  0.99690000  1.0 0.0803763987
H  H4  1  0.30490000  0.85930000  0.49690000  1.0 0.0803763987
H  H5  1  0.64070000  0.50310000  0.80490000  1.0 0.0803763987
H  H6  1  0.80490000  0.64070000  0.50310000  1.0 0.0803763987
H  H7  1  0.35930000  0.00310000  0.69510000  1.0 0.0803763987
H  H8  1  0.85930000  0.49690000  0.30490000  1.0 0.0803763987
H  H9  1  0.69510000  0.35930000  0.00310000  1.0 0.0803763987
H  H10  1  0.50310000  0.80490000  0.64070000  1.0 0.0803763987
H  H11  1  0.49690000  0.30490000  0.85930000  1.0 0.0803763987
H  H12  1  0.00310000  0.69510000  0.35930000  1.0 0.0803763987
H  H13  1  0.00310000  0.80490000  0.85930000  1.0 0.0803763987
H  H14  1  0.85930000  0.00310000  0.80490000  1.0 0.0803763987
H  H15  1  0.80490000  0.85930000  0.00310000  1.0 0.0803763987
H  H16  1  0.69510000  0.14070000  0.50310000  1.0 0.0803763987
H  H17  1  0.35930000  0.49690000  0.19510000  1.0 0.0803763987
H  H18  1  0.19510000  0.35930000  0.49690000  1.0 0.0803763987
H  H19  1  0.64070000  0.99690000  0.30490000  1.0 0.0803763987
H  H20  1  0.14070000  0.50310000  0.69510000  1.0 0.0803763987
H  H21  1  0.30490000  0.64070000  0.99690000  1.0 0.0803763987
H  H22  1  0.49690000  0.19510000  0.35930000  1.0 0.0803763987
H  H23  1  0.50310000  0.69510000  0.14070000  1.0 0.0803763987
H  H24  1  0.99690000  0.30490000  0.64070000  1.0 0.0803763987
H  H25  1  0.98480000  0.26420000  0.08120000  1.0 0.0803763987
H  H26  1  0.08120000  0.98480000  0.26420000  1.0 0.0803763987
H  H27  1  0.26420000  0.08120000  0.98480000  1.0 0.0803763987
H  H28  1  0.23580000  0.91880000  0.48480000  1.0 0.0803763987
H  H29  1  0.58120000  0.51520000  0.73580000  1.0 0.0803763987
H  H30  1  0.73580000  0.58120000  0.51520000  1.0 0.0803763987
H  H31  1  0.41880000  0.01520000  0.76420000  1.0 0.0803763987
H  H32  1  0.91880000  0.48480000  0.23580000  1.0 0.0803763987
H  H33  1  0.76420000  0.41880000  0.01520000  1.0 0.0803763987
H  H34  1  0.51520000  0.73580000  0.58120000  1.0 0.0803763987
H  H35  1  0.48480000  0.23580000  0.91880000  1.0 0.0803763987
H  H36  1  0.01520000  0.76420000  0.41880000  1.0 0.0803763987
H  H37  1  0.01520000  0.73580000  0.91880000  1.0 0.0803763987
H  H38  1  0.91880000  0.01520000  0.73580000  1.0 0.0803763987
H  H39  1  0.73580000  0.91880000  0.01520000  1.0 0.0803763987
H  H40  1  0.76420000  0.08120000  0.51520000  1.0 0.0803763987
H  H41  1  0.41880000  0.48480000  0.26420000  1.0 0.0803763987
H  H42  1  0.26420000  0.41880000  0.48480000  1.0 0.0803763987
H  H43  1  0.58120000  0.98480000  0.23580000  1.0 0.0803763987
H  H44  1  0.08120000  0.51520000  0.76420000  1.0 0.0803763987
H  H45  1  0.23580000  0.58120000  0.98480000  1.0 0.0803763987
H  H46  1  0.48480000  0.26420000  0.41880000  1.0 0.0803763987
H  H47  1  0.51520000  0.76420000  0.08120000  1.0 0.0803763987
H  H48  1  0.98480000  0.23580000  0.58120000  1.0 0.0803763987
H  H49  1  0.99210000  0.36100000  0.20250000  1.0 0.0513412451
H  H50  1  0.20250000  0.99210000  0.36100000  1.0 0.0513412451
H  H51  1  0.36100000  0.20250000  0.99210000  1.0 0.0513412451
H  H52  1  0.13900000  0.79750000  0.49210000  1.0 0.0513412451
H  H53  1  0.70250000  0.50790000  0.63900000  1.0 0.0513412451
H  H54  1  0.63900000  0.70250000  0.50790000  1.0 0.0513412451
H  H55  1  0.29750000  0.00790000  0.86100000  1.0 0.0513412451
H  H56  1  0.79750000  0.49210000  0.13900000  1.0 0.0513412451
H  H57  1  0.86100000  0.29750000  0.00790000  1.0 0.0513412451
H  H58  1  0.50790000  0.63900000  0.70250000  1.0 0.0513412451
H  H59  1  0.49210000  0.13900000  0.79750000  1.0 0.0513412451
H  H60  1  0.00790000  0.86100000  0.29750000  1.0 0.0513412451
H  H61  1  0.00790000  0.63900000  0.79750000  1.0 0.0513412451
H  H62  1  0.79750000  0.00790000  0.63900000  1.0 0.0513412451
H  H63  1  0.63900000  0.79750000  0.00790000  1.0 0.0513412451
H  H64  1  0.86100000  0.20250000  0.50790000  1.0 0.0513412451
H  H65  1  0.29750000  0.49210000  0.36100000  1.0 0.0513412451
H  H66  1  0.36100000  0.29750000  0.49210000  1.0 0.0513412451
H  H67  1  0.70250000  0.99210000  0.13900000  1.0 0.0513412451
H  H68  1  0.20250000  0.50790000  0.86100000  1.0 0.0513412451
H  H69  1  0.13900000  0.70250000  0.99210000  1.0 0.0513412451
H  H70  1  0.49210000  0.36100000  0.29750000  1.0 0.0513412451
H  H71  1  0.50790000  0.86100000  0.20250000  1.0 0.0513412451
H  H72  1  0.99210000  0.13900000  0.70250000  1.0 0.0513412451
H  H73  1  0.96740000  0.13570000  0.19790000  1.0 0.0803763987
H  H74  1  0.19790000  0.96740000  0.13570000  1.0 0.0803763987
H  H75  1  0.13570000  0.19790000  0.96740000  1.0 0.0803763987
H  H76  1  0.36430000  0.80210000  0.46740000  1.0 0.0803763987
H  H77  1  0.69790000  0.53260000  0.86430000  1.0 0.0803763987
H  H78  1  0.86430000  0.69790000  0.53260000  1.0 0.0803763987
H  H79  1  0.30210000  0.03260000  0.63570000  1.0 0.0803763987
H  H80  1  0.80210000  0.46740000  0.36430000  1.0 0.0803763987
H  H81  1  0.63570000  0.30210000  0.03260000  1.0 0.0803763987
H  H82  1  0.53260000  0.86430000  0.69790000  1.0 0.0803763987
H  H83  1  0.46740000  0.36430000  0.80210000  1.0 0.0803763987
H  H84  1  0.03260000  0.63570000  0.30210000  1.0 0.0803763987
H  H85  1  0.03260000  0.86430000  0.80210000  1.0 0.0803763987
H  H86  1  0.80210000  0.03260000  0.86430000  1.0 0.0803763987
H  H87  1  0.86430000  0.80210000  0.03260000  1.0 0.0803763987
H  H88  1  0.63570000  0.19790000  0.53260000  1.0 0.0803763987
H  H89  1  0.30210000  0.46740000  0.13570000  1.0 0.0803763987
H  H90  1  0.13570000  0.30210000  0.46740000  1.0 0.0803763987
H  H91  1  0.69790000  0.96740000  0.36430000  1.0 0.0803763987
H  H92  1  0.19790000  0.53260000  0.63570000  1.0 0.0803763987
H  H93  1  0.36430000  0.69790000  0.96740000  1.0 0.0803763987
H  H94  1  0.46740000  0.13570000  0.30210000  1.0 0.0803763987
H  H95  1  0.53260000  0.63570000  0.19790000  1.0 0.0803763987
H  H96  1  0.96740000  0.36430000  0.69790000  1.0 0.0803763987
H  H97  1  0.96930000  0.08150000  0.26150000  1.0 0.0803763987
H  H98  1  0.26150000  0.96930000  0.08150000  1.0 0.0803763987
H  H99  1  0.08150000  0.26150000  0.96930000  1.0 0.0803763987
H  H100  1  0.41850000  0.73850000  0.46930000  1.0 0.0803763987
H  H101  1  0.76150000  0.53070000  0.91850000  1.0 0.0803763987
H  H102  1  0.91850000  0.76150000  0.53070000  1.0 0.0803763987
H  H103  1  0.23850000  0.03070000  0.58150000  1.0 0.0803763987
H  H104  1  0.73850000  0.46930000  0.41850000  1.0 0.0803763987
H  H105  1  0.58150000  0.23850000  0.03070000  1.0 0.0803763987
H  H106  1  0.53070000  0.91850000  0.76150000  1.0 0.0803763987
H  H107  1  0.46930000  0.41850000  0.73850000  1.0 0.0803763987
H  H108  1  0.03070000  0.58150000  0.23850000  1.0 0.0803763987
H  H109  1  0.03070000  0.91850000  0.73850000  1.0 0.0803763987
H  H110  1  0.73850000  0.03070000  0.91850000  1.0 0.0803763987
H  H111  1  0.91850000  0.73850000  0.03070000  1.0 0.0803763987
H  H112  1  0.58150000  0.26150000  0.53070000  1.0 0.0803763987
H  H113  1  0.23850000  0.46930000  0.08150000  1.0 0.0803763987
H  H114  1  0.08150000  0.23850000  0.46930000  1.0 0.0803763987
H  H115  1  0.76150000  0.96930000  0.41850000  1.0 0.0803763987
H  H116  1  0.26150000  0.53070000  0.58150000  1.0 0.0803763987
H  H117  1  0.41850000  0.76150000  0.96930000  1.0 0.0803763987
H  H118  1  0.46930000  0.08150000  0.23850000  1.0 0.0803763987
H  H119  1  0.53070000  0.58150000  0.26150000  1.0 0.0803763987
H  H120  1  0.96930000  0.41850000  0.76150000  1.0 0.0803763987
H  H121  1  0.96330000  0.19890000  0.36170000  1.0 0.0721912452
H  H122  1  0.36170000  0.96330000  0.19890000  1.0 0.0721912452
H  H123  1  0.19890000  0.36170000  0.96330000  1.0 0.0721912452
H  H124  1  0.30110000  0.63830000  0.46330000  1.0 0.0721912452
H  H125  1  0.86170000  0.53670000  0.80110000  1.0 0.0721912452
H  H126  1  0.80110000  0.86170000  0.53670000  1.0 0.0721912452
H  H127  1  0.13830000  0.03670000  0.69890000  1.0 0.0721912452
H  H128  1  0.63830000  0.46330000  0.30110000  1.0 0.0721912452
H  H129  1  0.69890000  0.13830000  0.03670000  1.0 0.0721912452
H  H130  1  0.53670000  0.80110000  0.86170000  1.0 0.0721912452
H  H131  1  0.46330000  0.30110000  0.63830000  1.0 0.0721912452
H  H132  1  0.03670000  0.69890000  0.13830000  1.0 0.0721912452
H  H133  1  0.03670000  0.80110000  0.63830000  1.0 0.0721912452
H  H134  1  0.63830000  0.03670000  0.80110000  1.0 0.0721912452
H  H135  1  0.80110000  0.63830000  0.03670000  1.0 0.0721912452
H  H136  1  0.69890000  0.36170000  0.53670000  1.0 0.0721912452
H  H137  1  0.13830000  0.46330000  0.19890000  1.0 0.0721912452
H  H138  1  0.19890000  0.13830000  0.46330000  1.0 0.0721912452
H  H139  1  0.86170000  0.96330000  0.30110000  1.0 0.0721912452
H  H140  1  0.36170000  0.53670000  0.69890000  1.0 0.0721912452
H  H141  1  0.30110000  0.86170000  0.96330000  1.0 0.0721912452
H  H142  1  0.46330000  0.19890000  0.13830000  1.0 0.0721912452
H  H143  1  0.53670000  0.69890000  0.36170000  1.0 0.0721912452
H  H144  1  0.96330000  0.30110000  0.86170000  1.0 0.0721912452
H  H145  1  0.94480000  0.20130000  0.14110000  1.0 0.0721912452
H  H146  1  0.14110000  0.94480000  0.20130000  1.0 0.0721912452
H  H147  1  0.20130000  0.14110000  0.94480000  1.0 0.0721912452
H  H148  1  0.29870000  0.85890000  0.44480000  1.0 0.0721912452
H  H149  1  0.64110000  0.55520000  0.79870000  1.0 0.0721912452
H  H150  1  0.79870000  0.64110000  0.55520000  1.0 0.0721912452
H  H151  1  0.35890000  0.05520000  0.70130000  1.0 0.0721912452
H  H152  1  0.85890000  0.44480000  0.29870000  1.0 0.0721912452
H  H153  1  0.70130000  0.35890000  0.05520000  1.0 0.0721912452
H  H154  1  0.55520000  0.79870000  0.64110000  1.0 0.0721912452
H  H155  1  0.44480000  0.29870000  0.85890000  1.0 0.0721912452
H  H156  1  0.05520000  0.70130000  0.35890000  1.0 0.0721912452
H  H157  1  0.05520000  0.79870000  0.85890000  1.0 0.0721912452
H  H158  1  0.85890000  0.05520000  0.79870000  1.0 0.0721912452
H  H159  1  0.79870000  0.85890000  0.05520000  1.0 0.0721912452
H  H160  1  0.70130000  0.14110000  0.55520000  1.0 0.0721912452
H  H161  1  0.35890000  0.44480000  0.20130000  1.0 0.0721912452
H  H162  1  0.20130000  0.35890000  0.44480000  1.0 0.0721912452
H  H163  1  0.64110000  0.94480000  0.29870000  1.0 0.0721912452
H  H164  1  0.14110000  0.55520000  0.70130000  1.0 0.0721912452
H  H165  1  0.29870000  0.64110000  0.94480000  1.0 0.0721912452
H  H166  1  0.44480000  0.20130000  0.35890000  1.0 0.0721912452
H  H167  1  0.55520000  0.70130000  0.14110000  1.0 0.0721912452
H  H168  1  0.94480000  0.29870000  0.64110000  1.0 0.0721912452
H  H169  1  0.95280000  0.27000000  0.08400000  1.0 0.0721912452
H  H170  1  0.08400000  0.95280000  0.27000000  1.0 0.0721912452
H  H171  1  0.27000000  0.08400000  0.95280000  1.0 0.0721912452
H  H172  1  0.23000000  0.91600000  0.45280000  1.0 0.0721912452
H  H173  1  0.58400000  0.54720000  0.73000000  1.0 0.0721912452
H  H174  1  0.73000000  0.58400000  0.54720000  1.0 0.0721912452
H  H175  1  0.41600000  0.04720000  0.77000000  1.0 0.0721912452
H  H176  1  0.91600000  0.45280000  0.23000000  1.0 0.0721912452
H  H177  1  0.77000000  0.41600000  0.04720000  1.0 0.0721912452
H  H178  1  0.54720000  0.73000000  0.58400000  1.0 0.0721912452
H  H179  1  0.45280000  0.23000000  0.91600000  1.0 0.0721912452
H  H180  1  0.04720000  0.77000000  0.41600000  1.0 0.0721912452
H  H181  1  0.04720000  0.73000000  0.91600000  1.0 0.0721912452
H  H182  1  0.91600000  0.04720000  0.73000000  1.0 0.0721912452
H  H183  1  0.73000000  0.91600000  0.04720000  1.0 0.0721912452
H  H184  1  0.77000000  0.08400000  0.54720000  1.0 0.0721912452
H  H185  1  0.41600000  0.45280000  0.27000000  1.0 0.0721912452
H  H186  1  0.27000000  0.41600000  0.45280000  1.0 0.0721912452
H  H187  1  0.58400000  0.95280000  0.23000000  1.0 0.0721912452
H  H188  1  0.08400000  0.54720000  0.77000000  1.0 0.0721912452
H  H189  1  0.23000000  0.58400000  0.95280000  1.0 0.0721912452
H  H190  1  0.45280000  0.27000000  0.41600000  1.0 0.0721912452
H  H191  1  0.54720000  0.77000000  0.08400000  1.0 0.0721912452
H  H192  1  0.95280000  0.23000000  0.58400000  1.0 0.0721912452
H  H193  1  0.02060000  0.35190000  0.19480000  1.0 0.0615151567
H  H194  1  0.19480000  0.02060000  0.35190000  1.0 0.0615151567
H  H195  1  0.35190000  0.19480000  0.02060000  1.0 0.0615151567
H  H196  1  0.14810000  0.80520000  0.52060000  1.0 0.0615151567
H  H197  1  0.69480000  0.47940000  0.64810000  1.0 0.0615151567
H  H198  1  0.64810000  0.69480000  0.47940000  1.0 0.0615151567
H  H199  1  0.30520000  0.97940000  0.85190000  1.0 0.0615151567
H  H200  1  0.80520000  0.52060000  0.14810000  1.0 0.0615151567
H  H201  1  0.85190000  0.30520000  0.97940000  1.0 0.0615151567
H  H202  1  0.47940000  0.64810000  0.69480000  1.0 0.0615151567
H  H203  1  0.52060000  0.14810000  0.80520000  1.0 0.0615151567
H  H204  1  0.97940000  0.85190000  0.30520000  1.0 0.0615151567
H  H205  1  0.97940000  0.64810000  0.80520000  1.0 0.0615151567
H  H206  1  0.80520000  0.97940000  0.64810000  1.0 0.0615151567
H  H207  1  0.64810000  0.80520000  0.97940000  1.0 0.0615151567
H  H208  1  0.85190000  0.19480000  0.47940000  1.0 0.0615151567
H  H209  1  0.30520000  0.52060000  0.35190000  1.0 0.0615151567
H  H210  1  0.35190000  0.30520000  0.52060000  1.0 0.0615151567
H  H211  1  0.69480000  0.02060000  0.14810000  1.0 0.0615151567
H  H212  1  0.19480000  0.47940000  0.85190000  1.0 0.0615151567
H  H213  1  0.14810000  0.69480000  0.02060000  1.0 0.0615151567
H  H214  1  0.52060000  0.35190000  0.30520000  1.0 0.0615151567
H  H215  1  0.47940000  0.85190000  0.19480000  1.0 0.0615151567
H  H216  1  0.02060000  0.14810000  0.69480000  1.0 0.0615151567
H  H217  1  0.93000000  0.14660000  0.20390000  1.0 0.0803763987
H  H218  1  0.20390000  0.93000000  0.14660000  1.0 0.0803763987
H  H219  1  0.14660000  0.20390000  0.93000000  1.0 0.0803763987
H  H220  1  0.35340000  0.79610000  0.43000000  1.0 0.0803763987
H  H221  1  0.70390000  0.57000000  0.85340000  1.0 0.0803763987
H  H222  1  0.85340000  0.70390000  0.57000000  1.0 0.0803763987
H  H223  1  0.29610000  0.07000000  0.64660000  1.0 0.0803763987
H  H224  1  0.79610000  0.43000000  0.35340000  1.0 0.0803763987
H  H225  1  0.64660000  0.29610000  0.07000000  1.0 0.0803763987
H  H226  1  0.57000000  0.85340000  0.70390000  1.0 0.0803763987
H  H227  1  0.43000000  0.35340000  0.79610000  1.0 0.0803763987
H  H228  1  0.07000000  0.64660000  0.29610000  1.0 0.0803763987
H  H229  1  0.07000000  0.85340000  0.79610000  1.0 0.0803763987
H  H230  1  0.79610000  0.07000000  0.85340000  1.0 0.0803763987
H  H231  1  0.85340000  0.79610000  0.07000000  1.0 0.0803763987
H  H232  1  0.64660000  0.20390000  0.57000000  1.0 0.0803763987
H  H233  1  0.29610000  0.43000000  0.14660000  1.0 0.0803763987
H  H234  1  0.14660000  0.29610000  0.43000000  1.0 0.0803763987
H  H235  1  0.70390000  0.93000000  0.35340000  1.0 0.0803763987
H  H236  1  0.20390000  0.57000000  0.64660000  1.0 0.0803763987
H  H237  1  0.35340000  0.70390000  0.93000000  1.0 0.0803763987
H  H238  1  0.43000000  0.14660000  0.29610000  1.0 0.0803763987
H  H239  1  0.57000000  0.64660000  0.20390000  1.0 0.0803763987
H  H240  1  0.93000000  0.35340000  0.70390000  1.0 0.0803763987
H  H241  1  0.93760000  0.08340000  0.26880000  1.0 0.0721912452
H  H242  1  0.26880000  0.93760000  0.08340000  1.0 0.0721912452
H  H243  1  0.08340000  0.26880000  0.93760000  1.0 0.0721912452
H  H244  1  0.41660000  0.73120000  0.43760000  1.0 0.0721912452
H  H245  1  0.76880000  0.56240000  0.91660000  1.0 0.0721912452
H  H246  1  0.91660000  0.76880000  0.56240000  1.0 0.0721912452
H  H247  1  0.23120000  0.06240000  0.58340000  1.0 0.0721912452
H  H248  1  0.73120000  0.43760000  0.41660000  1.0 0.0721912452
H  H249  1  0.58340000  0.23120000  0.06240000  1.0 0.0721912452
H  H250  1  0.56240000  0.91660000  0.76880000  1.0 0.0721912452
H  H251  1  0.43760000  0.41660000  0.73120000  1.0 0.0721912452
H  H252  1  0.06240000  0.58340000  0.23120000  1.0 0.0721912452
H  H253  1  0.06240000  0.91660000  0.73120000  1.0 0.0721912452
H  H254  1  0.73120000  0.06240000  0.91660000  1.0 0.0721912452
H  H255  1  0.91660000  0.73120000  0.06240000  1.0 0.0721912452
H  H256  1  0.58340000  0.26880000  0.56240000  1.0 0.0721912452
H  H257  1  0.23120000  0.43760000  0.08340000  1.0 0.0721912452
H  H258  1  0.08340000  0.23120000  0.43760000  1.0 0.0721912452
H  H259  1  0.76880000  0.93760000  0.41660000  1.0 0.0721912452
H  H260  1  0.26880000  0.56240000  0.58340000  1.0 0.0721912452
H  H261  1  0.41660000  0.76880000  0.93760000  1.0 0.0721912452
H  H262  1  0.43760000  0.08340000  0.23120000  1.0 0.0721912452
H  H263  1  0.56240000  0.58340000  0.26880000  1.0 0.0721912452
H  H264  1  0.93760000  0.41660000  0.76880000  1.0 0.0721912452
H  H265  1  0.99230000  0.19300000  0.36200000  1.0 0.0615151567
H  H266  1  0.36200000  0.99230000  0.19300000  1.0 0.0615151567
H  H267  1  0.19300000  0.36200000  0.99230000  1.0 0.0615151567
H  H268  1  0.30700000  0.63800000  0.49230000  1.0 0.0615151567
H  H269  1  0.86200000  0.50770000  0.80700000  1.0 0.0615151567
H  H270  1  0.80700000  0.86200000  0.50770000  1.0 0.0615151567
H  H271  1  0.13800000  0.00770000  0.69300000  1.0 0.0615151567
H  H272  1  0.63800000  0.49230000  0.30700000  1.0 0.0615151567
H  H273  1  0.69300000  0.13800000  0.00770000  1.0 0.0615151567
H  H274  1  0.50770000  0.80700000  0.86200000  1.0 0.0615151567
H  H275  1  0.49230000  0.30700000  0.63800000  1.0 0.0615151567
H  H276  1  0.00770000  0.69300000  0.13800000  1.0 0.0615151567
H  H277  1  0.00770000  0.80700000  0.63800000  1.0 0.0615151567
H  H278  1  0.63800000  0.00770000  0.80700000  1.0 0.0615151567
H  H279  1  0.80700000  0.63800000  0.00770000  1.0 0.0615151567
H  H280  1  0.69300000  0.36200000  0.50770000  1.0 0.0615151567
H  H281  1  0.13800000  0.49230000  0.19300000  1.0 0.0615151567
H  H282  1  0.19300000  0.13800000  0.49230000  1.0 0.0615151567
H  H283  1  0.86200000  0.99230000  0.30700000  1.0 0.0615151567
H  H284  1  0.36200000  0.50770000  0.69300000  1.0 0.0615151567
H  H285  1  0.30700000  0.86200000  0.99230000  1.0 0.0615151567
H  H286  1  0.49230000  0.19300000  0.13800000  1.0 0.0615151567
H  H287  1  0.50770000  0.69300000  0.36200000  1.0 0.0615151567
H  H288  1  0.99230000  0.30700000  0.86200000  1.0 0.0615151567
C  C1  1  0.98600000  0.31957000  0.13527000  1.0 -0.0806434698
C  C2  1  0.13527000  0.98600000  0.31957000  1.0 -0.0806434698
C  C3  1  0.31957000  0.13527000  0.98600000  1.0 -0.0806434698
C  C4  1  0.18043000  0.86473000  0.48600000  1.0 -0.0806434698
C  C5  1  0.63527000  0.51400000  0.68043000  1.0 -0.0806434698
C  C6  1  0.68043000  0.63527000  0.51400000  1.0 -0.0806434698
C  C7  1  0.36473000  0.01400000  0.81957000  1.0 -0.0806434698
C  C8  1  0.86473000  0.48600000  0.18043000  1.0 -0.0806434698
C  C9  1  0.81957000  0.36473000  0.01400000  1.0 -0.0806434698
C  C10  1  0.51400000  0.68043000  0.63527000  1.0 -0.0806434698
C  C11  1  0.48600000  0.18043000  0.86473000  1.0 -0.0806434698
C  C12  1  0.01400000  0.81957000  0.36473000  1.0 -0.0806434698
C  C13  1  0.01400000  0.68043000  0.86473000  1.0 -0.0806434698
C  C14  1  0.86473000  0.01400000  0.68043000  1.0 -0.0806434698
C  C15  1  0.68043000  0.86473000  0.01400000  1.0 -0.0806434698
C  C16  1  0.81957000  0.13527000  0.51400000  1.0 -0.0806434698
C  C17  1  0.36473000  0.48600000  0.31957000  1.0 -0.0806434698
C  C18  1  0.31957000  0.36473000  0.48600000  1.0 -0.0806434698
C  C19  1  0.63527000  0.98600000  0.18043000  1.0 -0.0806434698
C  C20  1  0.13527000  0.51400000  0.81957000  1.0 -0.0806434698
C  C21  1  0.18043000  0.63527000  0.98600000  1.0 -0.0806434698
C  C22  1  0.48600000  0.31957000  0.36473000  1.0 -0.0806434698
C  C23  1  0.51400000  0.81957000  0.13527000  1.0 -0.0806434698
C  C24  1  0.98600000  0.18043000  0.63527000  1.0 -0.0806434698
C  C25  1  0.99375000  0.36352000  0.10039000  1.0 0.4067840959
C  C26  1  0.10039000  0.99375000  0.36352000  1.0 0.3998235708
C  C27  1  0.36352000  0.10039000  0.99375000  1.0 0.4067840959
C  C28  1  0.13648000  0.89961000  0.49375000  1.0 0.3998235708
C  C29  1  0.60039000  0.50625000  0.63648000  1.0 0.4067840959
C  C30  1  0.63648000  0.60039000  0.50625000  1.0 0.4067840959
C  C31  1  0.39961000  0.00625000  0.86352000  1.0 0.4067840959
C  C32  1  0.89961000  0.49375000  0.13648000  1.0 0.4067840959
C  C33  1  0.86352000  0.39961000  0.00625000  1.0 0.4067840959
C  C34  1  0.50625000  0.63648000  0.60039000  1.0 0.4067840959
C  C35  1  0.49375000  0.13648000  0.89961000  1.0 0.4067840959
C  C36  1  0.00625000  0.86352000  0.39961000  1.0 0.3998235708
C  C37  1  0.00625000  0.63648000  0.89961000  1.0 0.3998235708
C  C38  1  0.89961000  0.00625000  0.63648000  1.0 0.4067840959
C  C39  1  0.63648000  0.89961000  0.00625000  1.0 0.3998235708
C  C40  1  0.86352000  0.10039000  0.50625000  1.0 0.4067840959
C  C41  1  0.39961000  0.49375000  0.36352000  1.0 0.3998235708
C  C42  1  0.36352000  0.39961000  0.49375000  1.0 0.4067840959
C  C43  1  0.60039000  0.99375000  0.13648000  1.0 0.4067840959
C  C44  1  0.10039000  0.50625000  0.86352000  1.0 0.3998235708
C  C45  1  0.13648000  0.60039000  0.99375000  1.0 0.3998235708
C  C46  1  0.49375000  0.36352000  0.39961000  1.0 0.4067840959
C  C47  1  0.50625000  0.86352000  0.10039000  1.0 0.3998235708
C  C48  1  0.99375000  0.13648000  0.60039000  1.0 0.4067840959
C  C49  1  0.96350000  0.13380000  0.32180000  1.0 -0.05405808
C  C50  1  0.32180000  0.96350000  0.13380000  1.0 -0.05405808
C  C51  1  0.13380000  0.32180000  0.96350000  1.0 -0.05405808
C  C52  1  0.36620000  0.67820000  0.46350000  1.0 -0.05405808
C  C53  1  0.82180000  0.53650000  0.86620000  1.0 -0.05405808
C  C54  1  0.86620000  0.82180000  0.53650000  1.0 -0.05405808
C  C55  1  0.17820000  0.03650000  0.63380000  1.0 -0.05405808
C  C56  1  0.67820000  0.46350000  0.36620000  1.0 -0.05405808
C  C57  1  0.63380000  0.17820000  0.03650000  1.0 -0.05405808
C  C58  1  0.53650000  0.86620000  0.82180000  1.0 -0.05405808
C  C59  1  0.46350000  0.36620000  0.67820000  1.0 -0.05405808
C  C60  1  0.03650000  0.63380000  0.17820000  1.0 -0.05405808
C  C61  1  0.03650000  0.86620000  0.67820000  1.0 -0.05405808
C  C62  1  0.67820000  0.03650000  0.86620000  1.0 -0.05405808
C  C63  1  0.86620000  0.67820000  0.03650000  1.0 -0.05405808
C  C64  1  0.63380000  0.32180000  0.53650000  1.0 -0.05405808
C  C65  1  0.17820000  0.46350000  0.13380000  1.0 -0.05405808
C  C66  1  0.13380000  0.17820000  0.46350000  1.0 -0.05405808
C  C67  1  0.82180000  0.96350000  0.36620000  1.0 -0.05405808
C  C68  1  0.32180000  0.53650000  0.63380000  1.0 -0.05405808
C  C69  1  0.36620000  0.82180000  0.96350000  1.0 -0.05405808
C  C70  1  0.46350000  0.13380000  0.17820000  1.0 -0.05405808
C  C71  1  0.53650000  0.63380000  0.32180000  1.0 -0.05405808
C  C72  1  0.96350000  0.36620000  0.82180000  1.0 -0.05405808
C  C73  1  0.96720000  0.09846000  0.36590000  1.0 0.3998235708
C  C74  1  0.36590000  0.96720000  0.09846000  1.0 0.3998235708
C  C75  1  0.09846000  0.36590000  0.96720000  1.0 0.3998235708
C  C76  1  0.40154000  0.63410000  0.46720000  1.0 0.3998235708
C  C77  1  0.86590000  0.53280000  0.90154000  1.0 0.3998235708
C  C78  1  0.90154000  0.86590000  0.53280000  1.0 0.3998235708
C  C79  1  0.13410000  0.03280000  0.59846000  1.0 0.3998235708
C  C80  1  0.63410000  0.46720000  0.40154000  1.0 0.3998235708
C  C81  1  0.59846000  0.13410000  0.03280000  1.0 0.3998235708
C  C82  1  0.53280000  0.90154000  0.86590000  1.0 0.3998235708
C  C83  1  0.46720000  0.40154000  0.63410000  1.0 0.3998235708
C  C84  1  0.03280000  0.59846000  0.13410000  1.0 0.3998235708
C  C85  1  0.03280000  0.90154000  0.63410000  1.0 0.3998235708
C  C86  1  0.63410000  0.03280000  0.90154000  1.0 0.3998235708
C  C87  1  0.90154000  0.63410000  0.03280000  1.0 0.3998235708
C  C88  1  0.59846000  0.36590000  0.53280000  1.0 0.3998235708
C  C89  1  0.13410000  0.46720000  0.09846000  1.0 0.3998235708
C  C90  1  0.09846000  0.13410000  0.46720000  1.0 0.3998235708
C  C91  1  0.86590000  0.96720000  0.40154000  1.0 0.3998235708
C  C92  1  0.36590000  0.53280000  0.59846000  1.0 0.3998235708
C  C93  1  0.40154000  0.86590000  0.96720000  1.0 0.3998235708
C  C94  1  0.46720000  0.09846000  0.13410000  1.0 0.3998235708
C  C95  1  0.53280000  0.59846000  0.36590000  1.0 0.3998235708
C  C96  1  0.96720000  0.40154000  0.86590000  1.0 0.3998235708
C  C97  1  0.97310000  0.24160000  0.20330000  1.0 0.0615151567
C  C98  1  0.20330000  0.97310000  0.24160000  1.0 0.0615151567
C  C99  1  0.24160000  0.20330000  0.97310000  1.0 0.0615151567
C  C100  1  0.25840000  0.79670000  0.47310000  1.0 0.0615151567
C  C101  1  0.70330000  0.52690000  0.75840000  1.0 0.0615151567
C  C102  1  0.75840000  0.70330000  0.52690000  1.0 0.0615151567
C  C103  1  0.29670000  0.02690000  0.74160000  1.0 0.0615151567
C  C104  1  0.79670000  0.47310000  0.25840000  1.0 0.0615151567
C  C105  1  0.74160000  0.29670000  0.02690000  1.0 0.0615151567
C  C106  1  0.52690000  0.75840000  0.70330000  1.0 0.0615151567
C  C107  1  0.47310000  0.25840000  0.79670000  1.0 0.0615151567
C  C108  1  0.02690000  0.74160000  0.29670000  1.0 0.0615151567
C  C109  1  0.02690000  0.75840000  0.79670000  1.0 0.0615151567
C  C110  1  0.79670000  0.02690000  0.75840000  1.0 0.0615151567
C  C111  1  0.75840000  0.79670000  0.02690000  1.0 0.0615151567
C  C112  1  0.74160000  0.20330000  0.52690000  1.0 0.0615151567
C  C113  1  0.29670000  0.47310000  0.24160000  1.0 0.0615151567
C  C114  1  0.24160000  0.29670000  0.47310000  1.0 0.0615151567
C  C115  1  0.70330000  0.97310000  0.25840000  1.0 0.0615151567
C  C116  1  0.20330000  0.52690000  0.74160000  1.0 0.0615151567
C  C117  1  0.25840000  0.70330000  0.97310000  1.0 0.0615151567
C  C118  1  0.47310000  0.24160000  0.29670000  1.0 0.0615151567
C  C119  1  0.52690000  0.74160000  0.20330000  1.0 0.0615151567
C  C120  1  0.97310000  0.25840000  0.70330000  1.0 0.0615151567
C  C121  1  0.96750000  0.20150000  0.24270000  1.0 0.0721912452
C  C122  1  0.24270000  0.96750000  0.20150000  1.0 0.0721912452
C  C123  1  0.20150000  0.24270000  0.96750000  1.0 0.0615151567
C  C124  1  0.29850000  0.75730000  0.46750000  1.0 0.0721912452
C  C125  1  0.74270000  0.53250000  0.79850000  1.0 0.0721912452
C  C126  1  0.79850000  0.74270000  0.53250000  1.0 0.0721912452
C  C127  1  0.25730000  0.03250000  0.70150000  1.0 0.0721912452
C  C128  1  0.75730000  0.46750000  0.29850000  1.0 0.0721912452
C  C129  1  0.70150000  0.25730000  0.03250000  1.0 0.0721912452
C  C130  1  0.53250000  0.79850000  0.74270000  1.0 0.0721912452
C  C131  1  0.46750000  0.29850000  0.75730000  1.0 0.0721912452
C  C132  1  0.03250000  0.70150000  0.25730000  1.0 0.0721912452
C  C133  1  0.03250000  0.79850000  0.75730000  1.0 0.0615151567
C  C134  1  0.75730000  0.03250000  0.79850000  1.0 0.0721912452
C  C135  1  0.79850000  0.75730000  0.03250000  1.0 0.0721912452
C  C136  1  0.70150000  0.24270000  0.53250000  1.0 0.0721912452
C  C137  1  0.25730000  0.46750000  0.20150000  1.0 0.0721912452
C  C138  1  0.20150000  0.25730000  0.46750000  1.0 0.0721912452
C  C139  1  0.74270000  0.96750000  0.29850000  1.0 0.0721912452
C  C140  1  0.24270000  0.53250000  0.70150000  1.0 0.0615151567
C  C141  1  0.29850000  0.74270000  0.96750000  1.0 0.0615151567
C  C142  1  0.46750000  0.20150000  0.25730000  1.0 0.0721912452
C  C143  1  0.53250000  0.70150000  0.24270000  1.0 0.0721912452
C  C144  1  0.96750000  0.29850000  0.74270000  1.0 0.0721912452
C  C145  1  0.98760000  0.22810000  0.15050000  1.0 -0.0640150079
C  C146  1  0.15050000  0.98760000  0.22810000  1.0 -0.0640150079
C  C147  1  0.22810000  0.15050000  0.98760000  1.0 -0.0640150079
C  C148  1  0.27190000  0.84950000  0.48760000  1.0 -0.0640150079
C  C149  1  0.65050000  0.51240000  0.77190000  1.0 -0.0640150079
C  C150  1  0.77190000  0.65050000  0.51240000  1.0 -0.0640150079
C  C151  1  0.34950000  0.01240000  0.72810000  1.0 -0.0640150079
C  C152  1  0.84950000  0.48760000  0.27190000  1.0 -0.0640150079
C  C153  1  0.72810000  0.34950000  0.01240000  1.0 -0.0640150079
C  C154  1  0.51240000  0.77190000  0.65050000  1.0 -0.0640150079
C  C155  1  0.48760000  0.27190000  0.84950000  1.0 -0.0640150079
C  C156  1  0.01240000  0.72810000  0.34950000  1.0 -0.0653333197
C  C157  1  0.01240000  0.77190000  0.84950000  1.0 -0.0653333197
C  C158  1  0.84950000  0.01240000  0.77190000  1.0 -0.0640150079
C  C159  1  0.77190000  0.84950000  0.01240000  1.0 -0.0640150079
C  C160  1  0.72810000  0.15050000  0.51240000  1.0 -0.0640150079
C  C161  1  0.34950000  0.48760000  0.22810000  1.0 -0.0640150079
C  C162  1  0.22810000  0.34950000  0.48760000  1.0 -0.0640150079
C  C163  1  0.65050000  0.98760000  0.27190000  1.0 -0.0640150079
C  C164  1  0.15050000  0.51240000  0.72810000  1.0 -0.0640150079
C  C165  1  0.27190000  0.65050000  0.98760000  1.0 -0.0640150079
C  C166  1  0.48760000  0.22810000  0.34950000  1.0 -0.0640150079
C  C167  1  0.51240000  0.72810000  0.15050000  1.0 -0.0640150079
C  C168  1  0.98760000  0.27190000  0.65050000  1.0 -0.0640150079
C  C169  1  0.98590000  0.26990000  0.11640000  1.0 -0.0416771715
C  C170  1  0.11640000  0.98590000  0.26990000  1.0 -0.0416771715
C  C171  1  0.26990000  0.11640000  0.98590000  1.0 -0.0416771715
C  C172  1  0.23010000  0.88360000  0.48590000  1.0 -0.0416771715
C  C173  1  0.61640000  0.51410000  0.73010000  1.0 -0.0416771715
C  C174  1  0.73010000  0.61640000  0.51410000  1.0 -0.0416771715
C  C175  1  0.38360000  0.01410000  0.76990000  1.0 -0.0416771715
C  C176  1  0.88360000  0.48590000  0.23010000  1.0 -0.0416771715
C  C177  1  0.76990000  0.38360000  0.01410000  1.0 -0.0416771715
C  C178  1  0.51410000  0.73010000  0.61640000  1.0 -0.0416771715
C  C179  1  0.48590000  0.23010000  0.88360000  1.0 -0.0416771715
C  C180  1  0.01410000  0.76990000  0.38360000  1.0 -0.0416771715
C  C181  1  0.01410000  0.73010000  0.88360000  1.0 -0.0416771715
C  C182  1  0.88360000  0.01410000  0.73010000  1.0 -0.0416771715
C  C183  1  0.73010000  0.88360000  0.01410000  1.0 -0.0416771715
C  C184  1  0.76990000  0.11640000  0.51410000  1.0 -0.0416771715
C  C185  1  0.38360000  0.48590000  0.26990000  1.0 -0.0416771715
C  C186  1  0.26990000  0.38360000  0.48590000  1.0 -0.0416771715
C  C187  1  0.61640000  0.98590000  0.23010000  1.0 -0.0416771715
C  C188  1  0.11640000  0.51410000  0.76990000  1.0 -0.0416771715
C  C189  1  0.23010000  0.61640000  0.98590000  1.0 -0.0416771715
C  C190  1  0.48590000  0.26990000  0.38360000  1.0 -0.0416771715
C  C191  1  0.51410000  0.76990000  0.11640000  1.0 -0.0416771715
C  C192  1  0.98590000  0.23010000  0.61640000  1.0 -0.0416771715
C  C193  1  0.98500000  0.32850000  0.18950000  1.0 0.0426585955
C  C194  1  0.18950000  0.98500000  0.32850000  1.0 0.0426585955
C  C195  1  0.32850000  0.18950000  0.98500000  1.0 0.0426585955
C  C196  1  0.17150000  0.81050000  0.48500000  1.0 0.0426585955
C  C197  1  0.68950000  0.51500000  0.67150000  1.0 0.0426585955
C  C198  1  0.67150000  0.68950000  0.51500000  1.0 0.0426585955
C  C199  1  0.31050000  0.01500000  0.82850000  1.0 0.0426585955
C  C200  1  0.81050000  0.48500000  0.17150000  1.0 0.0426585955
C  C201  1  0.82850000  0.31050000  0.01500000  1.0 0.0426585955
C  C202  1  0.51500000  0.67150000  0.68950000  1.0 0.0426585955
C  C203  1  0.48500000  0.17150000  0.81050000  1.0 0.0426585955
C  C204  1  0.01500000  0.82850000  0.31050000  1.0 0.0426585955
C  C205  1  0.01500000  0.67150000  0.81050000  1.0 0.0426585955
C  C206  1  0.81050000  0.01500000  0.67150000  1.0 0.0426585955
C  C207  1  0.67150000  0.81050000  0.01500000  1.0 0.0426585955
C  C208  1  0.82850000  0.18950000  0.51500000  1.0 0.0426585955
C  C209  1  0.31050000  0.48500000  0.32850000  1.0 0.0426585955
C  C210  1  0.32850000  0.31050000  0.48500000  1.0 0.0426585955
C  C211  1  0.68950000  0.98500000  0.17150000  1.0 0.0426585955
C  C212  1  0.18950000  0.51500000  0.82850000  1.0 0.0426585955
C  C213  1  0.17150000  0.68950000  0.98500000  1.0 0.0426585955
C  C214  1  0.48500000  0.32850000  0.31050000  1.0 0.0426585955
C  C215  1  0.51500000  0.82850000  0.18950000  1.0 0.0426585955
C  C216  1  0.98500000  0.17150000  0.68950000  1.0 0.0426585955
C  C217  1  0.96730000  0.14740000  0.23160000  1.0 -0.030334162
C  C218  1  0.23160000  0.96730000  0.14740000  1.0 -0.030334162
C  C219  1  0.14740000  0.23160000  0.96730000  1.0 -0.030334162
C  C220  1  0.35260000  0.76840000  0.46730000  1.0 -0.030334162
C  C221  1  0.73160000  0.53270000  0.85260000  1.0 -0.030334162
C  C222  1  0.85260000  0.73160000  0.53270000  1.0 -0.030334162
C  C223  1  0.26840000  0.03270000  0.64740000  1.0 -0.030334162
C  C224  1  0.76840000  0.46730000  0.35260000  1.0 -0.030334162
C  C225  1  0.64740000  0.26840000  0.03270000  1.0 -0.030334162
C  C226  1  0.53270000  0.85260000  0.73160000  1.0 -0.030334162
C  C227  1  0.46730000  0.35260000  0.76840000  1.0 -0.030334162
C  C228  1  0.03270000  0.64740000  0.26840000  1.0 -0.030334162
C  C229  1  0.03270000  0.85260000  0.76840000  1.0 -0.030334162
C  C230  1  0.76840000  0.03270000  0.85260000  1.0 -0.030334162
C  C231  1  0.85260000  0.76840000  0.03270000  1.0 -0.030334162
C  C232  1  0.64740000  0.23160000  0.53270000  1.0 -0.030334162
C  C233  1  0.26840000  0.46730000  0.14740000  1.0 -0.030334162
C  C234  1  0.14740000  0.26840000  0.46730000  1.0 -0.030334162
C  C235  1  0.73160000  0.96730000  0.35260000  1.0 -0.030334162
C  C236  1  0.23160000  0.53270000  0.64740000  1.0 -0.030334162
C  C237  1  0.35260000  0.73160000  0.96730000  1.0 -0.030334162
C  C238  1  0.46730000  0.14740000  0.26840000  1.0 -0.030334162
C  C239  1  0.53270000  0.64740000  0.23160000  1.0 -0.030334162
C  C240  1  0.96730000  0.35260000  0.73160000  1.0 -0.030334162
C  C241  1  0.96710000  0.11640000  0.26820000  1.0 -0.0416771715
C  C242  1  0.26820000  0.96710000  0.11640000  1.0 -0.0416771715
C  C243  1  0.11640000  0.26820000  0.96710000  1.0 -0.0416771715
C  C244  1  0.38360000  0.73180000  0.46710000  1.0 -0.0416771715
C  C245  1  0.76820000  0.53290000  0.88360000  1.0 -0.0416771715
C  C246  1  0.88360000  0.76820000  0.53290000  1.0 -0.0416771715
C  C247  1  0.23180000  0.03290000  0.61640000  1.0 -0.0416771715
C  C248  1  0.73180000  0.46710000  0.38360000  1.0 -0.0416771715
C  C249  1  0.61640000  0.23180000  0.03290000  1.0 -0.0416771715
C  C250  1  0.53290000  0.88360000  0.76820000  1.0 -0.0416771715
C  C251  1  0.46710000  0.38360000  0.73180000  1.0 -0.0416771715
C  C252  1  0.03290000  0.61640000  0.23180000  1.0 -0.0416771715
C  C253  1  0.03290000  0.88360000  0.73180000  1.0 -0.0416771715
C  C254  1  0.73180000  0.03290000  0.88360000  1.0 -0.0416771715
C  C255  1  0.88360000  0.73180000  0.03290000  1.0 -0.0416771715
C  C256  1  0.61640000  0.26820000  0.53290000  1.0 -0.0416771715
C  C257  1  0.23180000  0.46710000  0.11640000  1.0 -0.0416771715
C  C258  1  0.11640000  0.23180000  0.46710000  1.0 -0.0416771715
C  C259  1  0.76820000  0.96710000  0.38360000  1.0 -0.0416771715
C  C260  1  0.26820000  0.53290000  0.61640000  1.0 -0.0416771715
C  C261  1  0.38360000  0.76820000  0.96710000  1.0 -0.0416771715
C  C262  1  0.46710000  0.11640000  0.23180000  1.0 -0.0416771715
C  C263  1  0.53290000  0.61640000  0.26820000  1.0 -0.0416771715
C  C264  1  0.96710000  0.38360000  0.76820000  1.0 -0.0416771715
C  C265  1  0.96460000  0.18580000  0.32860000  1.0 0.0269946447
C  C266  1  0.32860000  0.96460000  0.18580000  1.0 0.0269946447
C  C267  1  0.18580000  0.32860000  0.96460000  1.0 0.0269946447
C  C268  1  0.31420000  0.67140000  0.46460000  1.0 0.0269946447
C  C269  1  0.82860000  0.53540000  0.81420000  1.0 0.0269946447
C  C270  1  0.81420000  0.82860000  0.53540000  1.0 0.0269946447
C  C271  1  0.17140000  0.03540000  0.68580000  1.0 0.0269946447
C  C272  1  0.67140000  0.46460000  0.31420000  1.0 0.0269946447
C  C273  1  0.68580000  0.17140000  0.03540000  1.0 0.0269946447
C  C274  1  0.53540000  0.81420000  0.82860000  1.0 0.0269946447
C  C275  1  0.46460000  0.31420000  0.67140000  1.0 0.0269946447
C  C276  1  0.03540000  0.68580000  0.17140000  1.0 0.0269946447
C  C277  1  0.03540000  0.81420000  0.67140000  1.0 0.0269946447
C  C278  1  0.67140000  0.03540000  0.81420000  1.0 0.0269946447
C  C279  1  0.81420000  0.67140000  0.03540000  1.0 0.0269946447
C  C280  1  0.68580000  0.32860000  0.53540000  1.0 0.0269946447
C  C281  1  0.17140000  0.46460000  0.18580000  1.0 0.0269946447
C  C282  1  0.18580000  0.17140000  0.46460000  1.0 0.0269946447
C  C283  1  0.82860000  0.96460000  0.31420000  1.0 0.0269946447
C  C284  1  0.32860000  0.53540000  0.68580000  1.0 0.0269946447
C  C285  1  0.31420000  0.82860000  0.96460000  1.0 0.0269946447
C  C286  1  0.46460000  0.18580000  0.17140000  1.0 0.0269946447
C  C287  1  0.53540000  0.68580000  0.32860000  1.0 0.0269946447
C  C288  1  0.96460000  0.31420000  0.82860000  1.0 0.0269946447
C  C289  1  0.95790000  0.23280000  0.15160000  1.0 -0.0806434698
C  C290  1  0.15160000  0.95790000  0.23280000  1.0 -0.0806434698
C  C291  1  0.23280000  0.15160000  0.95790000  1.0 -0.0806434698
C  C292  1  0.26720000  0.84840000  0.45790000  1.0 -0.0806434698
C  C293  1  0.65160000  0.54210000  0.76720000  1.0 -0.0806434698
C  C294  1  0.76720000  0.65160000  0.54210000  1.0 -0.0806434698
C  C295  1  0.34840000  0.04210000  0.73280000  1.0 -0.0806434698
C  C296  1  0.84840000  0.45790000  0.26720000  1.0 -0.0806434698
C  C297  1  0.73280000  0.34840000  0.04210000  1.0 -0.0806434698
C  C298  1  0.54210000  0.76720000  0.65160000  1.0 -0.0806434698
C  C299  1  0.45790000  0.26720000  0.84840000  1.0 -0.0806434698
C  C300  1  0.04210000  0.73280000  0.34840000  1.0 -0.0806434698
C  C301  1  0.04210000  0.76720000  0.84840000  1.0 -0.0806434698
C  C302  1  0.84840000  0.04210000  0.76720000  1.0 -0.0806434698
C  C303  1  0.76720000  0.84840000  0.04210000  1.0 -0.0806434698
C  C304  1  0.73280000  0.15160000  0.54210000  1.0 -0.0806434698
C  C305  1  0.34840000  0.45790000  0.23280000  1.0 -0.0806434698
C  C306  1  0.23280000  0.34840000  0.45790000  1.0 -0.0806434698
C  C307  1  0.65160000  0.95790000  0.26720000  1.0 -0.0806434698
C  C308  1  0.15160000  0.54210000  0.73280000  1.0 -0.0806434698
C  C309  1  0.26720000  0.65160000  0.95790000  1.0 -0.0806434698
C  C310  1  0.45790000  0.23280000  0.34840000  1.0 -0.0806434698
C  C311  1  0.54210000  0.73280000  0.15160000  1.0 -0.0806434698
C  C312  1  0.95790000  0.26720000  0.65160000  1.0 -0.0806434698
C  C313  1  0.96360000  0.27320000  0.11790000  1.0 -0.030334162
C  C314  1  0.11790000  0.96360000  0.27320000  1.0 -0.030334162
C  C315  1  0.27320000  0.11790000  0.96360000  1.0 -0.030334162
C  C316  1  0.22680000  0.88210000  0.46360000  1.0 -0.030334162
C  C317  1  0.61790000  0.53640000  0.72680000  1.0 -0.030334162
C  C318  1  0.72680000  0.61790000  0.53640000  1.0 -0.030334162
C  C319  1  0.38210000  0.03640000  0.77320000  1.0 -0.030334162
C  C320  1  0.88210000  0.46360000  0.22680000  1.0 -0.030334162
C  C321  1  0.77320000  0.38210000  0.03640000  1.0 -0.030334162
C  C322  1  0.53640000  0.72680000  0.61790000  1.0 -0.030334162
C  C323  1  0.46360000  0.22680000  0.88210000  1.0 -0.030334162
C  C324  1  0.03640000  0.77320000  0.38210000  1.0 -0.030334162
C  C325  1  0.03640000  0.72680000  0.88210000  1.0 -0.030334162
C  C326  1  0.88210000  0.03640000  0.72680000  1.0 -0.030334162
C  C327  1  0.72680000  0.88210000  0.03640000  1.0 -0.030334162
C  C328  1  0.77320000  0.11790000  0.53640000  1.0 -0.030334162
C  C329  1  0.38210000  0.46360000  0.27320000  1.0 -0.030334162
C  C330  1  0.27320000  0.38210000  0.46360000  1.0 -0.030334162
C  C331  1  0.61790000  0.96360000  0.22680000  1.0 -0.030334162
C  C332  1  0.11790000  0.53640000  0.77320000  1.0 -0.030334162
C  C333  1  0.22680000  0.61790000  0.96360000  1.0 -0.030334162
C  C334  1  0.46360000  0.27320000  0.38210000  1.0 -0.030334162
C  C335  1  0.53640000  0.77320000  0.11790000  1.0 -0.030334162
C  C336  1  0.96360000  0.22680000  0.61790000  1.0 -0.030334162
C  C337  1  0.00300000  0.32260000  0.18470000  1.0 0.0249396955
C  C338  1  0.18470000  0.00300000  0.32260000  1.0 0.0269946447
C  C339  1  0.32260000  0.18470000  0.00300000  1.0 0.0269946447
C  C340  1  0.17740000  0.81530000  0.50300000  1.0 0.0269946447
C  C341  1  0.68470000  0.49700000  0.67740000  1.0 0.0269946447
C  C342  1  0.67740000  0.68470000  0.49700000  1.0 0.0269946447
C  C343  1  0.31530000  0.99700000  0.82260000  1.0 0.0269946447
C  C344  1  0.81530000  0.50300000  0.17740000  1.0 0.0269946447
C  C345  1  0.82260000  0.31530000  0.99700000  1.0 0.0269946447
C  C346  1  0.49700000  0.67740000  0.68470000  1.0 0.0269946447
C  C347  1  0.50300000  0.17740000  0.81530000  1.0 0.0269946447
C  C348  1  0.99700000  0.82260000  0.31530000  1.0 0.0269946447
C  C349  1  0.99700000  0.67740000  0.81530000  1.0 0.0269946447
C  C350  1  0.81530000  0.99700000  0.67740000  1.0 0.0269946447
C  C351  1  0.67740000  0.81530000  0.99700000  1.0 0.0269946447
C  C352  1  0.82260000  0.18470000  0.49700000  1.0 0.0269946447
C  C353  1  0.31530000  0.50300000  0.32260000  1.0 0.0269946447
C  C354  1  0.32260000  0.31530000  0.50300000  1.0 0.0269946447
C  C355  1  0.68470000  0.00300000  0.17740000  1.0 0.0269946447
C  C356  1  0.18470000  0.49700000  0.82260000  1.0 0.0269946447
C  C357  1  0.17740000  0.68470000  0.00300000  1.0 0.0269946447
C  C358  1  0.50300000  0.32260000  0.31530000  1.0 0.0269946447
C  C359  1  0.49700000  0.82260000  0.18470000  1.0 0.0269946447
C  C360  1  0.00300000  0.17740000  0.68470000  1.0 0.0249396955
C  C361  1  0.94570000  0.15420000  0.23500000  1.0 -0.030334162
C  C362  1  0.23500000  0.94570000  0.15420000  1.0 -0.030334162
C  C363  1  0.15420000  0.23500000  0.94570000  1.0 -0.030334162
C  C364  1  0.34580000  0.76500000  0.44570000  1.0 -0.030334162
C  C365  1  0.73500000  0.55430000  0.84580000  1.0 -0.030334162
C  C366  1  0.84580000  0.73500000  0.55430000  1.0 -0.030334162
C  C367  1  0.26500000  0.05430000  0.65420000  1.0 -0.030334162
C  C368  1  0.76500000  0.44570000  0.34580000  1.0 -0.030334162
C  C369  1  0.65420000  0.26500000  0.05430000  1.0 -0.030334162
C  C370  1  0.55430000  0.84580000  0.73500000  1.0 -0.030334162
C  C371  1  0.44570000  0.34580000  0.76500000  1.0 -0.030334162
C  C372  1  0.05430000  0.65420000  0.26500000  1.0 -0.030334162
C  C373  1  0.05430000  0.84580000  0.76500000  1.0 -0.030334162
C  C374  1  0.76500000  0.05430000  0.84580000  1.0 -0.030334162
C  C375  1  0.84580000  0.76500000  0.05430000  1.0 -0.030334162
C  C376  1  0.65420000  0.23500000  0.55430000  1.0 -0.030334162
C  C377  1  0.26500000  0.44570000  0.15420000  1.0 -0.030334162
C  C378  1  0.15420000  0.26500000  0.44570000  1.0 -0.030334162
C  C379  1  0.73500000  0.94570000  0.34580000  1.0 -0.030334162
C  C380  1  0.23500000  0.55430000  0.65420000  1.0 -0.030334162
C  C381  1  0.34580000  0.73500000  0.94570000  1.0 -0.030334162
C  C382  1  0.44570000  0.15420000  0.26500000  1.0 -0.030334162
C  C383  1  0.55430000  0.65420000  0.23500000  1.0 -0.030334162
C  C384  1  0.94570000  0.34580000  0.73500000  1.0 -0.030334162
C  C385  1  0.94720000  0.11730000  0.27450000  1.0 -0.0416771715
C  C386  1  0.27450000  0.94720000  0.11730000  1.0 -0.0416771715
C  C387  1  0.11730000  0.27450000  0.94720000  1.0 -0.0416771715
C  C388  1  0.38270000  0.72550000  0.44720000  1.0 -0.0416771715
C  C389  1  0.77450000  0.55280000  0.88270000  1.0 -0.0416771715
C  C390  1  0.88270000  0.77450000  0.55280000  1.0 -0.0416771715
C  C391  1  0.22550000  0.05280000  0.61730000  1.0 -0.0416771715
C  C392  1  0.72550000  0.44720000  0.38270000  1.0 -0.0416771715
C  C393  1  0.61730000  0.22550000  0.05280000  1.0 -0.0416771715
C  C394  1  0.55280000  0.88270000  0.77450000  1.0 -0.0416771715
C  C395  1  0.44720000  0.38270000  0.72550000  1.0 -0.0416771715
C  C396  1  0.05280000  0.61730000  0.22550000  1.0 -0.0416771715
C  C397  1  0.05280000  0.88270000  0.72550000  1.0 -0.0416771715
C  C398  1  0.72550000  0.05280000  0.88270000  1.0 -0.0416771715
C  C399  1  0.88270000  0.72550000  0.05280000  1.0 -0.0416771715
C  C400  1  0.61730000  0.27450000  0.55280000  1.0 -0.0416771715
C  C401  1  0.22550000  0.44720000  0.11730000  1.0 -0.0416771715
C  C402  1  0.11730000  0.22550000  0.44720000  1.0 -0.0416771715
C  C403  1  0.77450000  0.94720000  0.38270000  1.0 -0.0416771715
C  C404  1  0.27450000  0.55280000  0.61730000  1.0 -0.0416771715
C  C405  1  0.38270000  0.77450000  0.94720000  1.0 -0.0416771715
C  C406  1  0.44720000  0.11730000  0.22550000  1.0 -0.0416771715
C  C407  1  0.55280000  0.61730000  0.27450000  1.0 -0.0416771715
C  C408  1  0.94720000  0.38270000  0.77450000  1.0 -0.0416771715
C  C409  1  0.98140000  0.18380000  0.32930000  1.0 -0.0111008583
C  C410  1  0.32930000  0.98140000  0.18380000  1.0 -0.0111008583
C  C411  1  0.18380000  0.32930000  0.98140000  1.0 -0.0111008583
C  C412  1  0.31620000  0.67070000  0.48140000  1.0 -0.0111008583
C  C413  1  0.82930000  0.51860000  0.81620000  1.0 -0.0111008583
C  C414  1  0.81620000  0.82930000  0.51860000  1.0 -0.0111008583
C  C415  1  0.17070000  0.01860000  0.68380000  1.0 -0.0111008583
C  C416  1  0.67070000  0.48140000  0.31620000  1.0 -0.0111008583
C  C417  1  0.68380000  0.17070000  0.01860000  1.0 -0.0111008583
C  C418  1  0.51860000  0.81620000  0.82930000  1.0 -0.0111008583
C  C419  1  0.48140000  0.31620000  0.67070000  1.0 -0.0111008583
C  C420  1  0.01860000  0.68380000  0.17070000  1.0 -0.0111008583
C  C421  1  0.01860000  0.81620000  0.67070000  1.0 -0.0111008583
C  C422  1  0.67070000  0.01860000  0.81620000  1.0 -0.0111008583
C  C423  1  0.81620000  0.67070000  0.01860000  1.0 -0.0111008583
C  C424  1  0.68380000  0.32930000  0.51860000  1.0 -0.0111008583
C  C425  1  0.17070000  0.48140000  0.18380000  1.0 -0.0111008583
C  C426  1  0.18380000  0.17070000  0.48140000  1.0 -0.0111008583
C  C427  1  0.82930000  0.98140000  0.31620000  1.0 -0.0111008583
C  C428  1  0.32930000  0.51860000  0.68380000  1.0 -0.0111008583
C  C429  1  0.31620000  0.82930000  0.98140000  1.0 -0.0111008583
C  C430  1  0.48140000  0.18380000  0.17070000  1.0 -0.0111008583
C  C431  1  0.51860000  0.68380000  0.32930000  1.0 -0.0111008583
C  C432  1  0.98140000  0.31620000  0.82930000  1.0 -0.0111008583
N  N1  1  0.97370000  0.28960000  0.22140000  1.0 -0.022167027
N  N2  1  0.22140000  0.97370000  0.28960000  1.0 -0.022167027
N  N3  1  0.28960000  0.22140000  0.97370000  1.0 -0.022167027
N  N4  1  0.21040000  0.77860000  0.47370000  1.0 -0.022167027
N  N5  1  0.72140000  0.52630000  0.71040000  1.0 -0.022167027
N  N6  1  0.71040000  0.72140000  0.52630000  1.0 -0.022167027
N  N7  1  0.27860000  0.02630000  0.78960000  1.0 -0.022167027
N  N8  1  0.77860000  0.47370000  0.21040000  1.0 -0.022167027
N  N9  1  0.78960000  0.27860000  0.02630000  1.0 -0.022167027
N  N10  1  0.52630000  0.71040000  0.72140000  1.0 -0.022167027
N  N11  1  0.47370000  0.21040000  0.77860000  1.0 -0.022167027
N  N12  1  0.02630000  0.78960000  0.27860000  1.0 -0.022167027
N  N13  1  0.02630000  0.71040000  0.77860000  1.0 -0.022167027
N  N14  1  0.77860000  0.02630000  0.71040000  1.0 -0.022167027
N  N15  1  0.71040000  0.77860000  0.02630000  1.0 -0.022167027
N  N16  1  0.78960000  0.22140000  0.52630000  1.0 -0.022167027
N  N17  1  0.27860000  0.47370000  0.28960000  1.0 -0.022167027
N  N18  1  0.28960000  0.27860000  0.47370000  1.0 -0.022167027
N  N19  1  0.72140000  0.97370000  0.21040000  1.0 -0.022167027
N  N20  1  0.22140000  0.52630000  0.78960000  1.0 -0.022167027
N  N21  1  0.21040000  0.72140000  0.97370000  1.0 -0.022167027
N  N22  1  0.47370000  0.28960000  0.27860000  1.0 -0.022167027
N  N23  1  0.52630000  0.78960000  0.22140000  1.0 -0.022167027
N  N24  1  0.97370000  0.21040000  0.72140000  1.0 -0.022167027
N  N25  1  0.96750000  0.21750000  0.29010000  1.0 -0.0886499959
N  N26  1  0.29010000  0.96750000  0.21750000  1.0 -0.0886499959
N  N27  1  0.21750000  0.29010000  0.96750000  1.0 -0.0886499959
N  N28  1  0.28250000  0.70990000  0.46750000  1.0 -0.0886499959
N  N29  1  0.79010000  0.53250000  0.78250000  1.0 -0.0886499959
N  N30  1  0.78250000  0.79010000  0.53250000  1.0 -0.0886499959
N  N31  1  0.20990000  0.03250000  0.71750000  1.0 -0.0886499959
N  N32  1  0.70990000  0.46750000  0.28250000  1.0 -0.0886499959
N  N33  1  0.71750000  0.20990000  0.03250000  1.0 -0.0886499959
N  N34  1  0.53250000  0.78250000  0.79010000  1.0 -0.0886499959
N  N35  1  0.46750000  0.28250000  0.70990000  1.0 -0.0886499959
N  N36  1  0.03250000  0.71750000  0.20990000  1.0 -0.0886499959
N  N37  1  0.03250000  0.78250000  0.70990000  1.0 -0.0886499959
N  N38  1  0.70990000  0.03250000  0.78250000  1.0 -0.0886499959
N  N39  1  0.78250000  0.70990000  0.03250000  1.0 -0.0886499959
N  N40  1  0.71750000  0.29010000  0.53250000  1.0 -0.0886499959
N  N41  1  0.20990000  0.46750000  0.21750000  1.0 -0.0886499959
N  N42  1  0.21750000  0.20990000  0.46750000  1.0 -0.0886499959
N  N43  1  0.79010000  0.96750000  0.28250000  1.0 -0.0886499959
N  N44  1  0.29010000  0.53250000  0.71750000  1.0 -0.0886499959
N  N45  1  0.28250000  0.79010000  0.96750000  1.0 -0.0886499959
N  N46  1  0.46750000  0.21750000  0.20990000  1.0 -0.0886499959
N  N47  1  0.53250000  0.71750000  0.29010000  1.0 -0.0886499959
N  N48  1  0.96750000  0.28250000  0.79010000  1.0 -0.0886499959
N  N49  1  0.99550000  0.28620000  0.21860000  1.0 -0.030334162
N  N50  1  0.21860000  0.99550000  0.28620000  1.0 -0.030334162
N  N51  1  0.28620000  0.21860000  0.99550000  1.0 -0.030334162
N  N52  1  0.21380000  0.78140000  0.49550000  1.0 -0.030334162
N  N53  1  0.71860000  0.50450000  0.71380000  1.0 -0.030334162
N  N54  1  0.71380000  0.71860000  0.50450000  1.0 -0.030334162
N  N55  1  0.28140000  0.00450000  0.78620000  1.0 -0.030334162
N  N56  1  0.78140000  0.49550000  0.21380000  1.0 -0.030334162
N  N57  1  0.78620000  0.28140000  0.00450000  1.0 -0.030334162
N  N58  1  0.50450000  0.71380000  0.71860000  1.0 -0.030334162
N  N59  1  0.49550000  0.21380000  0.78140000  1.0 -0.030334162
N  N60  1  0.00450000  0.78620000  0.28140000  1.0 -0.030334162
N  N61  1  0.00450000  0.71380000  0.78140000  1.0 -0.030334162
N  N62  1  0.78140000  0.00450000  0.71380000  1.0 -0.030334162
N  N63  1  0.71380000  0.78140000  0.00450000  1.0 -0.030334162
N  N64  1  0.78620000  0.21860000  0.50450000  1.0 -0.030334162
N  N65  1  0.28140000  0.49550000  0.28620000  1.0 -0.030334162
N  N66  1  0.28620000  0.28140000  0.49550000  1.0 -0.030334162
N  N67  1  0.71860000  0.99550000  0.21380000  1.0 -0.030334162
N  N68  1  0.21860000  0.50450000  0.78620000  1.0 -0.030334162
N  N69  1  0.21380000  0.71860000  0.99550000  1.0 -0.030334162
N  N70  1  0.49550000  0.28620000  0.28140000  1.0 -0.030334162
N  N71  1  0.50450000  0.78620000  0.21860000  1.0 -0.030334162
N  N72  1  0.99550000  0.21380000  0.71860000  1.0 -0.030334162
N  N73  1  0.98420000  0.22150000  0.29010000  1.0 -0.0806434698
N  N74  1  0.29010000  0.98420000  0.22150000  1.0 -0.0806434698
N  N75  1  0.22150000  0.29010000  0.98420000  1.0 -0.0806434698
N  N76  1  0.27850000  0.70990000  0.48420000  1.0 -0.0806434698
N  N77  1  0.79010000  0.51580000  0.77850000  1.0 -0.0806434698
N  N78  1  0.77850000  0.79010000  0.51580000  1.0 -0.0806434698
N  N79  1  0.20990000  0.01580000  0.72150000  1.0 -0.0806434698
N  N80  1  0.70990000  0.48420000  0.27850000  1.0 -0.0806434698
N  N81  1  0.72150000  0.20990000  0.01580000  1.0 -0.0806434698
N  N82  1  0.51580000  0.77850000  0.79010000  1.0 -0.0806434698
N  N83  1  0.48420000  0.27850000  0.70990000  1.0 -0.0806434698
N  N84  1  0.01580000  0.72150000  0.20990000  1.0 -0.0806434698
N  N85  1  0.01580000  0.77850000  0.70990000  1.0 -0.0806434698
N  N86  1  0.70990000  0.01580000  0.77850000  1.0 -0.0806434698
N  N87  1  0.77850000  0.70990000  0.01580000  1.0 -0.0806434698
N  N88  1  0.72150000  0.29010000  0.51580000  1.0 -0.0806434698
N  N89  1  0.20990000  0.48420000  0.22150000  1.0 -0.0806434698
N  N90  1  0.22150000  0.20990000  0.48420000  1.0 -0.0806434698
N  N91  1  0.79010000  0.98420000  0.27850000  1.0 -0.0806434698
N  N92  1  0.29010000  0.51580000  0.72150000  1.0 -0.0806434698
N  N93  1  0.27850000  0.79010000  0.98420000  1.0 -0.0806434698
N  N94  1  0.48420000  0.22150000  0.20990000  1.0 -0.0806434698
N  N95  1  0.51580000  0.72150000  0.29010000  1.0 -0.0806434698
N  N96  1  0.98420000  0.27850000  0.79010000  1.0 -0.0806434698
Cl  Cl1  1  0.01620000  0.29490000  0.38680000  1.0 -0.0886499959
Cl  Cl2  1  0.38680000  0.01620000  0.29490000  1.0 -0.0886499959
Cl  Cl3  1  0.29490000  0.38680000  0.01620000  1.0 -0.0886499959
Cl  Cl4  1  0.20510000  0.61320000  0.51620000  1.0 -0.0886499959
Cl  Cl5  1  0.88680000  0.48380000  0.70510000  1.0 -0.0886499959
Cl  Cl6  1  0.70510000  0.88680000  0.48380000  1.0 -0.0886499959
Cl  Cl7  1  0.11320000  0.98380000  0.79490000  1.0 -0.0886499959
Cl  Cl8  1  0.61320000  0.51620000  0.20510000  1.0 -0.0886499959
Cl  Cl9  1  0.79490000  0.11320000  0.98380000  1.0 -0.0886499959
Cl  Cl10  1  0.48380000  0.70510000  0.88680000  1.0 -0.0886499959
Cl  Cl11  1  0.51620000  0.20510000  0.61320000  1.0 -0.0886499959
Cl  Cl12  1  0.98380000  0.79490000  0.11320000  1.0 -0.0886499959
Cl  Cl13  1  0.98380000  0.70510000  0.61320000  1.0 -0.0886499959
Cl  Cl14  1  0.61320000  0.98380000  0.70510000  1.0 -0.0886499959
Cl  Cl15  1  0.70510000  0.61320000  0.98380000  1.0 -0.0886499959
Cl  Cl16  1  0.79490000  0.38680000  0.48380000  1.0 -0.0886499959
Cl  Cl17  1  0.11320000  0.51620000  0.29490000  1.0 -0.0886499959
Cl  Cl18  1  0.29490000  0.11320000  0.51620000  1.0 -0.0886499959
Cl  Cl19  1  0.88680000  0.01620000  0.20510000  1.0 -0.0886499959
Cl  Cl20  1  0.38680000  0.48380000  0.79490000  1.0 -0.0886499959
Cl  Cl21  1  0.20510000  0.88680000  0.01620000  1.0 -0.0886499959
Cl  Cl22  1  0.51620000  0.29490000  0.11320000  1.0 -0.0886499959
Cl  Cl23  1  0.48380000  0.79490000  0.38680000  1.0 -0.0886499959
Cl  Cl24  1  0.01620000  0.20510000  0.88680000  1.0 -0.0886499959
Cl  Cl25  1  0.03020000  0.37810000  0.29220000  1.0 -0.1900566864
Cl  Cl26  1  0.29220000  0.03020000  0.37810000  1.0 -0.1900566864
Cl  Cl27  1  0.37810000  0.29220000  0.03020000  1.0 -0.1900566864
Cl  Cl28  1  0.12190000  0.70780000  0.53020000  1.0 -0.1900566864
Cl  Cl29  1  0.79220000  0.46980000  0.62190000  1.0 -0.1900566864
Cl  Cl30  1  0.62190000  0.79220000  0.46980000  1.0 -0.1900566864
Cl  Cl31  1  0.20780000  0.96980000  0.87810000  1.0 -0.1900566864
Cl  Cl32  1  0.70780000  0.53020000  0.12190000  1.0 -0.1900566864
Cl  Cl33  1  0.87810000  0.20780000  0.96980000  1.0 -0.1900566864
Cl  Cl34  1  0.46980000  0.62190000  0.79220000  1.0 -0.1900566864
Cl  Cl35  1  0.53020000  0.12190000  0.70780000  1.0 -0.1900566864
Cl  Cl36  1  0.96980000  0.87810000  0.20780000  1.0 -0.1900566864
Cl  Cl37  1  0.96980000  0.62190000  0.70780000  1.0 -0.1900566864
Cl  Cl38  1  0.70780000  0.96980000  0.62190000  1.0 -0.1900566864
Cl  Cl39  1  0.62190000  0.70780000  0.96980000  1.0 -0.1900566864
Cl  Cl40  1  0.87810000  0.29220000  0.46980000  1.0 -0.1900566864
Cl  Cl41  1  0.20780000  0.53020000  0.37810000  1.0 -0.1900566864
Cl  Cl42  1  0.37810000  0.20780000  0.53020000  1.0 -0.1900566864
Cl  Cl43  1  0.79220000  0.03020000  0.12190000  1.0 -0.1900566864
Cl  Cl44  1  0.29220000  0.46980000  0.87810000  1.0 -0.1900566864
Cl  Cl45  1  0.12190000  0.79220000  0.03020000  1.0 -0.1900566864
Cl  Cl46  1  0.53020000  0.37810000  0.20780000  1.0 -0.1900566864
Cl  Cl47  1  0.46980000  0.87810000  0.29220000  1.0 -0.1900566864
Cl  Cl48  1  0.03020000  0.12190000  0.79220000  1.0 -0.1900566864
Cl  Cl49  1  0.04140000  0.29030000  0.35110000  1.0 -0.0111008583
Cl  Cl50  1  0.35110000  0.04140000  0.29030000  1.0 -0.022167027
Cl  Cl51  1  0.29030000  0.35110000  0.04140000  1.0 -0.022167027
Cl  Cl52  1  0.20970000  0.64890000  0.54140000  1.0 -0.0111008583
Cl  Cl53  1  0.85110000  0.45860000  0.70970000  1.0 -0.0111008583
Cl  Cl54  1  0.70970000  0.85110000  0.45860000  1.0 -0.0111008583
Cl  Cl55  1  0.14890000  0.95860000  0.79030000  1.0 -0.0111008583
Cl  Cl56  1  0.64890000  0.54140000  0.20970000  1.0 -0.0111008583
Cl  Cl57  1  0.79030000  0.14890000  0.95860000  1.0 -0.0111008583
Cl  Cl58  1  0.45860000  0.70970000  0.85110000  1.0 -0.0111008583
Cl  Cl59  1  0.54140000  0.20970000  0.64890000  1.0 -0.0111008583
Cl  Cl60  1  0.95860000  0.79030000  0.14890000  1.0 -0.0111008583
Cl  Cl61  1  0.95860000  0.70970000  0.64890000  1.0 -0.0111008583
Cl  Cl62  1  0.64890000  0.95860000  0.70970000  1.0 -0.0111008583
Cl  Cl63  1  0.70970000  0.64890000  0.95860000  1.0 -0.0111008583
Cl  Cl64  1  0.79030000  0.35110000  0.45860000  1.0 -0.0111008583
Cl  Cl65  1  0.14890000  0.54140000  0.29030000  1.0 -0.0111008583
Cl  Cl66  1  0.29030000  0.14890000  0.54140000  1.0 -0.022167027
Cl  Cl67  1  0.85110000  0.04140000  0.20970000  1.0 -0.022167027
Cl  Cl68  1  0.35110000  0.45860000  0.79030000  1.0 -0.0111008583
Cl  Cl69  1  0.20970000  0.85110000  0.04140000  1.0 -0.0111008583
Cl  Cl70  1  0.54140000  0.29030000  0.14890000  1.0 -0.022167027
Cl  Cl71  1  0.45860000  0.79030000  0.35110000  1.0 -0.0111008583
Cl  Cl72  1  0.04140000  0.20970000  0.85110000  1.0 -0.0111008583
Cl  Cl73  1  0.96240000  0.38670000  0.30090000  1.0 -0.1900566864
Cl  Cl74  1  0.30090000  0.96240000  0.38670000  1.0 -0.1900566864
Cl  Cl75  1  0.38670000  0.30090000  0.96240000  1.0 -0.1900566864
Cl  Cl76  1  0.11330000  0.69910000  0.46240000  1.0 -0.1900566864
Cl  Cl77  1  0.80090000  0.53760000  0.61330000  1.0 -0.1900566864
Cl  Cl78  1  0.61330000  0.80090000  0.53760000  1.0 -0.1900566864
Cl  Cl79  1  0.19910000  0.03760000  0.88670000  1.0 -0.1900566864
Cl  Cl80  1  0.69910000  0.46240000  0.11330000  1.0 -0.1900566864
Cl  Cl81  1  0.88670000  0.19910000  0.03760000  1.0 -0.1900566864
Cl  Cl82  1  0.53760000  0.61330000  0.80090000  1.0 -0.1900566864
Cl  Cl83  1  0.46240000  0.11330000  0.69910000  1.0 -0.1900566864
Cl  Cl84  1  0.03760000  0.88670000  0.19910000  1.0 -0.1900566864
Cl  Cl85  1  0.03760000  0.61330000  0.69910000  1.0 -0.1900566864
Cl  Cl86  1  0.69910000  0.03760000  0.61330000  1.0 -0.1900566864
Cl  Cl87  1  0.61330000  0.69910000  0.03760000  1.0 -0.1900566864
Cl  Cl88  1  0.88670000  0.30090000  0.53760000  1.0 -0.1900566864
Cl  Cl89  1  0.19910000  0.46240000  0.38670000  1.0 -0.1900566864
Cl  Cl90  1  0.38670000  0.19910000  0.46240000  1.0 -0.1900566864
Cl  Cl91  1  0.80090000  0.96240000  0.11330000  1.0 -0.1900566864
Cl  Cl92  1  0.30090000  0.53760000  0.88670000  1.0 -0.1900566864
Cl  Cl93  1  0.11330000  0.80090000  0.96240000  1.0 -0.1900566864
Cl  Cl94  1  0.46240000  0.38670000  0.19910000  1.0 -0.1900566864
Cl  Cl95  1  0.53760000  0.88670000  0.30090000  1.0 -0.1900566864
Cl  Cl96  1  0.96240000  0.11330000  0.80090000  1.0 -0.1900566864
O  O1  1  0.94740000  0.44740000  0.05260000  1.0 -0.3150826151
O  O2  1  0.05260000  0.94740000  0.44740000  1.0 -0.3100046311
O  O3  1  0.44740000  0.05260000  0.94740000  1.0 -0.3100046311
O  O4  1  0.55260000  0.55260000  0.55260000  1.0 -0.3100046311
O  O5  1  0.05260000  0.55260000  0.94740000  1.0 -0.3100046311
O  O6  1  0.94740000  0.05260000  0.55260000  1.0 -0.3150826151
O  O7  1  0.55260000  0.94740000  0.05260000  1.0 -0.3100046311
O  O8  1  0.44740000  0.44740000  0.44740000  1.0 -0.3100046311
O  O9  1  0.93170000  0.46440000  0.94950000  1.0 -0.3100046311
O  O10  1  0.94950000  0.93170000  0.46440000  1.0 -0.3100046311
O  O11  1  0.46440000  0.94950000  0.93170000  1.0 -0.3100046311
O  O12  1  0.03560000  0.05050000  0.43170000  1.0 -0.3100046311
O  O13  1  0.44950000  0.56830000  0.53560000  1.0 -0.3100046311
O  O14  1  0.53560000  0.44950000  0.56830000  1.0 -0.3100046311
O  O15  1  0.55050000  0.06830000  0.96440000  1.0 -0.3100046311
O  O16  1  0.05050000  0.43170000  0.03560000  1.0 -0.3100046311
O  O17  1  0.96440000  0.55050000  0.06830000  1.0 -0.3100046311
O  O18  1  0.56830000  0.53560000  0.44950000  1.0 -0.3100046311
O  O19  1  0.43170000  0.03560000  0.05050000  1.0 -0.3100046311
O  O20  1  0.06830000  0.96440000  0.55050000  1.0 -0.3100046311
O  O21  1  0.06830000  0.53560000  0.05050000  1.0 -0.3100046311
O  O22  1  0.05050000  0.06830000  0.53560000  1.0 -0.3100046311
O  O23  1  0.53560000  0.05050000  0.06830000  1.0 -0.3100046311
O  O24  1  0.96440000  0.94950000  0.56830000  1.0 -0.3100046311
O  O25  1  0.55050000  0.43170000  0.46440000  1.0 -0.3100046311
O  O26  1  0.46440000  0.55050000  0.43170000  1.0 -0.3100046311
O  O27  1  0.44950000  0.93170000  0.03560000  1.0 -0.3100046311
O  O28  1  0.94950000  0.56830000  0.96440000  1.0 -0.3100046311
O  O29  1  0.03560000  0.44950000  0.93170000  1.0 -0.3100046311
O  O30  1  0.43170000  0.46440000  0.55050000  1.0 -0.3100046311
O  O31  1  0.56830000  0.96440000  0.94950000  1.0 -0.3100046311
O  O32  1  0.93170000  0.03560000  0.44950000  1.0 -0.3100046311
O  O33  1  0.00641000  0.40551000  0.12166000  1.0 -0.5992023428
O  O34  1  0.12166000  0.00641000  0.40551000  1.0 -0.5992023428
O  O35  1  0.40551000  0.12166000  0.00641000  1.0 -0.5992023428
O  O36  1  0.09449000  0.87834000  0.50641000  1.0 -0.5992023428
O  O37  1  0.62166000  0.49359000  0.59449000  1.0 -0.5992023428
O  O38  1  0.59449000  0.62166000  0.49359000  1.0 -0.5992023428
O  O39  1  0.37834000  0.99359000  0.90551000  1.0 -0.5992023428
O  O40  1  0.87834000  0.50641000  0.09449000  1.0 -0.5992023428
O  O41  1  0.90551000  0.37834000  0.99359000  1.0 -0.5992023428
O  O42  1  0.49359000  0.59449000  0.62166000  1.0 -0.5992023428
O  O43  1  0.50641000  0.09449000  0.87834000  1.0 -0.5992023428
O  O44  1  0.99359000  0.90551000  0.37834000  1.0 -0.5992023428
O  O45  1  0.99359000  0.59449000  0.87834000  1.0 -0.5992023428
O  O46  1  0.87834000  0.99359000  0.59449000  1.0 -0.5992023428
O  O47  1  0.59449000  0.87834000  0.99359000  1.0 -0.5992023428
O  O48  1  0.90551000  0.12166000  0.49359000  1.0 -0.5992023428
O  O49  1  0.37834000  0.50641000  0.40551000  1.0 -0.5992023428
O  O50  1  0.40551000  0.37834000  0.50641000  1.0 -0.5992023428
O  O51  1  0.62166000  0.00641000  0.09449000  1.0 -0.5992023428
O  O52  1  0.12166000  0.49359000  0.90551000  1.0 -0.5992023428
O  O53  1  0.09449000  0.62166000  0.00641000  1.0 -0.5992023428
O  O54  1  0.50641000  0.40551000  0.37834000  1.0 -0.5992023428
O  O55  1  0.49359000  0.90551000  0.12166000  1.0 -0.5992023428
O  O56  1  0.00641000  0.09449000  0.62166000  1.0 -0.5992023428
O  O57  1  0.98735000  0.35497000  0.05292000  1.0 -0.5992023428
O  O58  1  0.05292000  0.98735000  0.35497000  1.0 -0.5992023428
O  O59  1  0.35497000  0.05292000  0.98735000  1.0 -0.5992023428
O  O60  1  0.14503000  0.94708000  0.48735000  1.0 -0.5992023428
O  O61  1  0.55292000  0.51265000  0.64503000  1.0 -0.5992023428
O  O62  1  0.64503000  0.55292000  0.51265000  1.0 -0.5992023428
O  O63  1  0.44708000  0.01265000  0.85497000  1.0 -0.5992023428
O  O64  1  0.94708000  0.48735000  0.14503000  1.0 -0.5992023428
O  O65  1  0.85497000  0.44708000  0.01265000  1.0 -0.5992023428
O  O66  1  0.51265000  0.64503000  0.55292000  1.0 -0.5992023428
O  O67  1  0.48735000  0.14503000  0.94708000  1.0 -0.5992023428
O  O68  1  0.01265000  0.85497000  0.44708000  1.0 -0.5992023428
O  O69  1  0.01265000  0.64503000  0.94708000  1.0 -0.5992023428
O  O70  1  0.94708000  0.01265000  0.64503000  1.0 -0.5992023428
O  O71  1  0.64503000  0.94708000  0.01265000  1.0 -0.5992023428
O  O72  1  0.85497000  0.05292000  0.51265000  1.0 -0.5992023428
O  O73  1  0.44708000  0.48735000  0.35497000  1.0 -0.5992023428
O  O74  1  0.35497000  0.44708000  0.48735000  1.0 -0.5992023428
O  O75  1  0.55292000  0.98735000  0.14503000  1.0 -0.5992023428
O  O76  1  0.05292000  0.51265000  0.85497000  1.0 -0.5992023428
O  O77  1  0.14503000  0.55292000  0.98735000  1.0 -0.5992023428
O  O78  1  0.48735000  0.35497000  0.44708000  1.0 -0.5992023428
O  O79  1  0.51265000  0.85497000  0.05292000  1.0 -0.5992023428
O  O80  1  0.98735000  0.14503000  0.55292000  1.0 -0.5992023428
O  O81  1  0.96810000  0.12041000  0.40977000  1.0 -0.5905330708
O  O82  1  0.40977000  0.96810000  0.12041000  1.0 -0.5905330708
O  O83  1  0.12041000  0.40977000  0.96810000  1.0 -0.5905330708
O  O84  1  0.37959000  0.59023000  0.46810000  1.0 -0.5905330708
O  O85  1  0.90977000  0.53190000  0.87959000  1.0 -0.5905330708
O  O86  1  0.87959000  0.90977000  0.53190000  1.0 -0.5905330708
O  O87  1  0.09023000  0.03190000  0.62041000  1.0 -0.5905330708
O  O88  1  0.59023000  0.46810000  0.37959000  1.0 -0.5905330708
O  O89  1  0.62041000  0.09023000  0.03190000  1.0 -0.5905330708
O  O90  1  0.53190000  0.87959000  0.90977000  1.0 -0.5905330708
O  O91  1  0.46810000  0.37959000  0.59023000  1.0 -0.5905330708
O  O92  1  0.03190000  0.62041000  0.09023000  1.0 -0.5905330708
O  O93  1  0.03190000  0.87959000  0.59023000  1.0 -0.5905330708
O  O94  1  0.59023000  0.03190000  0.87959000  1.0 -0.5905330708
O  O95  1  0.87959000  0.59023000  0.03190000  1.0 -0.5905330708
O  O96  1  0.62041000  0.40977000  0.53190000  1.0 -0.5905330708
O  O97  1  0.09023000  0.46810000  0.12041000  1.0 -0.5905330708
O  O98  1  0.12041000  0.09023000  0.46810000  1.0 -0.5905330708
O  O99  1  0.90977000  0.96810000  0.37959000  1.0 -0.5905330708
O  O100  1  0.40977000  0.53190000  0.62041000  1.0 -0.5905330708
O  O101  1  0.37959000  0.90977000  0.96810000  1.0 -0.5905330708
O  O102  1  0.46810000  0.12041000  0.09023000  1.0 -0.5905330708
O  O103  1  0.53190000  0.62041000  0.40977000  1.0 -0.5905330708
O  O104  1  0.96810000  0.37959000  0.90977000  1.0 -0.5905330708
O  O105  1  0.96915000  0.05116000  0.35666000  1.0 -0.5823078384
O  O106  1  0.35666000  0.96915000  0.05116000  1.0 -0.5823078384
O  O107  1  0.05116000  0.35666000  0.96915000  1.0 -0.5823078384
O  O108  1  0.44884000  0.64334000  0.46915000  1.0 -0.5823078384
O  O109  1  0.85666000  0.53085000  0.94884000  1.0 -0.5823078384
O  O110  1  0.94884000  0.85666000  0.53085000  1.0 -0.5823078384
O  O111  1  0.14334000  0.03085000  0.55116000  1.0 -0.5823078384
O  O112  1  0.64334000  0.46915000  0.44884000  1.0 -0.5823078384
O  O113  1  0.55116000  0.14334000  0.03085000  1.0 -0.5823078384
O  O114  1  0.53085000  0.94884000  0.85666000  1.0 -0.5823078384
O  O115  1  0.46915000  0.44884000  0.64334000  1.0 -0.5823078384
O  O116  1  0.03085000  0.55116000  0.14334000  1.0 -0.5823078384
O  O117  1  0.03085000  0.94884000  0.64334000  1.0 -0.5823078384
O  O118  1  0.64334000  0.03085000  0.94884000  1.0 -0.5823078384
O  O119  1  0.94884000  0.64334000  0.03085000  1.0 -0.5823078384
O  O120  1  0.55116000  0.35666000  0.53085000  1.0 -0.5823078384
O  O121  1  0.14334000  0.46915000  0.05116000  1.0 -0.5823078384
O  O122  1  0.05116000  0.14334000  0.46915000  1.0 -0.5823078384
O  O123  1  0.85666000  0.96915000  0.44884000  1.0 -0.5823078384
O  O124  1  0.35666000  0.53085000  0.55116000  1.0 -0.5823078384
O  O125  1  0.44884000  0.85666000  0.96915000  1.0 -0.5823078384
O  O126  1  0.46915000  0.05116000  0.14334000  1.0 -0.5823078384
O  O127  1  0.53085000  0.55116000  0.35666000  1.0 -0.5823078384
O  O128  1  0.96915000  0.44884000  0.85666000  1.0 -0.5823078384
O  O129  1  0.94860000  0.47360000  0.96210000  1.0 -0.3577831654
O  O130  1  0.96210000  0.94860000  0.47360000  1.0 -0.3577831654
O  O131  1  0.47360000  0.96210000  0.94860000  1.0 -0.3577831654
O  O132  1  0.02640000  0.03790000  0.44860000  1.0 -0.3577831654
O  O133  1  0.46210000  0.55140000  0.52640000  1.0 -0.3577831654
O  O134  1  0.52640000  0.46210000  0.55140000  1.0 -0.3577831654
O  O135  1  0.53790000  0.05140000  0.97360000  1.0 -0.3577831654
O  O136  1  0.03790000  0.44860000  0.02640000  1.0 -0.3577831654
O  O137  1  0.97360000  0.53790000  0.05140000  1.0 -0.3577831654
O  O138  1  0.55140000  0.52640000  0.46210000  1.0 -0.3577831654
O  O139  1  0.44860000  0.02640000  0.03790000  1.0 -0.3577831654
O  O140  1  0.05140000  0.97360000  0.53790000  1.0 -0.3577831654
O  O141  1  0.05140000  0.52640000  0.03790000  1.0 -0.3577831654
O  O142  1  0.03790000  0.05140000  0.52640000  1.0 -0.3577831654
O  O143  1  0.52640000  0.03790000  0.05140000  1.0 -0.3577831654
O  O144  1  0.97360000  0.96210000  0.55140000  1.0 -0.3577831654
O  O145  1  0.53790000  0.44860000  0.47360000  1.0 -0.3577831654
O  O146  1  0.47360000  0.53790000  0.44860000  1.0 -0.3577831654
O  O147  1  0.46210000  0.94860000  0.02640000  1.0 -0.3577831654
O  O148  1  0.96210000  0.55140000  0.97360000  1.0 -0.3577831654
O  O149  1  0.02640000  0.46210000  0.94860000  1.0 -0.3577831654
O  O150  1  0.44860000  0.47360000  0.53790000  1.0 -0.3577831654
O  O151  1  0.55140000  0.97360000  0.96210000  1.0 -0.3577831654
O  O152  1  0.94860000  0.02640000  0.46210000  1.0 -0.3577831654
O  O153  1  0.96110000  0.46110000  0.03890000  1.0 -0.347528545
O  O154  1  0.03890000  0.96110000  0.46110000  1.0 -0.347528545
O  O155  1  0.46110000  0.03890000  0.96110000  1.0 -0.347528545
O  O156  1  0.53890000  0.53890000  0.53890000  1.0 -0.347528545
O  O157  1  0.03890000  0.53890000  0.96110000  1.0 -0.347528545
O  O158  1  0.96110000  0.03890000  0.53890000  1.0 -0.347528545
O  O159  1  0.53890000  0.96110000  0.03890000  1.0 -0.347528545
O  O160  1  0.46110000  0.46110000  0.46110000  1.0 -0.347528545
