# DDEC6 charges by PACMAN v1.1 (https://github.com/mtap-research/PACMAN-charge/)
data_QURNIC_FSR_pacman
_symmetry_space_group_name_H-M   'P 1'
_cell_length_a   26.08870000
_cell_length_b   26.08870000
_cell_length_c   26.08870000
_cell_angle_alpha   90.00000000
_cell_angle_beta   90.00000000
_cell_angle_gamma   90.00000000
_symmetry_Int_Tables_number   1
_chemical_formula_structural   Zr3Cu3H18C36N6(Cl3O16)2
_chemical_formula_sum   'Zr24 Cu24 H144 C288 N48 Cl48 O256'
_cell_volume   17756.49797768
_cell_formula_units_Z   8
loop_
 _symmetry_equiv_pos_site_id
 _symmetry_equiv_pos_as_xyz
  1  'x, y, z'
loop_
 _atom_site_type_symbol
 _atom_site_label
 _atom_site_symmetry_multiplicity
 _atom_site_fract_x
 _atom_site_fract_y
 _atom_site_fract_z
 _atom_site_occupancy
 _atom_site_charge
Zr  Zr1  1  0.51544000  0.48355000  0.40883000  1.0 1.7714868404
Zr  Zr2  1  0.48456000  0.98355000  0.09117000  1.0 1.7714868404
Zr  Zr3  1  0.98456000  0.51645000  0.90883000  1.0 1.7714868404
Zr  Zr4  1  0.51645000  0.90883000  0.98456000  1.0 1.7714868404
Zr  Zr5  1  0.01645000  0.59117000  0.01544000  1.0 1.7714868404
Zr  Zr6  1  0.59117000  0.01544000  0.01645000  1.0 1.7714868404
Zr  Zr7  1  0.09117000  0.48456000  0.98355000  1.0 1.7714868404
Zr  Zr8  1  0.40883000  0.51544000  0.48355000  1.0 1.7714868404
Zr  Zr9  1  0.90883000  0.98456000  0.51645000  1.0 1.7714868404
Zr  Zr10  1  0.48355000  0.40883000  0.51544000  1.0 1.7714868404
Zr  Zr11  1  0.98355000  0.09117000  0.48456000  1.0 1.7714868404
Zr  Zr12  1  0.01544000  0.01645000  0.59117000  1.0 1.7752523327
Zr  Zr13  1  0.48456000  0.51645000  0.59117000  1.0 1.7714868404
Zr  Zr14  1  0.51544000  0.01645000  0.90883000  1.0 1.7714868404
Zr  Zr15  1  0.01544000  0.48355000  0.09117000  1.0 1.7714868404
Zr  Zr16  1  0.48355000  0.09117000  0.01544000  1.0 1.7752523327
Zr  Zr17  1  0.98355000  0.40883000  0.98456000  1.0 1.7714868404
Zr  Zr18  1  0.40883000  0.98456000  0.98355000  1.0 1.7714868404
Zr  Zr19  1  0.90883000  0.51544000  0.01645000  1.0 1.7714868404
Zr  Zr20  1  0.59117000  0.48456000  0.51645000  1.0 1.7714868404
Zr  Zr21  1  0.09117000  0.01544000  0.48355000  1.0 1.7752523327
Zr  Zr22  1  0.51645000  0.59117000  0.48456000  1.0 1.7714868404
Zr  Zr23  1  0.01645000  0.90883000  0.51544000  1.0 1.7714868404
Zr  Zr24  1  0.98456000  0.98355000  0.40883000  1.0 1.7714868404
Cu  Cu1  1  0.20751000  0.48054000  0.28843000  1.0 0.6594967845
Cu  Cu2  1  0.79249000  0.98054000  0.21157000  1.0 0.6594967845
Cu  Cu3  1  0.29249000  0.51946000  0.78843000  1.0 0.6594967845
Cu  Cu4  1  0.51946000  0.78843000  0.29249000  1.0 0.6594967845
Cu  Cu5  1  0.01946000  0.71157000  0.70751000  1.0 0.6594967845
Cu  Cu6  1  0.71157000  0.70751000  0.01946000  1.0 0.6594967845
Cu  Cu7  1  0.21157000  0.79249000  0.98054000  1.0 0.6594967845
Cu  Cu8  1  0.28843000  0.20751000  0.48054000  1.0 0.6594967845
Cu  Cu9  1  0.78843000  0.29249000  0.51946000  1.0 0.6594967845
Cu  Cu10  1  0.48054000  0.28843000  0.20751000  1.0 0.6594967845
Cu  Cu11  1  0.98054000  0.21157000  0.79249000  1.0 0.6594967845
Cu  Cu12  1  0.70751000  0.01946000  0.71157000  1.0 0.6594967845
Cu  Cu13  1  0.79249000  0.51946000  0.71157000  1.0 0.6594967845
Cu  Cu14  1  0.20751000  0.01946000  0.78843000  1.0 0.6594967845
Cu  Cu15  1  0.70751000  0.48054000  0.21157000  1.0 0.6594967845
Cu  Cu16  1  0.48054000  0.21157000  0.70751000  1.0 0.6594967845
Cu  Cu17  1  0.98054000  0.28843000  0.29249000  1.0 0.6594967845
Cu  Cu18  1  0.28843000  0.29249000  0.98054000  1.0 0.6594967845
Cu  Cu19  1  0.78843000  0.20751000  0.01946000  1.0 0.6594967845
Cu  Cu20  1  0.71157000  0.79249000  0.51946000  1.0 0.6594967845
Cu  Cu21  1  0.21157000  0.70751000  0.48054000  1.0 0.6594967845
Cu  Cu22  1  0.51946000  0.71157000  0.79249000  1.0 0.6594967845
Cu  Cu23  1  0.01946000  0.78843000  0.20751000  1.0 0.6594967845
Cu  Cu24  1  0.29249000  0.98054000  0.28843000  1.0 0.6594967845
H  H1  1  0.36896000  0.44426000  0.19702000  1.0 0.1406101191
H  H2  1  0.63104000  0.94426000  0.30298000  1.0 0.1406101191
H  H3  1  0.13104000  0.55574000  0.69702000  1.0 0.1406101191
H  H4  1  0.55574000  0.69702000  0.13104000  1.0 0.1406101191
H  H5  1  0.05574000  0.80298000  0.86896000  1.0 0.1406101191
H  H6  1  0.80298000  0.86896000  0.05574000  1.0 0.1406101191
H  H7  1  0.30298000  0.63104000  0.94426000  1.0 0.1406101191
H  H8  1  0.19702000  0.36896000  0.44426000  1.0 0.1406101191
H  H9  1  0.69702000  0.13104000  0.55574000  1.0 0.1406101191
H  H10  1  0.44426000  0.19702000  0.36896000  1.0 0.1406101191
H  H11  1  0.94426000  0.30298000  0.63104000  1.0 0.1406101191
H  H12  1  0.86896000  0.05574000  0.80298000  1.0 0.1406101191
H  H13  1  0.63104000  0.55574000  0.80298000  1.0 0.1406101191
H  H14  1  0.36896000  0.05574000  0.69702000  1.0 0.1406101191
H  H15  1  0.86896000  0.44426000  0.30298000  1.0 0.1406101191
H  H16  1  0.44426000  0.30298000  0.86896000  1.0 0.1406101191
H  H17  1  0.94426000  0.19702000  0.13104000  1.0 0.1406101191
H  H18  1  0.19702000  0.13104000  0.94426000  1.0 0.1406101191
H  H19  1  0.69702000  0.36896000  0.05574000  1.0 0.1406101191
H  H20  1  0.80298000  0.63104000  0.55574000  1.0 0.1406101191
H  H21  1  0.30298000  0.86896000  0.44426000  1.0 0.1406101191
H  H22  1  0.55574000  0.80298000  0.63104000  1.0 0.1406101191
H  H23  1  0.05574000  0.69702000  0.36896000  1.0 0.1406101191
H  H24  1  0.13104000  0.94426000  0.19702000  1.0 0.1406101191
H  H25  1  0.42180000  0.45508000  0.26789000  1.0 0.1474386159
H  H26  1  0.57820000  0.95508000  0.23211000  1.0 0.1474386159
H  H27  1  0.07820000  0.54492000  0.76789000  1.0 0.1474386159
H  H28  1  0.54492000  0.76789000  0.07820000  1.0 0.1474386159
H  H29  1  0.04492000  0.73211000  0.92180000  1.0 0.1474386159
H  H30  1  0.73211000  0.92180000  0.04492000  1.0 0.1474386159
H  H31  1  0.23211000  0.57820000  0.95508000  1.0 0.1474386159
H  H32  1  0.26789000  0.42180000  0.45508000  1.0 0.1474386159
H  H33  1  0.76789000  0.07820000  0.54492000  1.0 0.1474386159
H  H34  1  0.45508000  0.26789000  0.42180000  1.0 0.1474386159
H  H35  1  0.95508000  0.23211000  0.57820000  1.0 0.1474386159
H  H36  1  0.92180000  0.04492000  0.73211000  1.0 0.1474386159
H  H37  1  0.57820000  0.54492000  0.73211000  1.0 0.1474386159
H  H38  1  0.42180000  0.04492000  0.76789000  1.0 0.1474386159
H  H39  1  0.92180000  0.45508000  0.23211000  1.0 0.1474386159
H  H40  1  0.45508000  0.23211000  0.92180000  1.0 0.1474386159
H  H41  1  0.95508000  0.26789000  0.07820000  1.0 0.1474386159
H  H42  1  0.26789000  0.07820000  0.95508000  1.0 0.1474386159
H  H43  1  0.76789000  0.42180000  0.04492000  1.0 0.1474386159
H  H44  1  0.73211000  0.57820000  0.54492000  1.0 0.1474386159
H  H45  1  0.23211000  0.92180000  0.45508000  1.0 0.1474386159
H  H46  1  0.54492000  0.73211000  0.57820000  1.0 0.1474386159
H  H47  1  0.04492000  0.76789000  0.42180000  1.0 0.1474386159
H  H48  1  0.07820000  0.95508000  0.26789000  1.0 0.1474386159
H  H49  1  0.30099000  0.50385000  0.35050000  1.0 0.1326053386
H  H50  1  0.69901000  0.00385000  0.14950000  1.0 0.1326053386
H  H51  1  0.19901000  0.49615000  0.85050000  1.0 0.1326053386
H  H52  1  0.49615000  0.85050000  0.19901000  1.0 0.1326053386
H  H53  1  0.99615000  0.64950000  0.80099000  1.0 0.1326053386
H  H54  1  0.64950000  0.80099000  0.99615000  1.0 0.1326053386
H  H55  1  0.14950000  0.69901000  0.00385000  1.0 0.1326053386
H  H56  1  0.35050000  0.30099000  0.50385000  1.0 0.1326053386
H  H57  1  0.85050000  0.19901000  0.49615000  1.0 0.1326053386
H  H58  1  0.50385000  0.35050000  0.30099000  1.0 0.1326053386
H  H59  1  0.00385000  0.14950000  0.69901000  1.0 0.1326053386
H  H60  1  0.80099000  0.99615000  0.64950000  1.0 0.1326053386
H  H61  1  0.69901000  0.49615000  0.64950000  1.0 0.1326053386
H  H62  1  0.30099000  0.99615000  0.85050000  1.0 0.1326053386
H  H63  1  0.80099000  0.50385000  0.14950000  1.0 0.1326053386
H  H64  1  0.50385000  0.14950000  0.80099000  1.0 0.1326053386
H  H65  1  0.00385000  0.35050000  0.19901000  1.0 0.1326053386
H  H66  1  0.35050000  0.19901000  0.00385000  1.0 0.1326053386
H  H67  1  0.85050000  0.30099000  0.99615000  1.0 0.1326053386
H  H68  1  0.64950000  0.69901000  0.49615000  1.0 0.1326053386
H  H69  1  0.14950000  0.80099000  0.50385000  1.0 0.1326053386
H  H70  1  0.49615000  0.64950000  0.69901000  1.0 0.1326053386
H  H71  1  0.99615000  0.85050000  0.30099000  1.0 0.1326053386
H  H72  1  0.19901000  0.00385000  0.35050000  1.0 0.1326053386
H  H73  1  0.30376000  0.43971000  0.13888000  1.0 0.1326053386
H  H74  1  0.69624000  0.93971000  0.36112000  1.0 0.1326053386
H  H75  1  0.19624000  0.56029000  0.63888000  1.0 0.1326053386
H  H76  1  0.56029000  0.63888000  0.19624000  1.0 0.1326053386
H  H77  1  0.06029000  0.86112000  0.80376000  1.0 0.1326053386
H  H78  1  0.86112000  0.80376000  0.06029000  1.0 0.1326053386
H  H79  1  0.36112000  0.69624000  0.93971000  1.0 0.1326053386
H  H80  1  0.13888000  0.30376000  0.43971000  1.0 0.1326053386
H  H81  1  0.63888000  0.19624000  0.56029000  1.0 0.1326053386
H  H82  1  0.43971000  0.13888000  0.30376000  1.0 0.1326053386
H  H83  1  0.93971000  0.36112000  0.69624000  1.0 0.1326053386
H  H84  1  0.80376000  0.06029000  0.86112000  1.0 0.1326053386
H  H85  1  0.69624000  0.56029000  0.86112000  1.0 0.1326053386
H  H86  1  0.30376000  0.06029000  0.63888000  1.0 0.1326053386
H  H87  1  0.80376000  0.43971000  0.36112000  1.0 0.1326053386
H  H88  1  0.43971000  0.36112000  0.80376000  1.0 0.1326053386
H  H89  1  0.93971000  0.13888000  0.19624000  1.0 0.1326053386
H  H90  1  0.13888000  0.19624000  0.93971000  1.0 0.1326053386
H  H91  1  0.63888000  0.30376000  0.06029000  1.0 0.1326053386
H  H92  1  0.86112000  0.69624000  0.56029000  1.0 0.1326053386
H  H93  1  0.36112000  0.80376000  0.43971000  1.0 0.1326053386
H  H94  1  0.56029000  0.86112000  0.69624000  1.0 0.1326053386
H  H95  1  0.06029000  0.63888000  0.30376000  1.0 0.1326053386
H  H96  1  0.19624000  0.93971000  0.13888000  1.0 0.1326053386
H  H97  1  0.23426000  0.43677000  0.08326000  1.0 0.1474386159
H  H98  1  0.76574000  0.93677000  0.41674000  1.0 0.1474386159
H  H99  1  0.26574000  0.56323000  0.58326000  1.0 0.1474386159
H  H100  1  0.56323000  0.58326000  0.26574000  1.0 0.1474386159
H  H101  1  0.06323000  0.91674000  0.73426000  1.0 0.1474386159
H  H102  1  0.91674000  0.73426000  0.06323000  1.0 0.1474386159
H  H103  1  0.41674000  0.76574000  0.93677000  1.0 0.1474386159
H  H104  1  0.08326000  0.23426000  0.43677000  1.0 0.1474386159
H  H105  1  0.58326000  0.26574000  0.56323000  1.0 0.1474386159
H  H106  1  0.43677000  0.08326000  0.23426000  1.0 0.1474386159
H  H107  1  0.93677000  0.41674000  0.76574000  1.0 0.1474386159
H  H108  1  0.73426000  0.06323000  0.91674000  1.0 0.1474386159
H  H109  1  0.76574000  0.56323000  0.91674000  1.0 0.1474386159
H  H110  1  0.23426000  0.06323000  0.58326000  1.0 0.1474386159
H  H111  1  0.73426000  0.43677000  0.41674000  1.0 0.1474386159
H  H112  1  0.43677000  0.41674000  0.73426000  1.0 0.1474386159
H  H113  1  0.93677000  0.08326000  0.26574000  1.0 0.1474386159
H  H114  1  0.08326000  0.26574000  0.93677000  1.0 0.1474386159
H  H115  1  0.58326000  0.23426000  0.06323000  1.0 0.1474386159
H  H116  1  0.91674000  0.76574000  0.56323000  1.0 0.1474386159
H  H117  1  0.41674000  0.73426000  0.43677000  1.0 0.1474386159
H  H118  1  0.56323000  0.91674000  0.76574000  1.0 0.1474386159
H  H119  1  0.06323000  0.58326000  0.23426000  1.0 0.1474386159
H  H120  1  0.26574000  0.93677000  0.08326000  1.0 0.1474386159
H  H121  1  0.14218000  0.48877000  0.19558000  1.0 0.1406101191
H  H122  1  0.85782000  0.98877000  0.30442000  1.0 0.1406101191
H  H123  1  0.35782000  0.51123000  0.69558000  1.0 0.1406101191
H  H124  1  0.51123000  0.69558000  0.35782000  1.0 0.1406101191
H  H125  1  0.01123000  0.80442000  0.64218000  1.0 0.1406101191
H  H126  1  0.80442000  0.64218000  0.01123000  1.0 0.1406101191
H  H127  1  0.30442000  0.85782000  0.98877000  1.0 0.1406101191
H  H128  1  0.19558000  0.14218000  0.48877000  1.0 0.1406101191
H  H129  1  0.69558000  0.35782000  0.51123000  1.0 0.1406101191
H  H130  1  0.48877000  0.19558000  0.14218000  1.0 0.1406101191
H  H131  1  0.98877000  0.30442000  0.85782000  1.0 0.1406101191
H  H132  1  0.64218000  0.01123000  0.80442000  1.0 0.1406101191
H  H133  1  0.85782000  0.51123000  0.80442000  1.0 0.1406101191
H  H134  1  0.14218000  0.01123000  0.69558000  1.0 0.1406101191
H  H135  1  0.64218000  0.48877000  0.30442000  1.0 0.1406101191
H  H136  1  0.48877000  0.30442000  0.64218000  1.0 0.1406101191
H  H137  1  0.98877000  0.19558000  0.35782000  1.0 0.1406101191
H  H138  1  0.19558000  0.35782000  0.98877000  1.0 0.1406101191
H  H139  1  0.69558000  0.14218000  0.01123000  1.0 0.1406101191
H  H140  1  0.80442000  0.85782000  0.51123000  1.0 0.1406101191
H  H141  1  0.30442000  0.64218000  0.48877000  1.0 0.1406101191
H  H142  1  0.51123000  0.80442000  0.85782000  1.0 0.1406101191
H  H143  1  0.01123000  0.69558000  0.14218000  1.0 0.1406101191
H  H144  1  0.35782000  0.98877000  0.19558000  1.0 0.1406101191
C  C1  1  0.30374000  0.46765000  0.23186000  1.0 0.1326053386
C  C2  1  0.69626000  0.96765000  0.26814000  1.0 0.1326053386
C  C3  1  0.19626000  0.53235000  0.73186000  1.0 0.1326053386
C  C4  1  0.53235000  0.73186000  0.19626000  1.0 0.1326053386
C  C5  1  0.03235000  0.76814000  0.80374000  1.0 0.1326053386
C  C6  1  0.76814000  0.80374000  0.03235000  1.0 0.1326053386
C  C7  1  0.26814000  0.69626000  0.96765000  1.0 0.1326053386
C  C8  1  0.23186000  0.30374000  0.46765000  1.0 0.1326053386
C  C9  1  0.73186000  0.19626000  0.53235000  1.0 0.1326053386
C  C10  1  0.46765000  0.23186000  0.30374000  1.0 0.1326053386
C  C11  1  0.96765000  0.26814000  0.69626000  1.0 0.1326053386
C  C12  1  0.80374000  0.03235000  0.76814000  1.0 0.1326053386
C  C13  1  0.69626000  0.53235000  0.76814000  1.0 0.1326053386
C  C14  1  0.30374000  0.03235000  0.73186000  1.0 0.1326053386
C  C15  1  0.80374000  0.46765000  0.26814000  1.0 0.1326053386
C  C16  1  0.46765000  0.26814000  0.80374000  1.0 0.1326053386
C  C17  1  0.96765000  0.23186000  0.19626000  1.0 0.1326053386
C  C18  1  0.23186000  0.19626000  0.96765000  1.0 0.1326053386
C  C19  1  0.73186000  0.30374000  0.03235000  1.0 0.1326053386
C  C20  1  0.76814000  0.69626000  0.53235000  1.0 0.1326053386
C  C21  1  0.26814000  0.80374000  0.46765000  1.0 0.1326053386
C  C22  1  0.53235000  0.76814000  0.69626000  1.0 0.1326053386
C  C23  1  0.03235000  0.73186000  0.30374000  1.0 0.1326053386
C  C24  1  0.19626000  0.96765000  0.23186000  1.0 0.1326053386
C  C25  1  0.35507000  0.45644000  0.22840000  1.0 -0.1150992882
C  C26  1  0.64493000  0.95644000  0.27160000  1.0 -0.1150992882
C  C27  1  0.14493000  0.54356000  0.72840000  1.0 -0.1150992882
C  C28  1  0.54356000  0.72840000  0.14493000  1.0 -0.1150992882
C  C29  1  0.04356000  0.77160000  0.85507000  1.0 -0.1150992882
C  C30  1  0.77160000  0.85507000  0.04356000  1.0 -0.1150992882
C  C31  1  0.27160000  0.64493000  0.95644000  1.0 -0.1150992882
C  C32  1  0.22840000  0.35507000  0.45644000  1.0 -0.1150992882
C  C33  1  0.72840000  0.14493000  0.54356000  1.0 -0.1150992882
C  C34  1  0.45644000  0.22840000  0.35507000  1.0 -0.1150992882
C  C35  1  0.95644000  0.27160000  0.64493000  1.0 -0.1150992882
C  C36  1  0.85507000  0.04356000  0.77160000  1.0 -0.1150992882
C  C37  1  0.64493000  0.54356000  0.77160000  1.0 -0.1150992882
C  C38  1  0.35507000  0.04356000  0.72840000  1.0 -0.1150992882
C  C39  1  0.85507000  0.45644000  0.27160000  1.0 -0.1150992882
C  C40  1  0.45644000  0.27160000  0.85507000  1.0 -0.1150992882
C  C41  1  0.95644000  0.22840000  0.14493000  1.0 -0.1150992882
C  C42  1  0.22840000  0.14493000  0.95644000  1.0 -0.1150992882
C  C43  1  0.72840000  0.35507000  0.04356000  1.0 -0.1150992882
C  C44  1  0.77160000  0.64493000  0.54356000  1.0 -0.1150992882
C  C45  1  0.27160000  0.85507000  0.45644000  1.0 -0.1150992882
C  C46  1  0.54356000  0.77160000  0.64493000  1.0 -0.1150992882
C  C47  1  0.04356000  0.72840000  0.35507000  1.0 -0.1150992882
C  C48  1  0.14493000  0.95644000  0.22840000  1.0 -0.1150992882
C  C49  1  0.38630000  0.46284000  0.27029000  1.0 -0.0296936139
C  C50  1  0.61370000  0.96284000  0.22971000  1.0 -0.0296936139
C  C51  1  0.11370000  0.53716000  0.77029000  1.0 -0.0296936139
C  C52  1  0.53716000  0.77029000  0.11370000  1.0 -0.0296936139
C  C53  1  0.03716000  0.72971000  0.88630000  1.0 -0.0296936139
C  C54  1  0.72971000  0.88630000  0.03716000  1.0 -0.0296936139
C  C55  1  0.22971000  0.61370000  0.96284000  1.0 -0.0296936139
C  C56  1  0.27029000  0.38630000  0.46284000  1.0 -0.0296936139
C  C57  1  0.77029000  0.11370000  0.53716000  1.0 -0.0296936139
C  C58  1  0.46284000  0.27029000  0.38630000  1.0 -0.0296936139
C  C59  1  0.96284000  0.22971000  0.61370000  1.0 -0.0296936139
C  C60  1  0.88630000  0.03716000  0.72971000  1.0 -0.0296936139
C  C61  1  0.61370000  0.53716000  0.72971000  1.0 -0.0296936139
C  C62  1  0.38630000  0.03716000  0.77029000  1.0 -0.0296936139
C  C63  1  0.88630000  0.46284000  0.22971000  1.0 -0.0296936139
C  C64  1  0.46284000  0.22971000  0.88630000  1.0 -0.0296936139
C  C65  1  0.96284000  0.27029000  0.11370000  1.0 -0.0296936139
C  C66  1  0.27029000  0.11370000  0.96284000  1.0 -0.0296936139
C  C67  1  0.77029000  0.38630000  0.03716000  1.0 -0.0296936139
C  C68  1  0.72971000  0.61370000  0.53716000  1.0 -0.0296936139
C  C69  1  0.22971000  0.88630000  0.46284000  1.0 -0.0296936139
C  C70  1  0.53716000  0.72971000  0.61370000  1.0 -0.0296936139
C  C71  1  0.03716000  0.77029000  0.38630000  1.0 -0.0296936139
C  C72  1  0.11370000  0.96284000  0.27029000  1.0 -0.0296936139
C  C73  1  0.36621000  0.48045000  0.31566000  1.0 -0.0493517915
C  C74  1  0.63379000  0.98045000  0.18434000  1.0 -0.0493517915
C  C75  1  0.13379000  0.51955000  0.81566000  1.0 -0.0493517915
C  C76  1  0.51955000  0.81566000  0.13379000  1.0 -0.0493517915
C  C77  1  0.01955000  0.68434000  0.86621000  1.0 -0.0493517915
C  C78  1  0.68434000  0.86621000  0.01955000  1.0 -0.0493517915
C  C79  1  0.18434000  0.63379000  0.98045000  1.0 -0.0493517915
C  C80  1  0.31566000  0.36621000  0.48045000  1.0 -0.0493517915
C  C81  1  0.81566000  0.13379000  0.51955000  1.0 -0.0493517915
C  C82  1  0.48045000  0.31566000  0.36621000  1.0 -0.0493517915
C  C83  1  0.98045000  0.18434000  0.63379000  1.0 -0.0493517915
C  C84  1  0.86621000  0.01955000  0.68434000  1.0 -0.0493517915
C  C85  1  0.63379000  0.51955000  0.68434000  1.0 -0.0493517915
C  C86  1  0.36621000  0.01955000  0.81566000  1.0 -0.0493517915
C  C87  1  0.86621000  0.48045000  0.18434000  1.0 -0.0493517915
C  C88  1  0.48045000  0.18434000  0.86621000  1.0 -0.0493517915
C  C89  1  0.98045000  0.31566000  0.13379000  1.0 -0.0493517915
C  C90  1  0.31566000  0.13379000  0.98045000  1.0 -0.0493517915
C  C91  1  0.81566000  0.36621000  0.01955000  1.0 -0.0493517915
C  C92  1  0.68434000  0.63379000  0.51955000  1.0 -0.0493517915
C  C93  1  0.18434000  0.86621000  0.48045000  1.0 -0.0493517915
C  C94  1  0.51955000  0.68434000  0.63379000  1.0 -0.0493517915
C  C95  1  0.01955000  0.81566000  0.36621000  1.0 -0.0493517915
C  C96  1  0.13379000  0.98045000  0.31566000  1.0 -0.0493517915
C  C97  1  0.31489000  0.49167000  0.31912000  1.0 0.1084425198
C  C98  1  0.68511000  0.99167000  0.18088000  1.0 0.1084425198
C  C99  1  0.18511000  0.50833000  0.81912000  1.0 0.1084425198
C  C100  1  0.50833000  0.81912000  0.18511000  1.0 0.1084425198
C  C101  1  0.00833000  0.68088000  0.81489000  1.0 0.1084425198
C  C102  1  0.68088000  0.81489000  0.00833000  1.0 0.1084425198
C  C103  1  0.18088000  0.68511000  0.99167000  1.0 0.1084425198
C  C104  1  0.31912000  0.31489000  0.49167000  1.0 0.1084425198
C  C105  1  0.81912000  0.18511000  0.50833000  1.0 0.1084425198
C  C106  1  0.49167000  0.31912000  0.31489000  1.0 0.1084425198
C  C107  1  0.99167000  0.18088000  0.68511000  1.0 0.1084425198
C  C108  1  0.81489000  0.00833000  0.68088000  1.0 0.1084425198
C  C109  1  0.68511000  0.50833000  0.68088000  1.0 0.1084425198
C  C110  1  0.31489000  0.00833000  0.81912000  1.0 0.1084425198
C  C111  1  0.81489000  0.49167000  0.18088000  1.0 0.1084425198
C  C112  1  0.49167000  0.18088000  0.81489000  1.0 0.1084425198
C  C113  1  0.99167000  0.31912000  0.18511000  1.0 0.1084425198
C  C114  1  0.31912000  0.18511000  0.99167000  1.0 0.1084425198
C  C115  1  0.81912000  0.31489000  0.00833000  1.0 0.1084425198
C  C116  1  0.68088000  0.68511000  0.50833000  1.0 0.1084425198
C  C117  1  0.18088000  0.81489000  0.49167000  1.0 0.1084425198
C  C118  1  0.50833000  0.68088000  0.68511000  1.0 0.1084425198
C  C119  1  0.00833000  0.81912000  0.31489000  1.0 0.1084425198
C  C120  1  0.18511000  0.99167000  0.31912000  1.0 0.1084425198
C  C121  1  0.26405000  0.46598000  0.20010000  1.0 0.0960385728
C  C122  1  0.73595000  0.96598000  0.29990000  1.0 0.0960385728
C  C123  1  0.23595000  0.53402000  0.70010000  1.0 0.0960385728
C  C124  1  0.53402000  0.70010000  0.23595000  1.0 0.0960385728
C  C125  1  0.03402000  0.79990000  0.76405000  1.0 0.0960385728
C  C126  1  0.79990000  0.76405000  0.03402000  1.0 0.0960385728
C  C127  1  0.29990000  0.73595000  0.96598000  1.0 0.0960385728
C  C128  1  0.20010000  0.26405000  0.46598000  1.0 0.0960385728
C  C129  1  0.70010000  0.23595000  0.53402000  1.0 0.0960385728
C  C130  1  0.46598000  0.20010000  0.26405000  1.0 0.0960385728
C  C131  1  0.96598000  0.29990000  0.73595000  1.0 0.0960385728
C  C132  1  0.76405000  0.03402000  0.79990000  1.0 0.0960385728
C  C133  1  0.73595000  0.53402000  0.79990000  1.0 0.0960385728
C  C134  1  0.26405000  0.03402000  0.70010000  1.0 0.0960385728
C  C135  1  0.76405000  0.46598000  0.29990000  1.0 0.0960385728
C  C136  1  0.46598000  0.29990000  0.76405000  1.0 0.0960385728
C  C137  1  0.96598000  0.20010000  0.23595000  1.0 0.0960385728
C  C138  1  0.20010000  0.23595000  0.96598000  1.0 0.0960385728
C  C139  1  0.70010000  0.26405000  0.03402000  1.0 0.0960385728
C  C140  1  0.79990000  0.73595000  0.53402000  1.0 0.0960385728
C  C141  1  0.29990000  0.76405000  0.46598000  1.0 0.0960385728
C  C142  1  0.53402000  0.79990000  0.73595000  1.0 0.0960385728
C  C143  1  0.03402000  0.70010000  0.26405000  1.0 0.0960385728
C  C144  1  0.23595000  0.96598000  0.20010000  1.0 0.0960385728
C  C145  1  0.27072000  0.44974000  0.15047000  1.0 -0.1092225908
C  C146  1  0.72928000  0.94974000  0.34953000  1.0 -0.1092225908
C  C147  1  0.22928000  0.55026000  0.65047000  1.0 -0.1092225908
C  C148  1  0.55026000  0.65047000  0.22928000  1.0 -0.1092225908
C  C149  1  0.05026000  0.84953000  0.77072000  1.0 -0.1092225908
C  C150  1  0.84953000  0.77072000  0.05026000  1.0 -0.1092225908
C  C151  1  0.34953000  0.72928000  0.94974000  1.0 -0.1092225908
C  C152  1  0.15047000  0.27072000  0.44974000  1.0 -0.1092225908
C  C153  1  0.65047000  0.22928000  0.55026000  1.0 -0.1092225908
C  C154  1  0.44974000  0.15047000  0.27072000  1.0 -0.1092225908
C  C155  1  0.94974000  0.34953000  0.72928000  1.0 -0.1092225908
C  C156  1  0.77072000  0.05026000  0.84953000  1.0 -0.1092225908
C  C157  1  0.72928000  0.55026000  0.84953000  1.0 -0.1092225908
C  C158  1  0.27072000  0.05026000  0.65047000  1.0 -0.1092225908
C  C159  1  0.77072000  0.44974000  0.34953000  1.0 -0.1092225908
C  C160  1  0.44974000  0.34953000  0.77072000  1.0 -0.1092225908
C  C161  1  0.94974000  0.15047000  0.22928000  1.0 -0.1092225908
C  C162  1  0.15047000  0.22928000  0.94974000  1.0 -0.1092225908
C  C163  1  0.65047000  0.27072000  0.05026000  1.0 -0.1092225908
C  C164  1  0.84953000  0.72928000  0.55026000  1.0 -0.1092225908
C  C165  1  0.34953000  0.77072000  0.44974000  1.0 -0.1092225908
C  C166  1  0.55026000  0.84953000  0.72928000  1.0 -0.1092225908
C  C167  1  0.05026000  0.65047000  0.27072000  1.0 -0.1092225908
C  C168  1  0.22928000  0.94974000  0.15047000  1.0 -0.1092225908
C  C169  1  0.22964000  0.44800000  0.11759000  1.0 -0.0358925972
C  C170  1  0.77036000  0.94800000  0.38241000  1.0 -0.0358925972
C  C171  1  0.27036000  0.55200000  0.61759000  1.0 -0.0358925972
C  C172  1  0.55200000  0.61759000  0.27036000  1.0 -0.0358925972
C  C173  1  0.05200000  0.88241000  0.72964000  1.0 -0.0358925972
C  C174  1  0.88241000  0.72964000  0.05200000  1.0 -0.0358925972
C  C175  1  0.38241000  0.77036000  0.94800000  1.0 -0.0358925972
C  C176  1  0.11759000  0.22964000  0.44800000  1.0 -0.0358925972
C  C177  1  0.61759000  0.27036000  0.55200000  1.0 -0.0358925972
C  C178  1  0.44800000  0.11759000  0.22964000  1.0 -0.0358925972
C  C179  1  0.94800000  0.38241000  0.77036000  1.0 -0.0358925972
C  C180  1  0.72964000  0.05200000  0.88241000  1.0 -0.0358925972
C  C181  1  0.77036000  0.55200000  0.88241000  1.0 -0.0358925972
C  C182  1  0.22964000  0.05200000  0.61759000  1.0 -0.0358925972
C  C183  1  0.72964000  0.44800000  0.38241000  1.0 -0.0358925972
C  C184  1  0.44800000  0.38241000  0.72964000  1.0 -0.0358925972
C  C185  1  0.94800000  0.11759000  0.27036000  1.0 -0.0358925972
C  C186  1  0.11759000  0.27036000  0.94800000  1.0 -0.0358925972
C  C187  1  0.61759000  0.22964000  0.05200000  1.0 -0.0358925972
C  C188  1  0.88241000  0.77036000  0.55200000  1.0 -0.0358925972
C  C189  1  0.38241000  0.72964000  0.44800000  1.0 -0.0358925972
C  C190  1  0.55200000  0.88241000  0.77036000  1.0 -0.0358925972
C  C191  1  0.05200000  0.61759000  0.22964000  1.0 -0.0358925972
C  C192  1  0.27036000  0.94800000  0.11759000  1.0 -0.0358925972
C  C193  1  0.18189000  0.46250000  0.13435000  1.0 -0.0493517915
C  C194  1  0.81811000  0.96250000  0.36565000  1.0 -0.0493517915
C  C195  1  0.31811000  0.53750000  0.63435000  1.0 -0.0493517915
C  C196  1  0.53750000  0.63435000  0.31811000  1.0 -0.0493517915
C  C197  1  0.03750000  0.86565000  0.68189000  1.0 -0.0493517915
C  C198  1  0.86565000  0.68189000  0.03750000  1.0 -0.0493517915
C  C199  1  0.36565000  0.81811000  0.96250000  1.0 -0.0493517915
C  C200  1  0.13435000  0.18189000  0.46250000  1.0 -0.0493517915
C  C201  1  0.63435000  0.31811000  0.53750000  1.0 -0.0493517915
C  C202  1  0.46250000  0.13435000  0.18189000  1.0 -0.0493517915
C  C203  1  0.96250000  0.36565000  0.81811000  1.0 -0.0493517915
C  C204  1  0.68189000  0.03750000  0.86565000  1.0 -0.0493517915
C  C205  1  0.81811000  0.53750000  0.86565000  1.0 -0.0493517915
C  C206  1  0.18189000  0.03750000  0.63435000  1.0 -0.0493517915
C  C207  1  0.68189000  0.46250000  0.36565000  1.0 -0.0493517915
C  C208  1  0.46250000  0.36565000  0.68189000  1.0 -0.0493517915
C  C209  1  0.96250000  0.13435000  0.31811000  1.0 -0.0493517915
C  C210  1  0.13435000  0.31811000  0.96250000  1.0 -0.0493517915
C  C211  1  0.63435000  0.18189000  0.03750000  1.0 -0.0493517915
C  C212  1  0.86565000  0.81811000  0.53750000  1.0 -0.0493517915
C  C213  1  0.36565000  0.68189000  0.46250000  1.0 -0.0493517915
C  C214  1  0.53750000  0.86565000  0.81811000  1.0 -0.0493517915
C  C215  1  0.03750000  0.63435000  0.18189000  1.0 -0.0493517915
C  C216  1  0.31811000  0.96250000  0.13435000  1.0 -0.0493517915
C  C217  1  0.17521000  0.47874000  0.18399000  1.0 0.1174210112
C  C218  1  0.82479000  0.97874000  0.31601000  1.0 0.1174210112
C  C219  1  0.32479000  0.52126000  0.68399000  1.0 0.1174210112
C  C220  1  0.52126000  0.68399000  0.32479000  1.0 0.1174210112
C  C221  1  0.02126000  0.81601000  0.67521000  1.0 0.1174210112
C  C222  1  0.81601000  0.67521000  0.02126000  1.0 0.1174210112
C  C223  1  0.31601000  0.82479000  0.97874000  1.0 0.1174210112
C  C224  1  0.18399000  0.17521000  0.47874000  1.0 0.1174210112
C  C225  1  0.68399000  0.32479000  0.52126000  1.0 0.1174210112
C  C226  1  0.47874000  0.18399000  0.17521000  1.0 0.1174210112
C  C227  1  0.97874000  0.31601000  0.82479000  1.0 0.1174210112
C  C228  1  0.67521000  0.02126000  0.81601000  1.0 0.1174210112
C  C229  1  0.82479000  0.52126000  0.81601000  1.0 0.1174210112
C  C230  1  0.17521000  0.02126000  0.68399000  1.0 0.1174210112
C  C231  1  0.67521000  0.47874000  0.31601000  1.0 0.1174210112
C  C232  1  0.47874000  0.31601000  0.67521000  1.0 0.1174210112
C  C233  1  0.97874000  0.18399000  0.32479000  1.0 0.1174210112
C  C234  1  0.18399000  0.32479000  0.97874000  1.0 0.1174210112
C  C235  1  0.68399000  0.17521000  0.02126000  1.0 0.1174210112
C  C236  1  0.81601000  0.82479000  0.52126000  1.0 0.1174210112
C  C237  1  0.31601000  0.67521000  0.47874000  1.0 0.1174210112
C  C238  1  0.52126000  0.81601000  0.82479000  1.0 0.1174210112
C  C239  1  0.02126000  0.68399000  0.17521000  1.0 0.1174210112
C  C240  1  0.32479000  0.97874000  0.18399000  1.0 0.1174210112
C  C241  1  0.39911000  0.48719000  0.35980000  1.0 0.5130942989
C  C242  1  0.60089000  0.98719000  0.14020000  1.0 0.5130942989
C  C243  1  0.10089000  0.51281000  0.85980000  1.0 0.5130942989
C  C244  1  0.51281000  0.85980000  0.10089000  1.0 0.5130942989
C  C245  1  0.01281000  0.64020000  0.89911000  1.0 0.5130942989
C  C246  1  0.64020000  0.89911000  0.01281000  1.0 0.5130942989
C  C247  1  0.14020000  0.60089000  0.98719000  1.0 0.5130942989
C  C248  1  0.35980000  0.39911000  0.48719000  1.0 0.5130942989
C  C249  1  0.85980000  0.10089000  0.51281000  1.0 0.5130942989
C  C250  1  0.48719000  0.35980000  0.39911000  1.0 0.5130942989
C  C251  1  0.98719000  0.14020000  0.60089000  1.0 0.5130942989
C  C252  1  0.89911000  0.01281000  0.64020000  1.0 0.5130942989
C  C253  1  0.60089000  0.51281000  0.64020000  1.0 0.5130942989
C  C254  1  0.39911000  0.01281000  0.85980000  1.0 0.5130942989
C  C255  1  0.89911000  0.48719000  0.14020000  1.0 0.5130942989
C  C256  1  0.48719000  0.14020000  0.89911000  1.0 0.5130942989
C  C257  1  0.98719000  0.35980000  0.10089000  1.0 0.5130942989
C  C258  1  0.35980000  0.10089000  0.98719000  1.0 0.5130942989
C  C259  1  0.85980000  0.39911000  0.01281000  1.0 0.5130942989
C  C260  1  0.64020000  0.60089000  0.51281000  1.0 0.5130942989
C  C261  1  0.14020000  0.89911000  0.48719000  1.0 0.5130942989
C  C262  1  0.51281000  0.64020000  0.60089000  1.0 0.5130942989
C  C263  1  0.01281000  0.85980000  0.39911000  1.0 0.5130942989
C  C264  1  0.10089000  0.98719000  0.35980000  1.0 0.5130942989
C  C265  1  0.13860000  0.46068000  0.09971000  1.0 0.5385300372
C  C266  1  0.86140000  0.96068000  0.40029000  1.0 0.5385300372
C  C267  1  0.36140000  0.53932000  0.59971000  1.0 0.5385300372
C  C268  1  0.53932000  0.59971000  0.36140000  1.0 0.5385300372
C  C269  1  0.03932000  0.90029000  0.63860000  1.0 0.5385300372
C  C270  1  0.90029000  0.63860000  0.03932000  1.0 0.5385300372
C  C271  1  0.40029000  0.86140000  0.96068000  1.0 0.5385300372
C  C272  1  0.09971000  0.13860000  0.46068000  1.0 0.5385300372
C  C273  1  0.59971000  0.36140000  0.53932000  1.0 0.5385300372
C  C274  1  0.46068000  0.09971000  0.13860000  1.0 0.5385300372
C  C275  1  0.96068000  0.40029000  0.86140000  1.0 0.5385300372
C  C276  1  0.63860000  0.03932000  0.90029000  1.0 0.5385300372
C  C277  1  0.86140000  0.53932000  0.90029000  1.0 0.5385300372
C  C278  1  0.13860000  0.03932000  0.59971000  1.0 0.5385300372
C  C279  1  0.63860000  0.46068000  0.40029000  1.0 0.5385300372
C  C280  1  0.46068000  0.40029000  0.63860000  1.0 0.5385300372
C  C281  1  0.96068000  0.09971000  0.36140000  1.0 0.5385300372
C  C282  1  0.09971000  0.36140000  0.96068000  1.0 0.5385300372
C  C283  1  0.59971000  0.13860000  0.03932000  1.0 0.5385300372
C  C284  1  0.90029000  0.86140000  0.53932000  1.0 0.5385300372
C  C285  1  0.40029000  0.63860000  0.46068000  1.0 0.5385300372
C  C286  1  0.53932000  0.90029000  0.86140000  1.0 0.5385300372
C  C287  1  0.03932000  0.59971000  0.13860000  1.0 0.5385300372
C  C288  1  0.36140000  0.96068000  0.09971000  1.0 0.5385300372
N  N1  1  0.28443000  0.48543000  0.27827000  1.0 -0.2107094951
N  N2  1  0.71557000  0.98543000  0.22173000  1.0 -0.2107094951
N  N3  1  0.21557000  0.51457000  0.77827000  1.0 -0.2107094951
N  N4  1  0.51457000  0.77827000  0.21557000  1.0 -0.2107094951
N  N5  1  0.01457000  0.72173000  0.78443000  1.0 -0.2107094951
N  N6  1  0.72173000  0.78443000  0.01457000  1.0 -0.2107094951
N  N7  1  0.22173000  0.71557000  0.98543000  1.0 -0.2107094951
N  N8  1  0.27827000  0.28443000  0.48543000  1.0 -0.2107094951
N  N9  1  0.77827000  0.21557000  0.51457000  1.0 -0.2107094951
N  N10  1  0.48543000  0.27827000  0.28443000  1.0 -0.2107094951
N  N11  1  0.98543000  0.22173000  0.71557000  1.0 -0.2107094951
N  N12  1  0.78443000  0.01457000  0.72173000  1.0 -0.2107094951
N  N13  1  0.71557000  0.51457000  0.72173000  1.0 -0.2107094951
N  N14  1  0.28443000  0.01457000  0.77827000  1.0 -0.2107094951
N  N15  1  0.78443000  0.48543000  0.22173000  1.0 -0.2107094951
N  N16  1  0.48543000  0.22173000  0.78443000  1.0 -0.2107094951
N  N17  1  0.98543000  0.27827000  0.21557000  1.0 -0.2107094951
N  N18  1  0.27827000  0.21557000  0.98543000  1.0 -0.2107094951
N  N19  1  0.77827000  0.28443000  0.01457000  1.0 -0.2107094951
N  N20  1  0.72173000  0.71557000  0.51457000  1.0 -0.2107094951
N  N21  1  0.22173000  0.78443000  0.48543000  1.0 -0.2107094951
N  N22  1  0.51457000  0.72173000  0.71557000  1.0 -0.2107094951
N  N23  1  0.01457000  0.77827000  0.28443000  1.0 -0.2107094951
N  N24  1  0.21557000  0.98543000  0.27827000  1.0 -0.2107094951
N  N25  1  0.21528000  0.48044000  0.21604000  1.0 -0.1898184027
N  N26  1  0.78472000  0.98044000  0.28396000  1.0 -0.1898184027
N  N27  1  0.28472000  0.51956000  0.71604000  1.0 -0.1898184027
N  N28  1  0.51956000  0.71604000  0.28472000  1.0 -0.1898184027
N  N29  1  0.01956000  0.78396000  0.71528000  1.0 -0.1898184027
N  N30  1  0.78396000  0.71528000  0.01956000  1.0 -0.1898184027
N  N31  1  0.28396000  0.78472000  0.98044000  1.0 -0.1898184027
N  N32  1  0.21604000  0.21528000  0.48044000  1.0 -0.1898184027
N  N33  1  0.71604000  0.28472000  0.51956000  1.0 -0.1898184027
N  N34  1  0.48044000  0.21604000  0.21528000  1.0 -0.1898184027
N  N35  1  0.98044000  0.28396000  0.78472000  1.0 -0.1898184027
N  N36  1  0.71528000  0.01956000  0.78396000  1.0 -0.1898184027
N  N37  1  0.78472000  0.51956000  0.78396000  1.0 -0.1898184027
N  N38  1  0.21528000  0.01956000  0.71604000  1.0 -0.1898184027
N  N39  1  0.71528000  0.48044000  0.28396000  1.0 -0.1898184027
N  N40  1  0.48044000  0.28396000  0.71528000  1.0 -0.1898184027
N  N41  1  0.98044000  0.21604000  0.28472000  1.0 -0.1898184027
N  N42  1  0.21604000  0.28472000  0.98044000  1.0 -0.1898184027
N  N43  1  0.71604000  0.21528000  0.01956000  1.0 -0.1898184027
N  N44  1  0.78396000  0.78472000  0.51956000  1.0 -0.1898184027
N  N45  1  0.28396000  0.71528000  0.48044000  1.0 -0.1898184027
N  N46  1  0.51956000  0.78396000  0.78472000  1.0 -0.1898184027
N  N47  1  0.01956000  0.71604000  0.21528000  1.0 -0.1898184027
N  N48  1  0.28472000  0.98044000  0.21604000  1.0 -0.1898184027
Cl  Cl1  1  0.14490000  0.53310000  0.28990000  1.0 -0.4400253292
Cl  Cl2  1  0.85510000  0.03310000  0.21010000  1.0 -0.4400253292
Cl  Cl3  1  0.35510000  0.46690000  0.78990000  1.0 -0.4400253292
Cl  Cl4  1  0.46690000  0.78990000  0.35510000  1.0 -0.4400253292
Cl  Cl5  1  0.96690000  0.71010000  0.64490000  1.0 -0.4400253292
Cl  Cl6  1  0.71010000  0.64490000  0.96690000  1.0 -0.4400253292
Cl  Cl7  1  0.21010000  0.85510000  0.03310000  1.0 -0.4400253292
Cl  Cl8  1  0.28990000  0.14490000  0.53310000  1.0 -0.4400253292
Cl  Cl9  1  0.78990000  0.35510000  0.46690000  1.0 -0.4400253292
Cl  Cl10  1  0.53310000  0.28990000  0.14490000  1.0 -0.4400253292
Cl  Cl11  1  0.03310000  0.21010000  0.85510000  1.0 -0.4400253292
Cl  Cl12  1  0.64490000  0.96690000  0.71010000  1.0 -0.4400253292
Cl  Cl13  1  0.85510000  0.46690000  0.71010000  1.0 -0.4400253292
Cl  Cl14  1  0.14490000  0.96690000  0.78990000  1.0 -0.4400253292
Cl  Cl15  1  0.64490000  0.53310000  0.21010000  1.0 -0.4400253292
Cl  Cl16  1  0.53310000  0.21010000  0.64490000  1.0 -0.4400253292
Cl  Cl17  1  0.03310000  0.28990000  0.35510000  1.0 -0.4400253292
Cl  Cl18  1  0.28990000  0.35510000  0.03310000  1.0 -0.4400253292
Cl  Cl19  1  0.78990000  0.14490000  0.96690000  1.0 -0.4400253292
Cl  Cl20  1  0.71010000  0.85510000  0.46690000  1.0 -0.4400253292
Cl  Cl21  1  0.21010000  0.64490000  0.53310000  1.0 -0.4400253292
Cl  Cl22  1  0.46690000  0.71010000  0.85510000  1.0 -0.4400253292
Cl  Cl23  1  0.96690000  0.78990000  0.14490000  1.0 -0.4400253292
Cl  Cl24  1  0.35510000  0.03310000  0.28990000  1.0 -0.4400253292
Cl  Cl25  1  0.20280000  0.46220000  0.36575000  1.0 -0.4400253292
Cl  Cl26  1  0.79720000  0.96220000  0.13425000  1.0 -0.4400253292
Cl  Cl27  1  0.29720000  0.53780000  0.86575000  1.0 -0.4400253292
Cl  Cl28  1  0.53780000  0.86575000  0.29720000  1.0 -0.4400253292
Cl  Cl29  1  0.03780000  0.63425000  0.70280000  1.0 -0.4400253292
Cl  Cl30  1  0.63425000  0.70280000  0.03780000  1.0 -0.4400253292
Cl  Cl31  1  0.13425000  0.79720000  0.96220000  1.0 -0.4400253292
Cl  Cl32  1  0.36575000  0.20280000  0.46220000  1.0 -0.4400253292
Cl  Cl33  1  0.86575000  0.29720000  0.53780000  1.0 -0.4400253292
Cl  Cl34  1  0.46220000  0.36575000  0.20280000  1.0 -0.4400253292
Cl  Cl35  1  0.96220000  0.13425000  0.79720000  1.0 -0.4400253292
Cl  Cl36  1  0.70280000  0.03780000  0.63425000  1.0 -0.4400253292
Cl  Cl37  1  0.79720000  0.53780000  0.63425000  1.0 -0.4400253292
Cl  Cl38  1  0.20280000  0.03780000  0.86575000  1.0 -0.4400253292
Cl  Cl39  1  0.70280000  0.46220000  0.13425000  1.0 -0.4400253292
Cl  Cl40  1  0.46220000  0.13425000  0.70280000  1.0 -0.4400253292
Cl  Cl41  1  0.96220000  0.36575000  0.29720000  1.0 -0.4400253292
Cl  Cl42  1  0.36575000  0.29720000  0.96220000  1.0 -0.4400253292
Cl  Cl43  1  0.86575000  0.20280000  0.03780000  1.0 -0.4400253292
Cl  Cl44  1  0.63425000  0.79720000  0.53780000  1.0 -0.4400253292
Cl  Cl45  1  0.13425000  0.70280000  0.46220000  1.0 -0.4400253292
Cl  Cl46  1  0.53780000  0.63425000  0.79720000  1.0 -0.4400253292
Cl  Cl47  1  0.03780000  0.86575000  0.20280000  1.0 -0.4400253292
Cl  Cl48  1  0.29720000  0.96220000  0.36575000  1.0 -0.4400253292
O  O1  1  0.46460000  0.46460000  0.46460000  1.0 -0.3291721061
O  O2  1  0.53540000  0.96460000  0.03540000  1.0 -0.3291721061
O  O3  1  0.03540000  0.53540000  0.96460000  1.0 -0.3291721061
O  O4  1  0.96460000  0.03540000  0.53540000  1.0 -0.3291721061
O  O5  1  0.53540000  0.53540000  0.53540000  1.0 -0.3291721061
O  O6  1  0.46460000  0.03540000  0.96460000  1.0 -0.3291721061
O  O7  1  0.96460000  0.46460000  0.03540000  1.0 -0.3291721061
O  O8  1  0.03540000  0.96460000  0.46460000  1.0 -0.3291721061
O  O9  1  0.53878000  0.44838000  0.47048000  1.0 -0.3029840958
O  O10  1  0.46122000  0.94838000  0.02952000  1.0 -0.3029840958
O  O11  1  0.96122000  0.55162000  0.97048000  1.0 -0.3029840958
O  O12  1  0.55162000  0.97048000  0.96122000  1.0 -0.3029840958
O  O13  1  0.05162000  0.52952000  0.03878000  1.0 -0.3029840958
O  O14  1  0.52952000  0.03878000  0.05162000  1.0 -0.3029840958
O  O15  1  0.02952000  0.46122000  0.94838000  1.0 -0.3029840958
O  O16  1  0.47048000  0.53878000  0.44838000  1.0 -0.3029840958
O  O17  1  0.97048000  0.96122000  0.55162000  1.0 -0.3029840958
O  O18  1  0.44838000  0.47048000  0.53878000  1.0 -0.3029840958
O  O19  1  0.94838000  0.02952000  0.46122000  1.0 -0.3029840958
O  O20  1  0.03878000  0.05162000  0.52952000  1.0 -0.3029840958
O  O21  1  0.46122000  0.55162000  0.52952000  1.0 -0.3029840958
O  O22  1  0.53878000  0.05162000  0.97048000  1.0 -0.3029840958
O  O23  1  0.03878000  0.44838000  0.02952000  1.0 -0.3029840958
O  O24  1  0.44838000  0.02952000  0.03878000  1.0 -0.3029840958
O  O25  1  0.94838000  0.47048000  0.96122000  1.0 -0.3029840958
O  O26  1  0.47048000  0.96122000  0.94838000  1.0 -0.3029840958
O  O27  1  0.97048000  0.53878000  0.05162000  1.0 -0.3029840958
O  O28  1  0.52952000  0.46122000  0.55162000  1.0 -0.3029840958
O  O29  1  0.02952000  0.03878000  0.44838000  1.0 -0.3029840958
O  O30  1  0.55162000  0.52952000  0.46122000  1.0 -0.3029840958
O  O31  1  0.05162000  0.97048000  0.53878000  1.0 -0.3029840958
O  O32  1  0.96122000  0.94838000  0.47048000  1.0 -0.3029840958
O  O33  1  0.38058000  0.50351000  0.40166000  1.0 -0.2807859917
O  O34  1  0.61942000  0.00351000  0.09834000  1.0 -0.2807859917
O  O35  1  0.11942000  0.49649000  0.90166000  1.0 -0.2807859917
O  O36  1  0.49649000  0.90166000  0.11942000  1.0 -0.2807859917
O  O37  1  0.99649000  0.59834000  0.88058000  1.0 -0.2807859917
O  O38  1  0.59834000  0.88058000  0.99649000  1.0 -0.2807859917
O  O39  1  0.09834000  0.61942000  0.00351000  1.0 -0.2807859917
O  O40  1  0.40166000  0.38058000  0.50351000  1.0 -0.2807859917
O  O41  1  0.90166000  0.11942000  0.49649000  1.0 -0.2807859917
O  O42  1  0.50351000  0.40166000  0.38058000  1.0 -0.2807859917
O  O43  1  0.00351000  0.09834000  0.61942000  1.0 -0.2807859917
O  O44  1  0.88058000  0.99649000  0.59834000  1.0 -0.2807859917
O  O45  1  0.61942000  0.49649000  0.59834000  1.0 -0.2807859917
O  O46  1  0.38058000  0.99649000  0.90166000  1.0 -0.2807859917
O  O47  1  0.88058000  0.50351000  0.09834000  1.0 -0.2807859917
O  O48  1  0.50351000  0.09834000  0.88058000  1.0 -0.2807859917
O  O49  1  0.00351000  0.40166000  0.11942000  1.0 -0.2807859917
O  O50  1  0.40166000  0.11942000  0.00351000  1.0 -0.2807859917
O  O51  1  0.90166000  0.38058000  0.99649000  1.0 -0.2807859917
O  O52  1  0.59834000  0.61942000  0.49649000  1.0 -0.2807859917
O  O53  1  0.09834000  0.88058000  0.50351000  1.0 -0.2807859917
O  O54  1  0.49649000  0.59834000  0.61942000  1.0 -0.2807859917
O  O55  1  0.99649000  0.90166000  0.38058000  1.0 -0.2807859917
O  O56  1  0.11942000  0.00351000  0.40166000  1.0 -0.2807859917
O  O57  1  0.44649000  0.47678000  0.35661000  1.0 -0.1898184027
O  O58  1  0.55351000  0.97678000  0.14339000  1.0 -0.1898184027
O  O59  1  0.05351000  0.52322000  0.85661000  1.0 -0.1787710962
O  O60  1  0.52322000  0.85661000  0.05351000  1.0 -0.1898184027
O  O61  1  0.02322000  0.64339000  0.94649000  1.0 -0.1898184027
O  O62  1  0.64339000  0.94649000  0.02322000  1.0 -0.1898184027
O  O63  1  0.14339000  0.55351000  0.97678000  1.0 -0.1898184027
O  O64  1  0.35661000  0.44649000  0.47678000  1.0 -0.1898184027
O  O65  1  0.85661000  0.05351000  0.52322000  1.0 -0.1787710962
O  O66  1  0.47678000  0.35661000  0.44649000  1.0 -0.1787710962
O  O67  1  0.97678000  0.14339000  0.55351000  1.0 -0.1787710962
O  O68  1  0.94649000  0.02322000  0.64339000  1.0 -0.1787710962
O  O69  1  0.55351000  0.52322000  0.64339000  1.0 -0.1898184027
O  O70  1  0.44649000  0.02322000  0.85661000  1.0 -0.1787710962
O  O71  1  0.94649000  0.47678000  0.14339000  1.0 -0.1898184027
O  O72  1  0.47678000  0.14339000  0.94649000  1.0 -0.1787710962
O  O73  1  0.97678000  0.35661000  0.05351000  1.0 -0.1787710962
O  O74  1  0.35661000  0.05351000  0.97678000  1.0 -0.1787710962
O  O75  1  0.85661000  0.44649000  0.02322000  1.0 -0.1787710962
O  O76  1  0.64339000  0.55351000  0.52322000  1.0 -0.1898184027
O  O77  1  0.14339000  0.94649000  0.47678000  1.0 -0.1898184027
O  O78  1  0.52322000  0.64339000  0.55351000  1.0 -0.1898184027
O  O79  1  0.02322000  0.85661000  0.44649000  1.0 -0.1898184027
O  O80  1  0.05351000  0.97678000  0.35661000  1.0 -0.1898184027
O  O81  1  0.09333000  0.46337000  0.11722000  1.0 -0.3776456487
O  O82  1  0.90667000  0.96337000  0.38278000  1.0 -0.3776456487
O  O83  1  0.40667000  0.53663000  0.61722000  1.0 -0.3776456487
O  O84  1  0.53663000  0.61722000  0.40667000  1.0 -0.3776456487
O  O85  1  0.03663000  0.88278000  0.59333000  1.0 -0.3776456487
O  O86  1  0.88278000  0.59333000  0.03663000  1.0 -0.3776456487
O  O87  1  0.38278000  0.90667000  0.96337000  1.0 -0.3776456487
O  O88  1  0.11722000  0.09333000  0.46337000  1.0 -0.3776456487
O  O89  1  0.61722000  0.40667000  0.53663000  1.0 -0.3776456487
O  O90  1  0.46337000  0.11722000  0.09333000  1.0 -0.3776456487
O  O91  1  0.96337000  0.38278000  0.90667000  1.0 -0.3776456487
O  O92  1  0.59333000  0.03663000  0.88278000  1.0 -0.3776456487
O  O93  1  0.90667000  0.53663000  0.88278000  1.0 -0.3776456487
O  O94  1  0.09333000  0.03663000  0.61722000  1.0 -0.3776456487
O  O95  1  0.59333000  0.46337000  0.38278000  1.0 -0.3776456487
O  O96  1  0.46337000  0.38278000  0.59333000  1.0 -0.3776456487
O  O97  1  0.96337000  0.11722000  0.40667000  1.0 -0.3776456487
O  O98  1  0.11722000  0.40667000  0.96337000  1.0 -0.3776456487
O  O99  1  0.61722000  0.09333000  0.03663000  1.0 -0.3776456487
O  O100  1  0.88278000  0.90667000  0.53663000  1.0 -0.3776456487
O  O101  1  0.38278000  0.59333000  0.46337000  1.0 -0.3776456487
O  O102  1  0.53663000  0.88278000  0.90667000  1.0 -0.3776456487
O  O103  1  0.03663000  0.61722000  0.09333000  1.0 -0.3776456487
O  O104  1  0.40667000  0.96337000  0.11722000  1.0 -0.3776456487
O  O105  1  0.14594000  0.45637000  0.05185000  1.0 -0.2107094951
O  O106  1  0.85406000  0.95637000  0.44815000  1.0 -0.2107094951
O  O107  1  0.35406000  0.54363000  0.55185000  1.0 -0.2107094951
O  O108  1  0.54363000  0.55185000  0.35406000  1.0 -0.2107094951
O  O109  1  0.04363000  0.94815000  0.64594000  1.0 -0.2107094951
O  O110  1  0.94815000  0.64594000  0.04363000  1.0 -0.2107094951
O  O111  1  0.44815000  0.85406000  0.95637000  1.0 -0.2107094951
O  O112  1  0.05185000  0.14594000  0.45637000  1.0 -0.2107094951
O  O113  1  0.55185000  0.35406000  0.54363000  1.0 -0.2107094951
O  O114  1  0.45637000  0.05185000  0.14594000  1.0 -0.2107094951
O  O115  1  0.95637000  0.44815000  0.85406000  1.0 -0.2107094951
O  O116  1  0.64594000  0.04363000  0.94815000  1.0 -0.2107094951
O  O117  1  0.85406000  0.54363000  0.94815000  1.0 -0.2107094951
O  O118  1  0.14594000  0.04363000  0.55185000  1.0 -0.2107094951
O  O119  1  0.64594000  0.45637000  0.44815000  1.0 -0.2107094951
O  O120  1  0.45637000  0.44815000  0.64594000  1.0 -0.2107094951
O  O121  1  0.95637000  0.05185000  0.35406000  1.0 -0.2107094951
O  O122  1  0.05185000  0.35406000  0.95637000  1.0 -0.2107094951
O  O123  1  0.55185000  0.14594000  0.04363000  1.0 -0.2107094951
O  O124  1  0.94815000  0.85406000  0.54363000  1.0 -0.2107094951
O  O125  1  0.44815000  0.64594000  0.45637000  1.0 -0.2107094951
O  O126  1  0.54363000  0.94815000  0.85406000  1.0 -0.2107094951
O  O127  1  0.04363000  0.55185000  0.14594000  1.0 -0.2107094951
O  O128  1  0.35406000  0.95637000  0.05185000  1.0 -0.2107094951
O  O129  1  0.44610000  0.44610000  0.44610000  1.0 -0.4472742226
O  O130  1  0.55390000  0.94610000  0.05390000  1.0 -0.4472742226
O  O131  1  0.05390000  0.55390000  0.94610000  1.0 -0.4472742226
O  O132  1  0.94610000  0.05390000  0.55390000  1.0 -0.4472742226
O  O133  1  0.55390000  0.55390000  0.55390000  1.0 -0.4472742226
O  O134  1  0.44610000  0.05390000  0.94610000  1.0 -0.4472742226
O  O135  1  0.94610000  0.44610000  0.05390000  1.0 -0.4472742226
O  O136  1  0.05390000  0.94610000  0.44610000  1.0 -0.4472742226
O  O137  1  0.55356000  0.43032000  0.47171000  1.0 -0.2807859917
O  O138  1  0.44644000  0.93032000  0.02829000  1.0 -0.2807859917
O  O139  1  0.94644000  0.56968000  0.97171000  1.0 -0.2807859917
O  O140  1  0.56968000  0.97171000  0.94644000  1.0 -0.2807859917
O  O141  1  0.06968000  0.52829000  0.05356000  1.0 -0.2807859917
O  O142  1  0.52829000  0.05356000  0.06968000  1.0 -0.2807859917
O  O143  1  0.02829000  0.44644000  0.93032000  1.0 -0.2807859917
O  O144  1  0.47171000  0.55356000  0.43032000  1.0 -0.2807859917
O  O145  1  0.97171000  0.94644000  0.56968000  1.0 -0.2807859917
O  O146  1  0.43032000  0.47171000  0.55356000  1.0 -0.2807859917
O  O147  1  0.93032000  0.02829000  0.44644000  1.0 -0.2807859917
O  O148  1  0.05356000  0.06968000  0.52829000  1.0 -0.2807859917
O  O149  1  0.44644000  0.56968000  0.52829000  1.0 -0.2807859917
O  O150  1  0.55356000  0.06968000  0.97171000  1.0 -0.2807859917
O  O151  1  0.05356000  0.43032000  0.02829000  1.0 -0.2807859917
O  O152  1  0.43032000  0.02829000  0.05356000  1.0 -0.2807859917
O  O153  1  0.93032000  0.47171000  0.94644000  1.0 -0.2807859917
O  O154  1  0.47171000  0.94644000  0.93032000  1.0 -0.2807859917
O  O155  1  0.97171000  0.55356000  0.06968000  1.0 -0.2807859917
O  O156  1  0.52829000  0.44644000  0.56968000  1.0 -0.2807859917
O  O157  1  0.02829000  0.05356000  0.43032000  1.0 -0.2807859917
O  O158  1  0.56968000  0.52829000  0.44644000  1.0 -0.2807859917
O  O159  1  0.06968000  0.97171000  0.55356000  1.0 -0.2807859917
O  O160  1  0.94644000  0.93032000  0.47171000  1.0 -0.2807859917
O  O161  1  0.36840000  0.51070000  0.40870000  1.0 -0.3291721061
O  O162  1  0.63160000  0.01070000  0.09130000  1.0 -0.3291721061
O  O163  1  0.13160000  0.48930000  0.90870000  1.0 -0.3291721061
O  O164  1  0.48930000  0.90870000  0.13160000  1.0 -0.3291721061
O  O165  1  0.98930000  0.59130000  0.86840000  1.0 -0.3291721061
O  O166  1  0.59130000  0.86840000  0.98930000  1.0 -0.3291721061
O  O167  1  0.09130000  0.63160000  0.01070000  1.0 -0.3291721061
O  O168  1  0.40870000  0.36840000  0.51070000  1.0 -0.3291721061
O  O169  1  0.90870000  0.13160000  0.48930000  1.0 -0.3291721061
O  O170  1  0.51070000  0.40870000  0.36840000  1.0 -0.3291721061
O  O171  1  0.01070000  0.09130000  0.63160000  1.0 -0.3291721061
O  O172  1  0.86840000  0.98930000  0.59130000  1.0 -0.3291721061
O  O173  1  0.63160000  0.48930000  0.59130000  1.0 -0.3291721061
O  O174  1  0.36840000  0.98930000  0.90870000  1.0 -0.3291721061
O  O175  1  0.86840000  0.51070000  0.09130000  1.0 -0.3291721061
O  O176  1  0.51070000  0.09130000  0.86840000  1.0 -0.3291721061
O  O177  1  0.01070000  0.40870000  0.13160000  1.0 -0.3291721061
O  O178  1  0.40870000  0.13160000  0.01070000  1.0 -0.3291721061
O  O179  1  0.90870000  0.36840000  0.98930000  1.0 -0.3291721061
O  O180  1  0.59130000  0.63160000  0.48930000  1.0 -0.3291721061
O  O181  1  0.09130000  0.86840000  0.51070000  1.0 -0.3291721061
O  O182  1  0.48930000  0.59130000  0.63160000  1.0 -0.3291721061
O  O183  1  0.98930000  0.90870000  0.36840000  1.0 -0.3291721061
O  O184  1  0.13160000  0.01070000  0.40870000  1.0 -0.3291721061
O  O185  1  0.45200000  0.49460000  0.35300000  1.0 -0.1787710962
O  O186  1  0.54800000  0.99460000  0.14700000  1.0 -0.1787710962
O  O187  1  0.04800000  0.50540000  0.85300000  1.0 -0.1787710962
O  O188  1  0.50540000  0.85300000  0.04800000  1.0 -0.1787710962
O  O189  1  0.00540000  0.64700000  0.95200000  1.0 -0.1787710962
O  O190  1  0.64700000  0.95200000  0.00540000  1.0 -0.1787710962
O  O191  1  0.14700000  0.54800000  0.99460000  1.0 -0.1787710962
O  O192  1  0.35300000  0.45200000  0.49460000  1.0 -0.1787710962
O  O193  1  0.85300000  0.04800000  0.50540000  1.0 -0.1787710962
O  O194  1  0.49460000  0.35300000  0.45200000  1.0 -0.1787710962
O  O195  1  0.99460000  0.14700000  0.54800000  1.0 -0.1787710962
O  O196  1  0.95200000  0.00540000  0.64700000  1.0 -0.1787710962
O  O197  1  0.54800000  0.50540000  0.64700000  1.0 -0.1787710962
O  O198  1  0.45200000  0.00540000  0.85300000  1.0 -0.1787710962
O  O199  1  0.95200000  0.49460000  0.14700000  1.0 -0.1787710962
O  O200  1  0.49460000  0.14700000  0.95200000  1.0 -0.1787710962
O  O201  1  0.99460000  0.35300000  0.04800000  1.0 -0.1787710962
O  O202  1  0.35300000  0.04800000  0.99460000  1.0 -0.1787710962
O  O203  1  0.85300000  0.45200000  0.00540000  1.0 -0.1787710962
O  O204  1  0.64700000  0.54800000  0.50540000  1.0 -0.1787710962
O  O205  1  0.14700000  0.95200000  0.49460000  1.0 -0.1787710962
O  O206  1  0.50540000  0.64700000  0.54800000  1.0 -0.1787710962
O  O207  1  0.00540000  0.85300000  0.45200000  1.0 -0.1787710962
O  O208  1  0.04800000  0.99460000  0.35300000  1.0 -0.1787710962
O  O209  1  0.08700000  0.46450000  0.13020000  1.0 -0.4725270491
O  O210  1  0.91300000  0.96450000  0.36980000  1.0 -0.4725270491
O  O211  1  0.41300000  0.53550000  0.63020000  1.0 -0.4725270491
O  O212  1  0.53550000  0.63020000  0.41300000  1.0 -0.4725270491
O  O213  1  0.03550000  0.86980000  0.58700000  1.0 -0.4725270491
O  O214  1  0.86980000  0.58700000  0.03550000  1.0 -0.4725270491
O  O215  1  0.36980000  0.91300000  0.96450000  1.0 -0.4725270491
O  O216  1  0.13020000  0.08700000  0.46450000  1.0 -0.4725270491
O  O217  1  0.63020000  0.41300000  0.53550000  1.0 -0.4725270491
O  O218  1  0.46450000  0.13020000  0.08700000  1.0 -0.4725270491
O  O219  1  0.96450000  0.36980000  0.91300000  1.0 -0.4725270491
O  O220  1  0.58700000  0.03550000  0.86980000  1.0 -0.4725270491
O  O221  1  0.91300000  0.53550000  0.86980000  1.0 -0.4725270491
O  O222  1  0.08700000  0.03550000  0.63020000  1.0 -0.4725270491
O  O223  1  0.58700000  0.46450000  0.36980000  1.0 -0.4725270491
O  O224  1  0.46450000  0.36980000  0.58700000  1.0 -0.4725270491
O  O225  1  0.96450000  0.13020000  0.41300000  1.0 -0.4725270491
O  O226  1  0.13020000  0.41300000  0.96450000  1.0 -0.4725270491
O  O227  1  0.63020000  0.08700000  0.03550000  1.0 -0.4725270491
O  O228  1  0.86980000  0.91300000  0.53550000  1.0 -0.4725270491
O  O229  1  0.36980000  0.58700000  0.46450000  1.0 -0.4725270491
O  O230  1  0.53550000  0.86980000  0.91300000  1.0 -0.4725270491
O  O231  1  0.03550000  0.63020000  0.08700000  1.0 -0.4725270491
O  O232  1  0.41300000  0.96450000  0.13020000  1.0 -0.4725270491
O  O233  1  0.15390000  0.46850000  0.04210000  1.0 -0.2322917322
O  O234  1  0.84610000  0.96850000  0.45790000  1.0 -0.2322917322
O  O235  1  0.34610000  0.53150000  0.54210000  1.0 -0.2322917322
O  O236  1  0.53150000  0.54210000  0.34610000  1.0 -0.2322917322
O  O237  1  0.03150000  0.95790000  0.65390000  1.0 -0.2322917322
O  O238  1  0.95790000  0.65390000  0.03150000  1.0 -0.2322917322
O  O239  1  0.45790000  0.84610000  0.96850000  1.0 -0.2322917322
O  O240  1  0.04210000  0.15390000  0.46850000  1.0 -0.2322917322
O  O241  1  0.54210000  0.34610000  0.53150000  1.0 -0.2322917322
O  O242  1  0.46850000  0.04210000  0.15390000  1.0 -0.2322917322
O  O243  1  0.96850000  0.45790000  0.84610000  1.0 -0.2322917322
O  O244  1  0.65390000  0.03150000  0.95790000  1.0 -0.2322917322
O  O245  1  0.84610000  0.53150000  0.95790000  1.0 -0.2322917322
O  O246  1  0.15390000  0.03150000  0.54210000  1.0 -0.2322917322
O  O247  1  0.65390000  0.46850000  0.45790000  1.0 -0.2322917322
O  O248  1  0.46850000  0.45790000  0.65390000  1.0 -0.2322917322
O  O249  1  0.96850000  0.04210000  0.34610000  1.0 -0.2322917322
O  O250  1  0.04210000  0.34610000  0.96850000  1.0 -0.2322917322
O  O251  1  0.54210000  0.15390000  0.03150000  1.0 -0.2322917322
O  O252  1  0.95790000  0.84610000  0.53150000  1.0 -0.2322917322
O  O253  1  0.45790000  0.65390000  0.46850000  1.0 -0.2322917322
O  O254  1  0.53150000  0.95790000  0.84610000  1.0 -0.2322917322
O  O255  1  0.03150000  0.54210000  0.15390000  1.0 -0.2322917322
O  O256  1  0.34610000  0.96850000  0.04210000  1.0 -0.2322917322
