# DDEC6 charges by PACMAN v1.1 (https://github.com/mtap-research/PACMAN-charge/)
data_QURPOK_FSR_pacman
_symmetry_space_group_name_H-M   'P 1'
_cell_length_a   26.25500000
_cell_length_b   26.25500000
_cell_length_c   26.25500000
_cell_angle_alpha   90.00000000
_cell_angle_beta   90.00000000
_cell_angle_gamma   90.00000000
_symmetry_Int_Tables_number   1
_chemical_formula_structural   Zr3Fe3H18C36Br12(N3O10)2
_chemical_formula_sum   'Zr24 Fe24 H144 C288 Br96 N48 O160'
_cell_volume   18098.22853137
_cell_formula_units_Z   8
loop_
 _symmetry_equiv_pos_site_id
 _symmetry_equiv_pos_as_xyz
  1  'x, y, z'
loop_
 _atom_site_type_symbol
 _atom_site_label
 _atom_site_symmetry_multiplicity
 _atom_site_fract_x
 _atom_site_fract_y
 _atom_site_fract_z
 _atom_site_occupancy
 _atom_site_charge
Zr  Zr1  1  0.51192000  0.51385000  0.09265000  1.0 2.0405503433
Zr  Zr2  1  0.09265000  0.51192000  0.51385000  1.0 2.0405503433
Zr  Zr3  1  0.51385000  0.09265000  0.51192000  1.0 2.0405503433
Zr  Zr4  1  0.98615000  0.90735000  0.01192000  1.0 2.034631873
Zr  Zr5  1  0.59265000  0.98808000  0.48615000  1.0 2.0405503433
Zr  Zr6  1  0.48615000  0.59265000  0.98808000  1.0 2.0405503433
Zr  Zr7  1  0.40735000  0.48808000  0.01385000  1.0 2.0405503433
Zr  Zr8  1  0.90735000  0.01192000  0.98615000  1.0 2.034631873
Zr  Zr9  1  0.01385000  0.40735000  0.48808000  1.0 2.0405503433
Zr  Zr10  1  0.98808000  0.48615000  0.59265000  1.0 2.0405503433
Zr  Zr11  1  0.01192000  0.98615000  0.90735000  1.0 2.0405503433
Zr  Zr12  1  0.48808000  0.01385000  0.40735000  1.0 2.0405503433
Zr  Zr13  1  0.48808000  0.48615000  0.90735000  1.0 2.0405503433
Zr  Zr14  1  0.90735000  0.48808000  0.48615000  1.0 2.0405503433
Zr  Zr15  1  0.48615000  0.90735000  0.48808000  1.0 2.0405503433
Zr  Zr16  1  0.01385000  0.09265000  0.98808000  1.0 2.0405503433
Zr  Zr17  1  0.40735000  0.01192000  0.51385000  1.0 2.0405503433
Zr  Zr18  1  0.51385000  0.40735000  0.01192000  1.0 2.0405503433
Zr  Zr19  1  0.59265000  0.51192000  0.98615000  1.0 2.0405503433
Zr  Zr20  1  0.09265000  0.98808000  0.01385000  1.0 2.0405503433
Zr  Zr21  1  0.98615000  0.59265000  0.51192000  1.0 2.0405503433
Zr  Zr22  1  0.01192000  0.51385000  0.40735000  1.0 2.0405503433
Zr  Zr23  1  0.98808000  0.01385000  0.09265000  1.0 2.0405503433
Zr  Zr24  1  0.51192000  0.98615000  0.59265000  1.0 2.0405503433
Fe  Fe1  1  0.69656000  0.51619000  0.30068000  1.0 0.1564518395
Fe  Fe2  1  0.30068000  0.69656000  0.51619000  1.0 0.1539160963
Fe  Fe3  1  0.51619000  0.30068000  0.69656000  1.0 0.1564518395
Fe  Fe4  1  0.98381000  0.69932000  0.19656000  1.0 0.1564518395
Fe  Fe5  1  0.80068000  0.80344000  0.48381000  1.0 0.1564518395
Fe  Fe6  1  0.48381000  0.80068000  0.80344000  1.0 0.1564518395
Fe  Fe7  1  0.19932000  0.30344000  0.01619000  1.0 0.1539160963
Fe  Fe8  1  0.69932000  0.19656000  0.98381000  1.0 0.1564518395
Fe  Fe9  1  0.01619000  0.19932000  0.30344000  1.0 0.1539160963
Fe  Fe10  1  0.80344000  0.48381000  0.80068000  1.0 0.1564518395
Fe  Fe11  1  0.19656000  0.98381000  0.69932000  1.0 0.1539160963
Fe  Fe12  1  0.30344000  0.01619000  0.19932000  1.0 0.1564518395
Fe  Fe13  1  0.30344000  0.48381000  0.69932000  1.0 0.1539160963
Fe  Fe14  1  0.69932000  0.30344000  0.48381000  1.0 0.1564518395
Fe  Fe15  1  0.48381000  0.69932000  0.30344000  1.0 0.1539160963
Fe  Fe16  1  0.01619000  0.30068000  0.80344000  1.0 0.1564518395
Fe  Fe17  1  0.19932000  0.19656000  0.51619000  1.0 0.1564518395
Fe  Fe18  1  0.51619000  0.19932000  0.19656000  1.0 0.1564518395
Fe  Fe19  1  0.80068000  0.69656000  0.98381000  1.0 0.1564518395
Fe  Fe20  1  0.30068000  0.80344000  0.01619000  1.0 0.1564518395
Fe  Fe21  1  0.98381000  0.80068000  0.69656000  1.0 0.1564518395
Fe  Fe22  1  0.19656000  0.51619000  0.19932000  1.0 0.1539160963
Fe  Fe23  1  0.80344000  0.01619000  0.30068000  1.0 0.1564518395
Fe  Fe24  1  0.69656000  0.98381000  0.80068000  1.0 0.1564518395
H  H1  1  0.79700000  0.55760000  0.14550000  1.0 0.121210538
H  H2  1  0.14550000  0.79700000  0.55760000  1.0 0.121210538
H  H3  1  0.55760000  0.14550000  0.79700000  1.0 0.121210538
H  H4  1  0.94240000  0.85450000  0.29700000  1.0 0.121210538
H  H5  1  0.64550000  0.70300000  0.44240000  1.0 0.121210538
H  H6  1  0.44240000  0.64550000  0.70300000  1.0 0.121210538
H  H7  1  0.35450000  0.20300000  0.05760000  1.0 0.121210538
H  H8  1  0.85450000  0.29700000  0.94240000  1.0 0.121210538
H  H9  1  0.05760000  0.35450000  0.20300000  1.0 0.121210538
H  H10  1  0.70300000  0.44240000  0.64550000  1.0 0.121210538
H  H11  1  0.29700000  0.94240000  0.85450000  1.0 0.121210538
H  H12  1  0.20300000  0.05760000  0.35450000  1.0 0.121210538
H  H13  1  0.20300000  0.44240000  0.85450000  1.0 0.121210538
H  H14  1  0.85450000  0.20300000  0.44240000  1.0 0.121210538
H  H15  1  0.44240000  0.85450000  0.20300000  1.0 0.121210538
H  H16  1  0.05760000  0.14550000  0.70300000  1.0 0.121210538
H  H17  1  0.35450000  0.29700000  0.55760000  1.0 0.121210538
H  H18  1  0.55760000  0.35450000  0.29700000  1.0 0.121210538
H  H19  1  0.64550000  0.79700000  0.94240000  1.0 0.121210538
H  H20  1  0.14550000  0.70300000  0.05760000  1.0 0.121210538
H  H21  1  0.94240000  0.64550000  0.79700000  1.0 0.121210538
H  H22  1  0.29700000  0.55760000  0.35450000  1.0 0.121210538
H  H23  1  0.70300000  0.05760000  0.14550000  1.0 0.121210538
H  H24  1  0.79700000  0.94240000  0.64550000  1.0 0.121210538
H  H25  1  0.73240000  0.55130000  0.08480000  1.0 0.121210538
H  H26  1  0.08480000  0.73240000  0.55130000  1.0 0.121210538
H  H27  1  0.55130000  0.08480000  0.73240000  1.0 0.121210538
H  H28  1  0.94870000  0.91520000  0.23240000  1.0 0.121210538
H  H29  1  0.58480000  0.76760000  0.44870000  1.0 0.121210538
H  H30  1  0.44870000  0.58480000  0.76760000  1.0 0.121210538
H  H31  1  0.41520000  0.26760000  0.05130000  1.0 0.121210538
H  H32  1  0.91520000  0.23240000  0.94870000  1.0 0.121210538
H  H33  1  0.05130000  0.41520000  0.26760000  1.0 0.121210538
H  H34  1  0.76760000  0.44870000  0.58480000  1.0 0.121210538
H  H35  1  0.23240000  0.94870000  0.91520000  1.0 0.121210538
H  H36  1  0.26760000  0.05130000  0.41520000  1.0 0.121210538
H  H37  1  0.26760000  0.44870000  0.91520000  1.0 0.121210538
H  H38  1  0.91520000  0.26760000  0.44870000  1.0 0.121210538
H  H39  1  0.44870000  0.91520000  0.26760000  1.0 0.121210538
H  H40  1  0.05130000  0.08480000  0.76760000  1.0 0.121210538
H  H41  1  0.41520000  0.23240000  0.55130000  1.0 0.121210538
H  H42  1  0.55130000  0.41520000  0.23240000  1.0 0.121210538
H  H43  1  0.58480000  0.73240000  0.94870000  1.0 0.121210538
H  H44  1  0.08480000  0.76760000  0.05130000  1.0 0.121210538
H  H45  1  0.94870000  0.58480000  0.73240000  1.0 0.121210538
H  H46  1  0.23240000  0.55130000  0.41520000  1.0 0.121210538
H  H47  1  0.76760000  0.05130000  0.08480000  1.0 0.121210538
H  H48  1  0.73240000  0.94870000  0.58480000  1.0 0.121210538
H  H49  1  0.63480000  0.52950000  0.20070000  1.0 0.1036639758
H  H50  1  0.20070000  0.63480000  0.52950000  1.0 0.1036639758
H  H51  1  0.52950000  0.20070000  0.63480000  1.0 0.1036639758
H  H52  1  0.97050000  0.79930000  0.13480000  1.0 0.1036639758
H  H53  1  0.70070000  0.86520000  0.47050000  1.0 0.1036639758
H  H54  1  0.47050000  0.70070000  0.86520000  1.0 0.1036639758
H  H55  1  0.29930000  0.36520000  0.02950000  1.0 0.1036639758
H  H56  1  0.79930000  0.13480000  0.97050000  1.0 0.1036639758
H  H57  1  0.02950000  0.29930000  0.36520000  1.0 0.1036639758
H  H58  1  0.86520000  0.47050000  0.70070000  1.0 0.1036639758
H  H59  1  0.13480000  0.97050000  0.79930000  1.0 0.1036639758
H  H60  1  0.36520000  0.02950000  0.29930000  1.0 0.1036639758
H  H61  1  0.36520000  0.47050000  0.79930000  1.0 0.1036639758
H  H62  1  0.79930000  0.36520000  0.47050000  1.0 0.1036639758
H  H63  1  0.47050000  0.79930000  0.36520000  1.0 0.1036639758
H  H64  1  0.02950000  0.20070000  0.86520000  1.0 0.1036639758
H  H65  1  0.29930000  0.13480000  0.52950000  1.0 0.1036639758
H  H66  1  0.52950000  0.29930000  0.13480000  1.0 0.1036639758
H  H67  1  0.70070000  0.63480000  0.97050000  1.0 0.1036639758
H  H68  1  0.20070000  0.86520000  0.02950000  1.0 0.1036639758
H  H69  1  0.97050000  0.70070000  0.63480000  1.0 0.1036639758
H  H70  1  0.13480000  0.52950000  0.29930000  1.0 0.1036639758
H  H71  1  0.86520000  0.02950000  0.20070000  1.0 0.1036639758
H  H72  1  0.63480000  0.97050000  0.70070000  1.0 0.1036639758
H  H73  1  0.85680000  0.54680000  0.20270000  1.0 0.121210538
H  H74  1  0.20270000  0.85680000  0.54680000  1.0 0.121210538
H  H75  1  0.54680000  0.20270000  0.85680000  1.0 0.121210538
H  H76  1  0.95320000  0.79730000  0.35680000  1.0 0.121210538
H  H77  1  0.70270000  0.64320000  0.45320000  1.0 0.121210538
H  H78  1  0.45320000  0.70270000  0.64320000  1.0 0.121210538
H  H79  1  0.29730000  0.14320000  0.04680000  1.0 0.121210538
H  H80  1  0.79730000  0.35680000  0.95320000  1.0 0.121210538
H  H81  1  0.04680000  0.29730000  0.14320000  1.0 0.121210538
H  H82  1  0.64320000  0.45320000  0.70270000  1.0 0.121210538
H  H83  1  0.35680000  0.95320000  0.79730000  1.0 0.121210538
H  H84  1  0.14320000  0.04680000  0.29730000  1.0 0.121210538
H  H85  1  0.14320000  0.45320000  0.79730000  1.0 0.121210538
H  H86  1  0.79730000  0.14320000  0.45320000  1.0 0.121210538
H  H87  1  0.45320000  0.79730000  0.14320000  1.0 0.121210538
H  H88  1  0.04680000  0.20270000  0.64320000  1.0 0.121210538
H  H89  1  0.29730000  0.35680000  0.54680000  1.0 0.121210538
H  H90  1  0.54680000  0.29730000  0.35680000  1.0 0.121210538
H  H91  1  0.70270000  0.85680000  0.95320000  1.0 0.121210538
H  H92  1  0.20270000  0.64320000  0.04680000  1.0 0.121210538
H  H93  1  0.95320000  0.70270000  0.85680000  1.0 0.121210538
H  H94  1  0.35680000  0.54680000  0.29730000  1.0 0.121210538
H  H95  1  0.64320000  0.04680000  0.20270000  1.0 0.121210538
H  H96  1  0.85680000  0.95320000  0.70270000  1.0 0.121210538
H  H97  1  0.91460000  0.53620000  0.26840000  1.0 0.121210538
H  H98  1  0.26840000  0.91460000  0.53620000  1.0 0.121210538
H  H99  1  0.53620000  0.26840000  0.91460000  1.0 0.121210538
H  H100  1  0.96380000  0.73160000  0.41460000  1.0 0.121210538
H  H101  1  0.76840000  0.58540000  0.46380000  1.0 0.121210538
H  H102  1  0.46380000  0.76840000  0.58540000  1.0 0.121210538
H  H103  1  0.23160000  0.08540000  0.03620000  1.0 0.121210538
H  H104  1  0.73160000  0.41460000  0.96380000  1.0 0.121210538
H  H105  1  0.03620000  0.23160000  0.08540000  1.0 0.121210538
H  H106  1  0.58540000  0.46380000  0.76840000  1.0 0.121210538
H  H107  1  0.41460000  0.96380000  0.73160000  1.0 0.121210538
H  H108  1  0.08540000  0.03620000  0.23160000  1.0 0.121210538
H  H109  1  0.08540000  0.46380000  0.73160000  1.0 0.121210538
H  H110  1  0.73160000  0.08540000  0.46380000  1.0 0.121210538
H  H111  1  0.46380000  0.73160000  0.08540000  1.0 0.121210538
H  H112  1  0.03620000  0.26840000  0.58540000  1.0 0.121210538
H  H113  1  0.23160000  0.41460000  0.53620000  1.0 0.121210538
H  H114  1  0.53620000  0.23160000  0.41460000  1.0 0.121210538
H  H115  1  0.76840000  0.91460000  0.96380000  1.0 0.121210538
H  H116  1  0.26840000  0.58540000  0.03620000  1.0 0.121210538
H  H117  1  0.96380000  0.76840000  0.91460000  1.0 0.121210538
H  H118  1  0.41460000  0.53620000  0.23160000  1.0 0.121210538
H  H119  1  0.58540000  0.03620000  0.26840000  1.0 0.121210538
H  H120  1  0.91460000  0.96380000  0.76840000  1.0 0.121210538
H  H121  1  0.79720000  0.49980000  0.36050000  1.0 0.1036639758
H  H122  1  0.36050000  0.79720000  0.49980000  1.0 0.1036639758
H  H123  1  0.49980000  0.36050000  0.79720000  1.0 0.1036639758
H  H124  1  0.00020000  0.63950000  0.29720000  1.0 0.1036639758
H  H125  1  0.86050000  0.70280000  0.50020000  1.0 0.1036639758
H  H126  1  0.50020000  0.86050000  0.70280000  1.0 0.1036639758
H  H127  1  0.13950000  0.20280000  0.99980000  1.0 0.1036639758
H  H128  1  0.63950000  0.29720000  0.00020000  1.0 0.1036639758
H  H129  1  0.99980000  0.13950000  0.20280000  1.0 0.1036639758
H  H130  1  0.70280000  0.50020000  0.86050000  1.0 0.1036639758
H  H131  1  0.29720000  0.00020000  0.63950000  1.0 0.1036639758
H  H132  1  0.20280000  0.99980000  0.13950000  1.0 0.1036639758
H  H133  1  0.20280000  0.50020000  0.63950000  1.0 0.1036639758
H  H134  1  0.63950000  0.20280000  0.50020000  1.0 0.1036639758
H  H135  1  0.50020000  0.63950000  0.20280000  1.0 0.1036639758
H  H136  1  0.99980000  0.36050000  0.70280000  1.0 0.1036639758
H  H137  1  0.13950000  0.29720000  0.49980000  1.0 0.1036639758
H  H138  1  0.49980000  0.13950000  0.29720000  1.0 0.1036639758
H  H139  1  0.86050000  0.79720000  0.00020000  1.0 0.1036639758
H  H140  1  0.36050000  0.70280000  0.99980000  1.0 0.1036639758
H  H141  1  0.00020000  0.86050000  0.79720000  1.0 0.1036639758
H  H142  1  0.29720000  0.49980000  0.13950000  1.0 0.1036639758
H  H143  1  0.70280000  0.99980000  0.36050000  1.0 0.1036639758
H  H144  1  0.79720000  0.00020000  0.86050000  1.0 0.1036639758
C  C1  1  0.75540000  0.53660000  0.20450000  1.0 0.1564518395
C  C2  1  0.20450000  0.75540000  0.53660000  1.0 0.1564518395
C  C3  1  0.53660000  0.20450000  0.75540000  1.0 0.1564518395
C  C4  1  0.96340000  0.79550000  0.25540000  1.0 0.1564518395
C  C5  1  0.70450000  0.74460000  0.46340000  1.0 0.1564518395
C  C6  1  0.46340000  0.70450000  0.74460000  1.0 0.1564518395
C  C7  1  0.29550000  0.24460000  0.03660000  1.0 0.1564518395
C  C8  1  0.79550000  0.25540000  0.96340000  1.0 0.1564518395
C  C9  1  0.03660000  0.29550000  0.24460000  1.0 0.1564518395
C  C10  1  0.74460000  0.46340000  0.70450000  1.0 0.1564518395
C  C11  1  0.25540000  0.96340000  0.79550000  1.0 0.1564518395
C  C12  1  0.24460000  0.03660000  0.29550000  1.0 0.1564518395
C  C13  1  0.24460000  0.46340000  0.79550000  1.0 0.1564518395
C  C14  1  0.79550000  0.24460000  0.46340000  1.0 0.1564518395
C  C15  1  0.46340000  0.79550000  0.24460000  1.0 0.1564518395
C  C16  1  0.03660000  0.20450000  0.74460000  1.0 0.1564518395
C  C17  1  0.29550000  0.25540000  0.53660000  1.0 0.1564518395
C  C18  1  0.53660000  0.29550000  0.25540000  1.0 0.1564518395
C  C19  1  0.70450000  0.75540000  0.96340000  1.0 0.1564518395
C  C20  1  0.20450000  0.74460000  0.03660000  1.0 0.1564518395
C  C21  1  0.96340000  0.70450000  0.75540000  1.0 0.1564518395
C  C22  1  0.25540000  0.53660000  0.29550000  1.0 0.1564518395
C  C23  1  0.74460000  0.03660000  0.20450000  1.0 0.1564518395
C  C24  1  0.75540000  0.96340000  0.70450000  1.0 0.1564518395
C  C25  1  0.76430000  0.54830000  0.15550000  1.0 -0.1634862722
C  C26  1  0.15550000  0.76430000  0.54830000  1.0 -0.1634862722
C  C27  1  0.54830000  0.15550000  0.76430000  1.0 -0.1634862722
C  C28  1  0.95170000  0.84450000  0.26430000  1.0 -0.1634862722
C  C29  1  0.65550000  0.73570000  0.45170000  1.0 -0.1634862722
C  C30  1  0.45170000  0.65550000  0.73570000  1.0 -0.1634862722
C  C31  1  0.34450000  0.23570000  0.04830000  1.0 -0.1634862722
C  C32  1  0.84450000  0.26430000  0.95170000  1.0 -0.1634862722
C  C33  1  0.04830000  0.34450000  0.23570000  1.0 -0.1634862722
C  C34  1  0.73570000  0.45170000  0.65550000  1.0 -0.1634862722
C  C35  1  0.26430000  0.95170000  0.84450000  1.0 -0.1634862722
C  C36  1  0.23570000  0.04830000  0.34450000  1.0 -0.1634862722
C  C37  1  0.23570000  0.45170000  0.84450000  1.0 -0.1634862722
C  C38  1  0.84450000  0.23570000  0.45170000  1.0 -0.1634862722
C  C39  1  0.45170000  0.84450000  0.23570000  1.0 -0.1634862722
C  C40  1  0.04830000  0.15550000  0.73570000  1.0 -0.1634862722
C  C41  1  0.34450000  0.26430000  0.54830000  1.0 -0.1634862722
C  C42  1  0.54830000  0.34450000  0.26430000  1.0 -0.1634862722
C  C43  1  0.65550000  0.76430000  0.95170000  1.0 -0.1634862722
C  C44  1  0.15550000  0.73570000  0.04830000  1.0 -0.1634862722
C  C45  1  0.95170000  0.65550000  0.76430000  1.0 -0.1634862722
C  C46  1  0.26430000  0.54830000  0.34450000  1.0 -0.1634862722
C  C47  1  0.73570000  0.04830000  0.15550000  1.0 -0.1634862722
C  C48  1  0.76430000  0.95170000  0.65550000  1.0 -0.1634862722
C  C49  1  0.72550000  0.54660000  0.11930000  1.0 -0.0600814807
C  C50  1  0.11930000  0.72550000  0.54660000  1.0 -0.0600814807
C  C51  1  0.54660000  0.11930000  0.72550000  1.0 -0.0600814807
C  C52  1  0.95340000  0.88070000  0.22550000  1.0 -0.0600814807
C  C53  1  0.61930000  0.77450000  0.45340000  1.0 -0.0600814807
C  C54  1  0.45340000  0.61930000  0.77450000  1.0 -0.0600814807
C  C55  1  0.38070000  0.27450000  0.04660000  1.0 -0.0600814807
C  C56  1  0.88070000  0.22550000  0.95340000  1.0 -0.0600814807
C  C57  1  0.04660000  0.38070000  0.27450000  1.0 -0.0600814807
C  C58  1  0.77450000  0.45340000  0.61930000  1.0 -0.0600814807
C  C59  1  0.22550000  0.95340000  0.88070000  1.0 -0.0600814807
C  C60  1  0.27450000  0.04660000  0.38070000  1.0 -0.0600814807
C  C61  1  0.27450000  0.45340000  0.88070000  1.0 -0.0600814807
C  C62  1  0.88070000  0.27450000  0.45340000  1.0 -0.0600814807
C  C63  1  0.45340000  0.88070000  0.27450000  1.0 -0.0600814807
C  C64  1  0.04660000  0.11930000  0.77450000  1.0 -0.0600814807
C  C65  1  0.38070000  0.22550000  0.54660000  1.0 -0.0600814807
C  C66  1  0.54660000  0.38070000  0.22550000  1.0 -0.0600814807
C  C67  1  0.61930000  0.72550000  0.95340000  1.0 -0.0600814807
C  C68  1  0.11930000  0.77450000  0.04660000  1.0 -0.0600814807
C  C69  1  0.95340000  0.61930000  0.72550000  1.0 -0.0600814807
C  C70  1  0.22550000  0.54660000  0.38070000  1.0 -0.0600814807
C  C71  1  0.77450000  0.04660000  0.11930000  1.0 -0.0600814807
C  C72  1  0.72550000  0.95340000  0.61930000  1.0 -0.0600814807
C  C73  1  0.67640000  0.53780000  0.13640000  1.0 -0.0600814807
C  C74  1  0.13640000  0.67640000  0.53780000  1.0 -0.0600814807
C  C75  1  0.53780000  0.13640000  0.67640000  1.0 -0.0600814807
C  C76  1  0.96220000  0.86360000  0.17640000  1.0 -0.0600814807
C  C77  1  0.63640000  0.82360000  0.46220000  1.0 -0.0600814807
C  C78  1  0.46220000  0.63640000  0.82360000  1.0 -0.0600814807
C  C79  1  0.36360000  0.32360000  0.03780000  1.0 -0.0600814807
C  C80  1  0.86360000  0.17640000  0.96220000  1.0 -0.0600814807
C  C81  1  0.03780000  0.36360000  0.32360000  1.0 -0.0600814807
C  C82  1  0.82360000  0.46220000  0.63640000  1.0 -0.0600814807
C  C83  1  0.17640000  0.96220000  0.86360000  1.0 -0.0600814807
C  C84  1  0.32360000  0.03780000  0.36360000  1.0 -0.0600814807
C  C85  1  0.32360000  0.46220000  0.86360000  1.0 -0.0600814807
C  C86  1  0.86360000  0.32360000  0.46220000  1.0 -0.0600814807
C  C87  1  0.46220000  0.86360000  0.32360000  1.0 -0.0600814807
C  C88  1  0.03780000  0.13640000  0.82360000  1.0 -0.0600814807
C  C89  1  0.36360000  0.17640000  0.53780000  1.0 -0.0600814807
C  C90  1  0.53780000  0.36360000  0.17640000  1.0 -0.0600814807
C  C91  1  0.63640000  0.67640000  0.96220000  1.0 -0.0600814807
C  C92  1  0.13640000  0.82360000  0.03780000  1.0 -0.0600814807
C  C93  1  0.96220000  0.63640000  0.67640000  1.0 -0.0600814807
C  C94  1  0.17640000  0.53780000  0.36360000  1.0 -0.0600814807
C  C95  1  0.82360000  0.03780000  0.13640000  1.0 -0.0600814807
C  C96  1  0.67640000  0.96220000  0.63640000  1.0 -0.0600814807
C  C97  1  0.66810000  0.53160000  0.18870000  1.0 0.0695924881
C  C98  1  0.18870000  0.66810000  0.53160000  1.0 0.0695924881
C  C99  1  0.53160000  0.18870000  0.66810000  1.0 0.0695924881
C  C100  1  0.96840000  0.81130000  0.16810000  1.0 0.0695924881
C  C101  1  0.68870000  0.83190000  0.46840000  1.0 0.0695924881
C  C102  1  0.46840000  0.68870000  0.83190000  1.0 0.0695924881
C  C103  1  0.31130000  0.33190000  0.03160000  1.0 0.0695924881
C  C104  1  0.81130000  0.16810000  0.96840000  1.0 0.0695924881
C  C105  1  0.03160000  0.31130000  0.33190000  1.0 0.0695924881
C  C106  1  0.83190000  0.46840000  0.68870000  1.0 0.0695924881
C  C107  1  0.16810000  0.96840000  0.81130000  1.0 0.0695924881
C  C108  1  0.33190000  0.03160000  0.31130000  1.0 0.0695924881
C  C109  1  0.33190000  0.46840000  0.81130000  1.0 0.0695924881
C  C110  1  0.81130000  0.33190000  0.46840000  1.0 0.0695924881
C  C111  1  0.46840000  0.81130000  0.33190000  1.0 0.0695924881
C  C112  1  0.03160000  0.18870000  0.83190000  1.0 0.0695924881
C  C113  1  0.31130000  0.16810000  0.53160000  1.0 0.0695924881
C  C114  1  0.53160000  0.31130000  0.16810000  1.0 0.0695924881
C  C115  1  0.68870000  0.66810000  0.96840000  1.0 0.0695924881
C  C116  1  0.18870000  0.83190000  0.03160000  1.0 0.0695924881
C  C117  1  0.96840000  0.68870000  0.66810000  1.0 0.0695924881
C  C118  1  0.16810000  0.53160000  0.31130000  1.0 0.0695924881
C  C119  1  0.83190000  0.03160000  0.18870000  1.0 0.0695924881
C  C120  1  0.66810000  0.96840000  0.68870000  1.0 0.0695924881
C  C121  1  0.79430000  0.53240000  0.24530000  1.0 0.1923169951
C  C122  1  0.24530000  0.79430000  0.53240000  1.0 0.1923169951
C  C123  1  0.53240000  0.24530000  0.79430000  1.0 0.1923169951
C  C124  1  0.96760000  0.75470000  0.29430000  1.0 0.1923169951
C  C125  1  0.74530000  0.70570000  0.46760000  1.0 0.1923169951
C  C126  1  0.46760000  0.74530000  0.70570000  1.0 0.1923169951
C  C127  1  0.25470000  0.20570000  0.03240000  1.0 0.1923169951
C  C128  1  0.75470000  0.29430000  0.96760000  1.0 0.1923169951
C  C129  1  0.03240000  0.25470000  0.20570000  1.0 0.1923169951
C  C130  1  0.70570000  0.46760000  0.74530000  1.0 0.1923169951
C  C131  1  0.29430000  0.96760000  0.75470000  1.0 0.1923169951
C  C132  1  0.20570000  0.03240000  0.25470000  1.0 0.1923169951
C  C133  1  0.20570000  0.46760000  0.75470000  1.0 0.1923169951
C  C134  1  0.75470000  0.20570000  0.46760000  1.0 0.1923169951
C  C135  1  0.46760000  0.75470000  0.20570000  1.0 0.1923169951
C  C136  1  0.03240000  0.24530000  0.70570000  1.0 0.1923169951
C  C137  1  0.25470000  0.29430000  0.53240000  1.0 0.1923169951
C  C138  1  0.53240000  0.25470000  0.29430000  1.0 0.1923169951
C  C139  1  0.74530000  0.79430000  0.96760000  1.0 0.1923169951
C  C140  1  0.24530000  0.70570000  0.03240000  1.0 0.1923169951
C  C141  1  0.96760000  0.74530000  0.79430000  1.0 0.1923169951
C  C142  1  0.29430000  0.53240000  0.25470000  1.0 0.1923169951
C  C143  1  0.70570000  0.03240000  0.24530000  1.0 0.1923169951
C  C144  1  0.79430000  0.96760000  0.74530000  1.0 0.1923169951
C  C145  1  0.84570000  0.53820000  0.23520000  1.0 -0.1894662101
C  C146  1  0.23520000  0.84570000  0.53820000  1.0 -0.1894662101
C  C147  1  0.53820000  0.23520000  0.84570000  1.0 -0.1894662101
C  C148  1  0.96180000  0.76480000  0.34570000  1.0 -0.1894662101
C  C149  1  0.73520000  0.65430000  0.46180000  1.0 -0.1894662101
C  C150  1  0.46180000  0.73520000  0.65430000  1.0 -0.1894662101
C  C151  1  0.26480000  0.15430000  0.03820000  1.0 -0.1894662101
C  C152  1  0.76480000  0.34570000  0.96180000  1.0 -0.1894662101
C  C153  1  0.03820000  0.26480000  0.15430000  1.0 -0.1894662101
C  C154  1  0.65430000  0.46180000  0.73520000  1.0 -0.1894662101
C  C155  1  0.34570000  0.96180000  0.76480000  1.0 -0.1894662101
C  C156  1  0.15430000  0.03820000  0.26480000  1.0 -0.1894662101
C  C157  1  0.15430000  0.46180000  0.76480000  1.0 -0.1894662101
C  C158  1  0.76480000  0.15430000  0.46180000  1.0 -0.1894662101
C  C159  1  0.46180000  0.76480000  0.15430000  1.0 -0.1894662101
C  C160  1  0.03820000  0.23520000  0.65430000  1.0 -0.1894662101
C  C161  1  0.26480000  0.34570000  0.53820000  1.0 -0.1894662101
C  C162  1  0.53820000  0.26480000  0.34570000  1.0 -0.1894662101
C  C163  1  0.73520000  0.84570000  0.96180000  1.0 -0.1894662101
C  C164  1  0.23520000  0.65430000  0.03820000  1.0 -0.1894662101
C  C165  1  0.96180000  0.73520000  0.84570000  1.0 -0.1894662101
C  C166  1  0.34570000  0.53820000  0.26480000  1.0 -0.1894662101
C  C167  1  0.65430000  0.03820000  0.23520000  1.0 -0.1894662101
C  C168  1  0.84570000  0.96180000  0.73520000  1.0 -0.1894662101
C  C169  1  0.88000000  0.53100000  0.27380000  1.0 -0.0439390946
C  C170  1  0.27380000  0.88000000  0.53100000  1.0 -0.0439390946
C  C171  1  0.53100000  0.27380000  0.88000000  1.0 -0.0439390946
C  C172  1  0.96900000  0.72620000  0.38000000  1.0 -0.0439390946
C  C173  1  0.77380000  0.62000000  0.46900000  1.0 -0.0439390946
C  C174  1  0.46900000  0.77380000  0.62000000  1.0 -0.0439390946
C  C175  1  0.22620000  0.12000000  0.03100000  1.0 -0.0439390946
C  C176  1  0.72620000  0.38000000  0.96900000  1.0 -0.0439390946
C  C177  1  0.03100000  0.22620000  0.12000000  1.0 -0.0439390946
C  C178  1  0.62000000  0.46900000  0.77380000  1.0 -0.0439390946
C  C179  1  0.38000000  0.96900000  0.72620000  1.0 -0.0439390946
C  C180  1  0.12000000  0.03100000  0.22620000  1.0 -0.0439390946
C  C181  1  0.12000000  0.46900000  0.72620000  1.0 -0.0462911975
C  C182  1  0.72620000  0.12000000  0.46900000  1.0 -0.0462911975
C  C183  1  0.46900000  0.72620000  0.12000000  1.0 -0.0462911975
C  C184  1  0.03100000  0.27380000  0.62000000  1.0 -0.0439390946
C  C185  1  0.22620000  0.38000000  0.53100000  1.0 -0.0439390946
C  C186  1  0.53100000  0.22620000  0.38000000  1.0 -0.0439390946
C  C187  1  0.77380000  0.88000000  0.96900000  1.0 -0.0439390946
C  C188  1  0.27380000  0.62000000  0.03100000  1.0 -0.0439390946
C  C189  1  0.96900000  0.77380000  0.88000000  1.0 -0.0439390946
C  C190  1  0.38000000  0.53100000  0.22620000  1.0 -0.0439390946
C  C191  1  0.62000000  0.03100000  0.27380000  1.0 -0.0439390946
C  C192  1  0.88000000  0.96900000  0.77380000  1.0 -0.0439390946
C  C193  1  0.86210000  0.51570000  0.32160000  1.0 -0.0600814807
C  C194  1  0.32160000  0.86210000  0.51570000  1.0 -0.0600814807
C  C195  1  0.51570000  0.32160000  0.86210000  1.0 -0.0600814807
C  C196  1  0.98430000  0.67840000  0.36210000  1.0 -0.0600814807
C  C197  1  0.82160000  0.63790000  0.48430000  1.0 -0.0600814807
C  C198  1  0.48430000  0.82160000  0.63790000  1.0 -0.0600814807
C  C199  1  0.17840000  0.13790000  0.01570000  1.0 -0.0600814807
C  C200  1  0.67840000  0.36210000  0.98430000  1.0 -0.0600814807
C  C201  1  0.01570000  0.17840000  0.13790000  1.0 -0.0600814807
C  C202  1  0.63790000  0.48430000  0.82160000  1.0 -0.0600814807
C  C203  1  0.36210000  0.98430000  0.67840000  1.0 -0.0600814807
C  C204  1  0.13790000  0.01570000  0.17840000  1.0 -0.0600814807
C  C205  1  0.13790000  0.48430000  0.67840000  1.0 -0.0600814807
C  C206  1  0.67840000  0.13790000  0.48430000  1.0 -0.0600814807
C  C207  1  0.48430000  0.67840000  0.13790000  1.0 -0.0600814807
C  C208  1  0.01570000  0.32160000  0.63790000  1.0 -0.0600814807
C  C209  1  0.17840000  0.36210000  0.51570000  1.0 -0.0600814807
C  C210  1  0.51570000  0.17840000  0.36210000  1.0 -0.0600814807
C  C211  1  0.82160000  0.86210000  0.98430000  1.0 -0.0600814807
C  C212  1  0.32160000  0.63790000  0.01570000  1.0 -0.0600814807
C  C213  1  0.98430000  0.82160000  0.86210000  1.0 -0.0600814807
C  C214  1  0.36210000  0.51570000  0.17840000  1.0 -0.0600814807
C  C215  1  0.63790000  0.01570000  0.32160000  1.0 -0.0600814807
C  C216  1  0.86210000  0.98430000  0.82160000  1.0 -0.0600814807
C  C217  1  0.81000000  0.50990000  0.32900000  1.0 0.0695924881
C  C218  1  0.32900000  0.81000000  0.50990000  1.0 0.0695924881
C  C219  1  0.50990000  0.32900000  0.81000000  1.0 0.0695924881
C  C220  1  0.99010000  0.67100000  0.31000000  1.0 0.0695924881
C  C221  1  0.82900000  0.69000000  0.49010000  1.0 0.0695924881
C  C222  1  0.49010000  0.82900000  0.69000000  1.0 0.0695924881
C  C223  1  0.17100000  0.19000000  0.00990000  1.0 0.0695924881
C  C224  1  0.67100000  0.31000000  0.99010000  1.0 0.0695924881
C  C225  1  0.00990000  0.17100000  0.19000000  1.0 0.0695924881
C  C226  1  0.69000000  0.49010000  0.82900000  1.0 0.0695924881
C  C227  1  0.31000000  0.99010000  0.67100000  1.0 0.0695924881
C  C228  1  0.19000000  0.00990000  0.17100000  1.0 0.0695924881
C  C229  1  0.19000000  0.49010000  0.67100000  1.0 0.0695924881
C  C230  1  0.67100000  0.19000000  0.49010000  1.0 0.0695924881
C  C231  1  0.49010000  0.67100000  0.19000000  1.0 0.0695924881
C  C232  1  0.00990000  0.32900000  0.69000000  1.0 0.0695924881
C  C233  1  0.17100000  0.31000000  0.50990000  1.0 0.0695924881
C  C234  1  0.50990000  0.17100000  0.31000000  1.0 0.0695924881
C  C235  1  0.82900000  0.81000000  0.99010000  1.0 0.0695924881
C  C236  1  0.32900000  0.69000000  0.00990000  1.0 0.0695924881
C  C237  1  0.99010000  0.82900000  0.81000000  1.0 0.0695924881
C  C238  1  0.31000000  0.50990000  0.17100000  1.0 0.0695924881
C  C239  1  0.69000000  0.00990000  0.32900000  1.0 0.0695924881
C  C240  1  0.81000000  0.99010000  0.82900000  1.0 0.0695924881
C  C241  1  0.63320000  0.53120000  0.10020000  1.0 0.6305549838
C  C242  1  0.10020000  0.63320000  0.53120000  1.0 0.6305549838
C  C243  1  0.53120000  0.10020000  0.63320000  1.0 0.6305549838
C  C244  1  0.96880000  0.89980000  0.13320000  1.0 0.6305549838
C  C245  1  0.60020000  0.86680000  0.46880000  1.0 0.6305549838
C  C246  1  0.46880000  0.60020000  0.86680000  1.0 0.6305549838
C  C247  1  0.39980000  0.36680000  0.03120000  1.0 0.6305549838
C  C248  1  0.89980000  0.13320000  0.96880000  1.0 0.6305549838
C  C249  1  0.03120000  0.39980000  0.36680000  1.0 0.6305549838
C  C250  1  0.86680000  0.46880000  0.60020000  1.0 0.6305549838
C  C251  1  0.13320000  0.96880000  0.89980000  1.0 0.6305549838
C  C252  1  0.36680000  0.03120000  0.39980000  1.0 0.6305549838
C  C253  1  0.36680000  0.46880000  0.89980000  1.0 0.6305549838
C  C254  1  0.89980000  0.36680000  0.46880000  1.0 0.6305549838
C  C255  1  0.46880000  0.89980000  0.36680000  1.0 0.6305549838
C  C256  1  0.03120000  0.10020000  0.86680000  1.0 0.6305549838
C  C257  1  0.39980000  0.13320000  0.53120000  1.0 0.6305549838
C  C258  1  0.53120000  0.39980000  0.13320000  1.0 0.6305549838
C  C259  1  0.60020000  0.63320000  0.96880000  1.0 0.6305549838
C  C260  1  0.10020000  0.86680000  0.03120000  1.0 0.6305549838
C  C261  1  0.96880000  0.60020000  0.63320000  1.0 0.6305549838
C  C262  1  0.13320000  0.53120000  0.39980000  1.0 0.6305549838
C  C263  1  0.86680000  0.03120000  0.10020000  1.0 0.6305549838
C  C264  1  0.63320000  0.96880000  0.60020000  1.0 0.6305549838
C  C265  1  0.89780000  0.50630000  0.36520000  1.0 0.6305549838
C  C266  1  0.36520000  0.89780000  0.50630000  1.0 0.6305549838
C  C267  1  0.50630000  0.36520000  0.89780000  1.0 0.6305549838
C  C268  1  0.99370000  0.63480000  0.39780000  1.0 0.6305549838
C  C269  1  0.86520000  0.60220000  0.49370000  1.0 0.6305549838
C  C270  1  0.49370000  0.86520000  0.60220000  1.0 0.6305549838
C  C271  1  0.13480000  0.10220000  0.00630000  1.0 0.6305549838
C  C272  1  0.63480000  0.39780000  0.99370000  1.0 0.6305549838
C  C273  1  0.00630000  0.13480000  0.10220000  1.0 0.6305549838
C  C274  1  0.60220000  0.49370000  0.86520000  1.0 0.6305549838
C  C275  1  0.39780000  0.99370000  0.63480000  1.0 0.6305549838
C  C276  1  0.10220000  0.00630000  0.13480000  1.0 0.6305549838
C  C277  1  0.10220000  0.49370000  0.63480000  1.0 0.6305549838
C  C278  1  0.63480000  0.10220000  0.49370000  1.0 0.6305549838
C  C279  1  0.49370000  0.63480000  0.10220000  1.0 0.6305549838
C  C280  1  0.00630000  0.36520000  0.60220000  1.0 0.6305549838
C  C281  1  0.13480000  0.39780000  0.50630000  1.0 0.6305549838
C  C282  1  0.50630000  0.13480000  0.39780000  1.0 0.6305549838
C  C283  1  0.86520000  0.89780000  0.99370000  1.0 0.6305549838
C  C284  1  0.36520000  0.60220000  0.00630000  1.0 0.6305549838
C  C285  1  0.99370000  0.86520000  0.89780000  1.0 0.6305549838
C  C286  1  0.39780000  0.50630000  0.13480000  1.0 0.6305549838
C  C287  1  0.60220000  0.00630000  0.36520000  1.0 0.6305549838
C  C288  1  0.89780000  0.99370000  0.86520000  1.0 0.6305549838
Br  Br1  1  0.66010000  0.43420000  0.30270000  1.0 -0.0903121363
Br  Br2  1  0.30270000  0.66010000  0.43420000  1.0 -0.0903121363
Br  Br3  1  0.43420000  0.30270000  0.66010000  1.0 -0.0903121363
Br  Br4  1  0.06580000  0.69730000  0.16010000  1.0 -0.0903121363
Br  Br5  1  0.80270000  0.83990000  0.56580000  1.0 -0.0903121363
Br  Br6  1  0.56580000  0.80270000  0.83990000  1.0 -0.0903121363
Br  Br7  1  0.19730000  0.33990000  0.93420000  1.0 -0.0903121363
Br  Br8  1  0.69730000  0.16010000  0.06580000  1.0 -0.0903121363
Br  Br9  1  0.93420000  0.19730000  0.33990000  1.0 -0.0903121363
Br  Br10  1  0.83990000  0.56580000  0.80270000  1.0 -0.0903121363
Br  Br11  1  0.16010000  0.06580000  0.69730000  1.0 -0.0903121363
Br  Br12  1  0.33990000  0.93420000  0.19730000  1.0 -0.0903121363
Br  Br13  1  0.33990000  0.56580000  0.69730000  1.0 -0.0903121363
Br  Br14  1  0.69730000  0.33990000  0.56580000  1.0 -0.0903121363
Br  Br15  1  0.56580000  0.69730000  0.33990000  1.0 -0.0903121363
Br  Br16  1  0.93420000  0.30270000  0.83990000  1.0 -0.0903121363
Br  Br17  1  0.19730000  0.16010000  0.43420000  1.0 -0.0903121363
Br  Br18  1  0.43420000  0.19730000  0.16010000  1.0 -0.0903121363
Br  Br19  1  0.80270000  0.66010000  0.06580000  1.0 -0.0903121363
Br  Br20  1  0.30270000  0.83990000  0.93420000  1.0 -0.0903121363
Br  Br21  1  0.06580000  0.80270000  0.66010000  1.0 -0.0903121363
Br  Br22  1  0.16010000  0.43420000  0.19730000  1.0 -0.0903121363
Br  Br23  1  0.83990000  0.93420000  0.30270000  1.0 -0.0903121363
Br  Br24  1  0.66010000  0.06580000  0.80270000  1.0 -0.0903121363
Br  Br25  1  0.68430000  0.59360000  0.34610000  1.0 -0.0903121363
Br  Br26  1  0.34610000  0.68430000  0.59360000  1.0 -0.0903121363
Br  Br27  1  0.59360000  0.34610000  0.68430000  1.0 -0.0903121363
Br  Br28  1  0.90640000  0.65390000  0.18430000  1.0 -0.0903121363
Br  Br29  1  0.84610000  0.81570000  0.40640000  1.0 -0.0903121363
Br  Br30  1  0.40640000  0.84610000  0.81570000  1.0 -0.0903121363
Br  Br31  1  0.15390000  0.31570000  0.09360000  1.0 -0.0903121363
Br  Br32  1  0.65390000  0.18430000  0.90640000  1.0 -0.0903121363
Br  Br33  1  0.09360000  0.15390000  0.31570000  1.0 -0.0903121363
Br  Br34  1  0.81570000  0.40640000  0.84610000  1.0 -0.0903121363
Br  Br35  1  0.18430000  0.90640000  0.65390000  1.0 -0.0903121363
Br  Br36  1  0.31570000  0.09360000  0.15390000  1.0 -0.0903121363
Br  Br37  1  0.31570000  0.40640000  0.65390000  1.0 -0.0903121363
Br  Br38  1  0.65390000  0.31570000  0.40640000  1.0 -0.0903121363
Br  Br39  1  0.40640000  0.65390000  0.31570000  1.0 -0.0903121363
Br  Br40  1  0.09360000  0.34610000  0.81570000  1.0 -0.0903121363
Br  Br41  1  0.15390000  0.18430000  0.59360000  1.0 -0.0903121363
Br  Br42  1  0.59360000  0.15390000  0.18430000  1.0 -0.0903121363
Br  Br43  1  0.84610000  0.68430000  0.90640000  1.0 -0.0903121363
Br  Br44  1  0.34610000  0.81570000  0.09360000  1.0 -0.0903121363
Br  Br45  1  0.90640000  0.84610000  0.68430000  1.0 -0.0903121363
Br  Br46  1  0.18430000  0.59360000  0.15390000  1.0 -0.0903121363
Br  Br47  1  0.81570000  0.09360000  0.34610000  1.0 -0.0903121363
Br  Br48  1  0.68430000  0.90640000  0.84610000  1.0 -0.0903121363
Br  Br49  1  0.60610000  0.49080000  0.29840000  1.0 -0.0903121363
Br  Br50  1  0.29840000  0.60610000  0.49080000  1.0 -0.0903121363
Br  Br51  1  0.49080000  0.29840000  0.60610000  1.0 -0.0903121363
Br  Br52  1  0.00920000  0.70160000  0.10610000  1.0 -0.0903121363
Br  Br53  1  0.79840000  0.89390000  0.50920000  1.0 -0.0903121363
Br  Br54  1  0.50920000  0.79840000  0.89390000  1.0 -0.0903121363
Br  Br55  1  0.20160000  0.39390000  0.99080000  1.0 -0.0903121363
Br  Br56  1  0.70160000  0.10610000  0.00920000  1.0 -0.0903121363
Br  Br57  1  0.99080000  0.20160000  0.39390000  1.0 -0.0903121363
Br  Br58  1  0.89390000  0.50920000  0.79840000  1.0 -0.0903121363
Br  Br59  1  0.10610000  0.00920000  0.70160000  1.0 -0.0903121363
Br  Br60  1  0.39390000  0.99080000  0.20160000  1.0 -0.0903121363
Br  Br61  1  0.39390000  0.50920000  0.70160000  1.0 -0.0903121363
Br  Br62  1  0.70160000  0.39390000  0.50920000  1.0 -0.0903121363
Br  Br63  1  0.50920000  0.70160000  0.39390000  1.0 -0.0903121363
Br  Br64  1  0.99080000  0.29840000  0.89390000  1.0 -0.0903121363
Br  Br65  1  0.20160000  0.10610000  0.49080000  1.0 -0.0903121363
Br  Br66  1  0.49080000  0.20160000  0.10610000  1.0 -0.0903121363
Br  Br67  1  0.79840000  0.60610000  0.00920000  1.0 -0.0903121363
Br  Br68  1  0.29840000  0.89390000  0.99080000  1.0 -0.0903121363
Br  Br69  1  0.00920000  0.79840000  0.60610000  1.0 -0.0903121363
Br  Br70  1  0.10610000  0.49080000  0.20160000  1.0 -0.0903121363
Br  Br71  1  0.89390000  0.99080000  0.29840000  1.0 -0.0903121363
Br  Br72  1  0.60610000  0.00920000  0.79840000  1.0 -0.0903121363
Br  Br73  1  0.69370000  0.53440000  0.39410000  1.0 -0.1029810814
Br  Br74  1  0.39410000  0.69370000  0.53440000  1.0 -0.1029810814
Br  Br75  1  0.53440000  0.39410000  0.69370000  1.0 -0.1029810814
Br  Br76  1  0.96560000  0.60590000  0.19370000  1.0 -0.1029810814
Br  Br77  1  0.89410000  0.80630000  0.46560000  1.0 -0.1029810814
Br  Br78  1  0.46560000  0.89410000  0.80630000  1.0 -0.1029810814
Br  Br79  1  0.10590000  0.30630000  0.03440000  1.0 -0.1029810814
Br  Br80  1  0.60590000  0.19370000  0.96560000  1.0 -0.1029810814
Br  Br81  1  0.03440000  0.10590000  0.30630000  1.0 -0.1029810814
Br  Br82  1  0.80630000  0.46560000  0.89410000  1.0 -0.1029810814
Br  Br83  1  0.19370000  0.96560000  0.60590000  1.0 -0.1029810814
Br  Br84  1  0.30630000  0.03440000  0.10590000  1.0 -0.1029810814
Br  Br85  1  0.30630000  0.46560000  0.60590000  1.0 -0.1029810814
Br  Br86  1  0.60590000  0.30630000  0.46560000  1.0 -0.1029810814
Br  Br87  1  0.46560000  0.60590000  0.30630000  1.0 -0.1029810814
Br  Br88  1  0.03440000  0.39410000  0.80630000  1.0 -0.1029810814
Br  Br89  1  0.10590000  0.19370000  0.53440000  1.0 -0.1029810814
Br  Br90  1  0.53440000  0.10590000  0.19370000  1.0 -0.1029810814
Br  Br91  1  0.89410000  0.69370000  0.96560000  1.0 -0.1029810814
Br  Br92  1  0.39410000  0.80630000  0.03440000  1.0 -0.1029810814
Br  Br93  1  0.96560000  0.89410000  0.69370000  1.0 -0.1029810814
Br  Br94  1  0.19370000  0.53440000  0.10590000  1.0 -0.1029810814
Br  Br95  1  0.80630000  0.03440000  0.39410000  1.0 -0.1029810814
Br  Br96  1  0.69370000  0.96560000  0.89410000  1.0 -0.1029810814
N  N1  1  0.70710000  0.52850000  0.22220000  1.0 -0.1894662101
N  N2  1  0.22220000  0.70710000  0.52850000  1.0 -0.1894662101
N  N3  1  0.52850000  0.22220000  0.70710000  1.0 -0.1894662101
N  N4  1  0.97150000  0.77780000  0.20710000  1.0 -0.1894662101
N  N5  1  0.72220000  0.79290000  0.47150000  1.0 -0.1894662101
N  N6  1  0.47150000  0.72220000  0.79290000  1.0 -0.1894662101
N  N7  1  0.27780000  0.29290000  0.02850000  1.0 -0.1894662101
N  N8  1  0.77780000  0.20710000  0.97150000  1.0 -0.1894662101
N  N9  1  0.02850000  0.27780000  0.29290000  1.0 -0.1894662101
N  N10  1  0.79290000  0.47150000  0.72220000  1.0 -0.1894662101
N  N11  1  0.20710000  0.97150000  0.77780000  1.0 -0.1894662101
N  N12  1  0.29290000  0.02850000  0.27780000  1.0 -0.1894662101
N  N13  1  0.29290000  0.47150000  0.77780000  1.0 -0.1894662101
N  N14  1  0.77780000  0.29290000  0.47150000  1.0 -0.1894662101
N  N15  1  0.47150000  0.77780000  0.29290000  1.0 -0.1894662101
N  N16  1  0.02850000  0.22220000  0.79290000  1.0 -0.1894662101
N  N17  1  0.27780000  0.20710000  0.52850000  1.0 -0.1894662101
N  N18  1  0.52850000  0.27780000  0.20710000  1.0 -0.1894662101
N  N19  1  0.72220000  0.70710000  0.97150000  1.0 -0.1894662101
N  N20  1  0.22220000  0.79290000  0.02850000  1.0 -0.1894662101
N  N21  1  0.97150000  0.72220000  0.70710000  1.0 -0.1894662101
N  N22  1  0.20710000  0.52850000  0.27780000  1.0 -0.1894662101
N  N23  1  0.79290000  0.02850000  0.22220000  1.0 -0.1894662101
N  N24  1  0.70710000  0.97150000  0.72220000  1.0 -0.1894662101
N  N25  1  0.77860000  0.51910000  0.29030000  1.0 -0.1965294716
N  N26  1  0.29030000  0.77860000  0.51910000  1.0 -0.1965294716
N  N27  1  0.51910000  0.29030000  0.77860000  1.0 -0.1965294716
N  N28  1  0.98090000  0.70970000  0.27860000  1.0 -0.1965294716
N  N29  1  0.79030000  0.72140000  0.48090000  1.0 -0.1965294716
N  N30  1  0.48090000  0.79030000  0.72140000  1.0 -0.1965294716
N  N31  1  0.20970000  0.22140000  0.01910000  1.0 -0.1965294716
N  N32  1  0.70970000  0.27860000  0.98090000  1.0 -0.1965294716
N  N33  1  0.01910000  0.20970000  0.22140000  1.0 -0.1965294716
N  N34  1  0.72140000  0.48090000  0.79030000  1.0 -0.1965294716
N  N35  1  0.27860000  0.98090000  0.70970000  1.0 -0.1965294716
N  N36  1  0.22140000  0.01910000  0.20970000  1.0 -0.1965294716
N  N37  1  0.22140000  0.48090000  0.70970000  1.0 -0.1894662101
N  N38  1  0.70970000  0.22140000  0.48090000  1.0 -0.1894662101
N  N39  1  0.48090000  0.70970000  0.22140000  1.0 -0.1894662101
N  N40  1  0.01910000  0.29030000  0.72140000  1.0 -0.1965294716
N  N41  1  0.20970000  0.27860000  0.51910000  1.0 -0.1965294716
N  N42  1  0.51910000  0.20970000  0.27860000  1.0 -0.1965294716
N  N43  1  0.79030000  0.77860000  0.98090000  1.0 -0.1965294716
N  N44  1  0.29030000  0.72140000  0.01910000  1.0 -0.1965294716
N  N45  1  0.98090000  0.79030000  0.77860000  1.0 -0.1965294716
N  N46  1  0.27860000  0.51910000  0.20970000  1.0 -0.1965294716
N  N47  1  0.72140000  0.01910000  0.29030000  1.0 -0.1965294716
N  N48  1  0.77860000  0.98090000  0.79030000  1.0 -0.1965294716
O  O1  1  0.55110000  0.56770000  0.03760000  1.0 -0.2642873592
O  O2  1  0.03760000  0.55110000  0.56770000  1.0 -0.2642873592
O  O3  1  0.56770000  0.03760000  0.55110000  1.0 -0.2642873592
O  O4  1  0.93230000  0.96240000  0.05110000  1.0 -0.2642873592
O  O5  1  0.53760000  0.94890000  0.43230000  1.0 -0.2642873592
O  O6  1  0.43230000  0.53760000  0.94890000  1.0 -0.2642873592
O  O7  1  0.46240000  0.44890000  0.06770000  1.0 -0.2642873592
O  O8  1  0.96240000  0.05110000  0.93230000  1.0 -0.2642873592
O  O9  1  0.06770000  0.46240000  0.44890000  1.0 -0.2642873592
O  O10  1  0.94890000  0.43230000  0.53760000  1.0 -0.2642873592
O  O11  1  0.05110000  0.93230000  0.96240000  1.0 -0.2658820949
O  O12  1  0.44890000  0.06770000  0.46240000  1.0 -0.2642873592
O  O13  1  0.44890000  0.43230000  0.96240000  1.0 -0.2642873592
O  O14  1  0.96240000  0.44890000  0.43230000  1.0 -0.2658820949
O  O15  1  0.43230000  0.96240000  0.44890000  1.0 -0.2642873592
O  O16  1  0.06770000  0.03760000  0.94890000  1.0 -0.2658820949
O  O17  1  0.46240000  0.05110000  0.56770000  1.0 -0.2642873592
O  O18  1  0.56770000  0.46240000  0.05110000  1.0 -0.2642873592
O  O19  1  0.53760000  0.55110000  0.93230000  1.0 -0.2642873592
O  O20  1  0.03760000  0.94890000  0.06770000  1.0 -0.2642873592
O  O21  1  0.93230000  0.53760000  0.55110000  1.0 -0.2642873592
O  O22  1  0.05110000  0.56770000  0.46240000  1.0 -0.2658820949
O  O23  1  0.94890000  0.06770000  0.03760000  1.0 -0.2642873592
O  O24  1  0.55110000  0.93230000  0.53760000  1.0 -0.2642873592
O  O25  1  0.44690000  0.55310000  0.05310000  1.0 -0.2829909003
O  O26  1  0.05310000  0.44690000  0.55310000  1.0 -0.2829909003
O  O27  1  0.55310000  0.05310000  0.44690000  1.0 -0.2829909003
O  O28  1  0.94690000  0.94690000  0.94690000  1.0 -0.2829909003
O  O29  1  0.55310000  0.44690000  0.94690000  1.0 -0.2829909003
O  O30  1  0.94690000  0.55310000  0.44690000  1.0 -0.2829909003
O  O31  1  0.44690000  0.94690000  0.55310000  1.0 -0.2829909003
O  O32  1  0.05310000  0.05310000  0.05310000  1.0 -0.2829909003
O  O33  1  0.58880000  0.52930000  0.12109000  1.0 -0.6315039696
O  O34  1  0.12109000  0.58880000  0.52930000  1.0 -0.6315039696
O  O35  1  0.52930000  0.12109000  0.58880000  1.0 -0.6315039696
O  O36  1  0.97070000  0.87891000  0.08880000  1.0 -0.6315039696
O  O37  1  0.62109000  0.91120000  0.47070000  1.0 -0.6315039696
O  O38  1  0.47070000  0.62109000  0.91120000  1.0 -0.6315039696
O  O39  1  0.37891000  0.41120000  0.02930000  1.0 -0.6315039696
O  O40  1  0.87891000  0.08880000  0.97070000  1.0 -0.6315039696
O  O41  1  0.02930000  0.37891000  0.41120000  1.0 -0.6315039696
O  O42  1  0.91120000  0.47070000  0.62109000  1.0 -0.6315039696
O  O43  1  0.08880000  0.97070000  0.87891000  1.0 -0.6315039696
O  O44  1  0.41120000  0.02930000  0.37891000  1.0 -0.6315039696
O  O45  1  0.41120000  0.47070000  0.87891000  1.0 -0.6315039696
O  O46  1  0.87891000  0.41120000  0.47070000  1.0 -0.6315039696
O  O47  1  0.47070000  0.87891000  0.41120000  1.0 -0.6315039696
O  O48  1  0.02930000  0.12109000  0.91120000  1.0 -0.6315039696
O  O49  1  0.37891000  0.08880000  0.52930000  1.0 -0.6315039696
O  O50  1  0.52930000  0.37891000  0.08880000  1.0 -0.6315039696
O  O51  1  0.62109000  0.58880000  0.97070000  1.0 -0.6315039696
O  O52  1  0.12109000  0.91120000  0.02930000  1.0 -0.6315039696
O  O53  1  0.97070000  0.62109000  0.58880000  1.0 -0.6315039696
O  O54  1  0.08880000  0.52930000  0.37891000  1.0 -0.6315039696
O  O55  1  0.91120000  0.02930000  0.12109000  1.0 -0.6315039696
O  O56  1  0.58880000  0.97070000  0.62109000  1.0 -0.6315039696
O  O57  1  0.64260000  0.52820000  0.05353000  1.0 -0.5991301289
O  O58  1  0.05353000  0.64260000  0.52820000  1.0 -0.5991301289
O  O59  1  0.52820000  0.05353000  0.64260000  1.0 -0.5991301289
O  O60  1  0.97180000  0.94647000  0.14260000  1.0 -0.5991301289
O  O61  1  0.55353000  0.85740000  0.47180000  1.0 -0.5991301289
O  O62  1  0.47180000  0.55353000  0.85740000  1.0 -0.5991301289
O  O63  1  0.44647000  0.35740000  0.02820000  1.0 -0.5991301289
O  O64  1  0.94647000  0.14260000  0.97180000  1.0 -0.5991301289
O  O65  1  0.02820000  0.44647000  0.35740000  1.0 -0.5991301289
O  O66  1  0.85740000  0.47180000  0.55353000  1.0 -0.5991301289
O  O67  1  0.14260000  0.97180000  0.94647000  1.0 -0.5991301289
O  O68  1  0.35740000  0.02820000  0.44647000  1.0 -0.5991301289
O  O69  1  0.35740000  0.47180000  0.94647000  1.0 -0.5991301289
O  O70  1  0.94647000  0.35740000  0.47180000  1.0 -0.5991301289
O  O71  1  0.47180000  0.94647000  0.35740000  1.0 -0.5991301289
O  O72  1  0.02820000  0.05353000  0.85740000  1.0 -0.5991301289
O  O73  1  0.44647000  0.14260000  0.52820000  1.0 -0.5991301289
O  O74  1  0.52820000  0.44647000  0.14260000  1.0 -0.5991301289
O  O75  1  0.55353000  0.64260000  0.97180000  1.0 -0.5991301289
O  O76  1  0.05353000  0.85740000  0.02820000  1.0 -0.5991301289
O  O77  1  0.97180000  0.55353000  0.64260000  1.0 -0.5991301289
O  O78  1  0.14260000  0.52820000  0.44647000  1.0 -0.5991301289
O  O79  1  0.85740000  0.02820000  0.05353000  1.0 -0.5991301289
O  O80  1  0.64260000  0.97180000  0.55353000  1.0 -0.5991301289
O  O81  1  0.87680000  0.49460000  0.40761000  1.0 -0.6315039696
O  O82  1  0.40761000  0.87680000  0.49460000  1.0 -0.6315039696
O  O83  1  0.49460000  0.40761000  0.87680000  1.0 -0.6315039696
O  O84  1  0.00540000  0.59239000  0.37680000  1.0 -0.6315039696
O  O85  1  0.90761000  0.62320000  0.50540000  1.0 -0.6315039696
O  O86  1  0.50540000  0.90761000  0.62320000  1.0 -0.6315039696
O  O87  1  0.09239000  0.12320000  0.99460000  1.0 -0.6315039696
O  O88  1  0.59239000  0.37680000  0.00540000  1.0 -0.6315039696
O  O89  1  0.99460000  0.09239000  0.12320000  1.0 -0.6315039696
O  O90  1  0.62320000  0.50540000  0.90761000  1.0 -0.6315039696
O  O91  1  0.37680000  0.00540000  0.59239000  1.0 -0.6315039696
O  O92  1  0.12320000  0.99460000  0.09239000  1.0 -0.6315039696
O  O93  1  0.12320000  0.50540000  0.59239000  1.0 -0.6315039696
O  O94  1  0.59239000  0.12320000  0.50540000  1.0 -0.6315039696
O  O95  1  0.50540000  0.59239000  0.12320000  1.0 -0.6315039696
O  O96  1  0.99460000  0.40761000  0.62320000  1.0 -0.6315039696
O  O97  1  0.09239000  0.37680000  0.49460000  1.0 -0.6315039696
O  O98  1  0.49460000  0.09239000  0.37680000  1.0 -0.6315039696
O  O99  1  0.90761000  0.87680000  0.00540000  1.0 -0.6315039696
O  O100  1  0.40761000  0.62320000  0.99460000  1.0 -0.6315039696
O  O101  1  0.00540000  0.90761000  0.87680000  1.0 -0.6315039696
O  O102  1  0.37680000  0.49460000  0.09239000  1.0 -0.6315039696
O  O103  1  0.62320000  0.99460000  0.40761000  1.0 -0.6315039696
O  O104  1  0.87680000  0.00540000  0.90761000  1.0 -0.6315039696
O  O105  1  0.94481000  0.51060000  0.35570000  1.0 -0.6156181198
O  O106  1  0.35570000  0.94481000  0.51060000  1.0 -0.6156181198
O  O107  1  0.51060000  0.35570000  0.94481000  1.0 -0.6156181198
O  O108  1  0.98940000  0.64430000  0.44481000  1.0 -0.6156181198
O  O109  1  0.85570000  0.55519000  0.48940000  1.0 -0.6156181198
O  O110  1  0.48940000  0.85570000  0.55519000  1.0 -0.6156181198
O  O111  1  0.14430000  0.05519000  0.01060000  1.0 -0.6156181198
O  O112  1  0.64430000  0.44481000  0.98940000  1.0 -0.6156181198
O  O113  1  0.01060000  0.14430000  0.05519000  1.0 -0.6156181198
O  O114  1  0.55519000  0.48940000  0.85570000  1.0 -0.6156181198
O  O115  1  0.44481000  0.98940000  0.64430000  1.0 -0.6156181198
O  O116  1  0.05519000  0.01060000  0.14430000  1.0 -0.6156181198
O  O117  1  0.05519000  0.48940000  0.64430000  1.0 -0.6156181198
O  O118  1  0.64430000  0.05519000  0.48940000  1.0 -0.6156181198
O  O119  1  0.48940000  0.64430000  0.05519000  1.0 -0.6156181198
O  O120  1  0.01060000  0.35570000  0.55519000  1.0 -0.6156181198
O  O121  1  0.14430000  0.44481000  0.51060000  1.0 -0.6156181198
O  O122  1  0.51060000  0.14430000  0.44481000  1.0 -0.6156181198
O  O123  1  0.85570000  0.94481000  0.98940000  1.0 -0.6156181198
O  O124  1  0.35570000  0.55519000  0.01060000  1.0 -0.6156181198
O  O125  1  0.98940000  0.85570000  0.94481000  1.0 -0.6156181198
O  O126  1  0.44481000  0.51060000  0.14430000  1.0 -0.6156181198
O  O127  1  0.55519000  0.01060000  0.35570000  1.0 -0.6156181198
O  O128  1  0.94481000  0.98940000  0.85570000  1.0 -0.6156181198
O  O129  1  0.53840000  0.55010000  0.02810000  1.0 -0.347927501
O  O130  1  0.02810000  0.53840000  0.55010000  1.0 -0.347927501
O  O131  1  0.55010000  0.02810000  0.53840000  1.0 -0.347927501
O  O132  1  0.94990000  0.97190000  0.03840000  1.0 -0.347927501
O  O133  1  0.52810000  0.96160000  0.44990000  1.0 -0.347927501
O  O134  1  0.44990000  0.52810000  0.96160000  1.0 -0.347927501
O  O135  1  0.47190000  0.46160000  0.05010000  1.0 -0.347927501
O  O136  1  0.97190000  0.03840000  0.94990000  1.0 -0.347927501
O  O137  1  0.05010000  0.47190000  0.46160000  1.0 -0.347927501
O  O138  1  0.96160000  0.44990000  0.52810000  1.0 -0.347927501
O  O139  1  0.03840000  0.94990000  0.97190000  1.0 -0.347927501
O  O140  1  0.46160000  0.05010000  0.47190000  1.0 -0.347927501
O  O141  1  0.46160000  0.44990000  0.97190000  1.0 -0.347927501
O  O142  1  0.97190000  0.46160000  0.44990000  1.0 -0.347927501
O  O143  1  0.44990000  0.97190000  0.46160000  1.0 -0.347927501
O  O144  1  0.05010000  0.02810000  0.96160000  1.0 -0.347927501
O  O145  1  0.47190000  0.03840000  0.55010000  1.0 -0.347927501
O  O146  1  0.55010000  0.47190000  0.03840000  1.0 -0.347927501
O  O147  1  0.52810000  0.53840000  0.94990000  1.0 -0.347927501
O  O148  1  0.02810000  0.96160000  0.05010000  1.0 -0.347927501
O  O149  1  0.94990000  0.52810000  0.53840000  1.0 -0.347927501
O  O150  1  0.03840000  0.55010000  0.47190000  1.0 -0.347927501
O  O151  1  0.96160000  0.05010000  0.02810000  1.0 -0.347927501
O  O152  1  0.53840000  0.94990000  0.52810000  1.0 -0.347927501
O  O153  1  0.46070000  0.53930000  0.03930000  1.0 -0.347927501
O  O154  1  0.03930000  0.46070000  0.53930000  1.0 -0.347927501
O  O155  1  0.53930000  0.03930000  0.46070000  1.0 -0.347927501
O  O156  1  0.96070000  0.96070000  0.96070000  1.0 -0.347927501
O  O157  1  0.53930000  0.46070000  0.96070000  1.0 -0.347927501
O  O158  1  0.96070000  0.53930000  0.46070000  1.0 -0.347927501
O  O159  1  0.46070000  0.96070000  0.53930000  1.0 -0.347927501
O  O160  1  0.03930000  0.03930000  0.03930000  1.0 -0.347927501
