# DDEC6 charges by PACMAN v1.1 (https://github.com/mtap-research/PACMAN-charge/)
data_QURPIE_ASR_pacman
_symmetry_space_group_name_H-M   'P 1'
_cell_length_a   26.04830000
_cell_length_b   26.04830000
_cell_length_c   26.04830000
_cell_angle_alpha   90.00000000
_cell_angle_beta   90.00000000
_cell_angle_gamma   90.00000000
_symmetry_Int_Tables_number   1
_chemical_formula_structural   Zr3Cu3H18C36N6(Cl3O16)2
_chemical_formula_sum   'Zr24 Cu24 H144 C288 N48 Cl48 O256'
_cell_volume   17674.13447810
_cell_formula_units_Z   8
loop_
 _symmetry_equiv_pos_site_id
 _symmetry_equiv_pos_as_xyz
  1  'x, y, z'
loop_
 _atom_site_type_symbol
 _atom_site_label
 _atom_site_symmetry_multiplicity
 _atom_site_fract_x
 _atom_site_fract_y
 _atom_site_fract_z
 _atom_site_occupancy
 _atom_site_charge
Zr  Zr1  1  0.51432000  0.48322000  0.40776000  1.0 1.8929541448
Zr  Zr2  1  0.40776000  0.51432000  0.48322000  1.0 1.8929541448
Zr  Zr3  1  0.48322000  0.40776000  0.51432000  1.0 1.8929541448
Zr  Zr4  1  0.01678000  0.59224000  0.01432000  1.0 1.8958021938
Zr  Zr5  1  0.90776000  0.98568000  0.51678000  1.0 1.8929541448
Zr  Zr6  1  0.51678000  0.90776000  0.98568000  1.0 1.8929541448
Zr  Zr7  1  0.09224000  0.48568000  0.98322000  1.0 1.8929541448
Zr  Zr8  1  0.59224000  0.01432000  0.01678000  1.0 1.8958021938
Zr  Zr9  1  0.98322000  0.09224000  0.48568000  1.0 1.8929541448
Zr  Zr10  1  0.98568000  0.51678000  0.90776000  1.0 1.8929541448
Zr  Zr11  1  0.01432000  0.01678000  0.59224000  1.0 1.8958021938
Zr  Zr12  1  0.48568000  0.98322000  0.09224000  1.0 1.8929541448
Zr  Zr13  1  0.48568000  0.51678000  0.59224000  1.0 1.8929541448
Zr  Zr14  1  0.59224000  0.48568000  0.51678000  1.0 1.8929541448
Zr  Zr15  1  0.51678000  0.59224000  0.48568000  1.0 1.8929541448
Zr  Zr16  1  0.98322000  0.40776000  0.98568000  1.0 1.8929541448
Zr  Zr17  1  0.09224000  0.01432000  0.48322000  1.0 1.8958021938
Zr  Zr18  1  0.48322000  0.09224000  0.01432000  1.0 1.8958021938
Zr  Zr19  1  0.90776000  0.51432000  0.01678000  1.0 1.8929541448
Zr  Zr20  1  0.40776000  0.98568000  0.98322000  1.0 1.8929541448
Zr  Zr21  1  0.01678000  0.90776000  0.51432000  1.0 1.8929541448
Zr  Zr22  1  0.01432000  0.48322000  0.09224000  1.0 1.8958021938
Zr  Zr23  1  0.98568000  0.98322000  0.40776000  1.0 1.8929541448
Zr  Zr24  1  0.51432000  0.01678000  0.90776000  1.0 1.8929541448
Cu  Cu1  1  0.20629000  0.48587000  0.29169000  1.0 0.7243486582
Cu  Cu2  1  0.29169000  0.20629000  0.48587000  1.0 0.7261108154
Cu  Cu3  1  0.48587000  0.29169000  0.20629000  1.0 0.7261108154
Cu  Cu4  1  0.01413000  0.70831000  0.70629000  1.0 0.7261108154
Cu  Cu5  1  0.79169000  0.29371000  0.51413000  1.0 0.7261108154
Cu  Cu6  1  0.51413000  0.79169000  0.29371000  1.0 0.7261108154
Cu  Cu7  1  0.20831000  0.79371000  0.98587000  1.0 0.7261108154
Cu  Cu8  1  0.70831000  0.70629000  0.01413000  1.0 0.7261108154
Cu  Cu9  1  0.98587000  0.20831000  0.79371000  1.0 0.7261108154
Cu  Cu10  1  0.29371000  0.51413000  0.79169000  1.0 0.7261108154
Cu  Cu11  1  0.70629000  0.01413000  0.70831000  1.0 0.7261108154
Cu  Cu12  1  0.79371000  0.98587000  0.20831000  1.0 0.7261108154
Cu  Cu13  1  0.79371000  0.51413000  0.70831000  1.0 0.7261108154
Cu  Cu14  1  0.70831000  0.79371000  0.51413000  1.0 0.7261108154
Cu  Cu15  1  0.51413000  0.70831000  0.79371000  1.0 0.7261108154
Cu  Cu16  1  0.98587000  0.29169000  0.29371000  1.0 0.7261108154
Cu  Cu17  1  0.20831000  0.70629000  0.48587000  1.0 0.7243486582
Cu  Cu18  1  0.48587000  0.20831000  0.70629000  1.0 0.7261108154
Cu  Cu19  1  0.79169000  0.20629000  0.01413000  1.0 0.7261108154
Cu  Cu20  1  0.29169000  0.29371000  0.98587000  1.0 0.7261108154
Cu  Cu21  1  0.01413000  0.79169000  0.20629000  1.0 0.7261108154
Cu  Cu22  1  0.70629000  0.48587000  0.20831000  1.0 0.7261108154
Cu  Cu23  1  0.29371000  0.98587000  0.29169000  1.0 0.7261108154
Cu  Cu24  1  0.20629000  0.01413000  0.79169000  1.0 0.7261108154
H  H1  1  0.36420000  0.45780000  0.19490000  1.0 0.1510911225
H  H2  1  0.19490000  0.36420000  0.45780000  1.0 0.1510911225
H  H3  1  0.45780000  0.19490000  0.36420000  1.0 0.1510911225
H  H4  1  0.04220000  0.80510000  0.86420000  1.0 0.1510911225
H  H5  1  0.69490000  0.13580000  0.54220000  1.0 0.1510911225
H  H6  1  0.54220000  0.69490000  0.13580000  1.0 0.1510911225
H  H7  1  0.30510000  0.63580000  0.95780000  1.0 0.1510911225
H  H8  1  0.80510000  0.86420000  0.04220000  1.0 0.1510911225
H  H9  1  0.95780000  0.30510000  0.63580000  1.0 0.1510911225
H  H10  1  0.13580000  0.54220000  0.69490000  1.0 0.1510911225
H  H11  1  0.86420000  0.04220000  0.80510000  1.0 0.1510911225
H  H12  1  0.63580000  0.95780000  0.30510000  1.0 0.1510911225
H  H13  1  0.63580000  0.54220000  0.80510000  1.0 0.1510911225
H  H14  1  0.80510000  0.63580000  0.54220000  1.0 0.1510911225
H  H15  1  0.54220000  0.80510000  0.63580000  1.0 0.1510911225
H  H16  1  0.95780000  0.19490000  0.13580000  1.0 0.1510911225
H  H17  1  0.30510000  0.86420000  0.45780000  1.0 0.1510911225
H  H18  1  0.45780000  0.30510000  0.86420000  1.0 0.1510911225
H  H19  1  0.69490000  0.36420000  0.04220000  1.0 0.1510911225
H  H20  1  0.19490000  0.13580000  0.95780000  1.0 0.1510911225
H  H21  1  0.04220000  0.69490000  0.36420000  1.0 0.1510911225
H  H22  1  0.86420000  0.45780000  0.30510000  1.0 0.1510911225
H  H23  1  0.13580000  0.95780000  0.19490000  1.0 0.1510911225
H  H24  1  0.36420000  0.04220000  0.69490000  1.0 0.1510911225
H  H25  1  0.42270000  0.47160000  0.26310000  1.0 0.178629234
H  H26  1  0.26310000  0.42270000  0.47160000  1.0 0.178629234
H  H27  1  0.47160000  0.26310000  0.42270000  1.0 0.178629234
H  H28  1  0.02840000  0.73690000  0.92270000  1.0 0.178629234
H  H29  1  0.76310000  0.07730000  0.52840000  1.0 0.178629234
H  H30  1  0.52840000  0.76310000  0.07730000  1.0 0.178629234
H  H31  1  0.23690000  0.57730000  0.97160000  1.0 0.178629234
H  H32  1  0.73690000  0.92270000  0.02840000  1.0 0.178629234
H  H33  1  0.97160000  0.23690000  0.57730000  1.0 0.178629234
H  H34  1  0.07730000  0.52840000  0.76310000  1.0 0.178629234
H  H35  1  0.92270000  0.02840000  0.73690000  1.0 0.178629234
H  H36  1  0.57730000  0.97160000  0.23690000  1.0 0.178629234
H  H37  1  0.57730000  0.52840000  0.73690000  1.0 0.178629234
H  H38  1  0.73690000  0.57730000  0.52840000  1.0 0.178629234
H  H39  1  0.52840000  0.73690000  0.57730000  1.0 0.178629234
H  H40  1  0.97160000  0.26310000  0.07730000  1.0 0.178629234
H  H41  1  0.23690000  0.92270000  0.47160000  1.0 0.178629234
H  H42  1  0.47160000  0.23690000  0.92270000  1.0 0.178629234
H  H43  1  0.76310000  0.42270000  0.02840000  1.0 0.178629234
H  H44  1  0.26310000  0.07730000  0.97160000  1.0 0.178629234
H  H45  1  0.02840000  0.76310000  0.42270000  1.0 0.178629234
H  H46  1  0.92270000  0.47160000  0.23690000  1.0 0.178629234
H  H47  1  0.07730000  0.97160000  0.26310000  1.0 0.178629234
H  H48  1  0.42270000  0.02840000  0.76310000  1.0 0.178629234
H  H49  1  0.30160000  0.49510000  0.35710000  1.0 0.1685074681
H  H50  1  0.35710000  0.30160000  0.49510000  1.0 0.1685074681
H  H51  1  0.49510000  0.35710000  0.30160000  1.0 0.1685074681
H  H52  1  0.00490000  0.64290000  0.80160000  1.0 0.1685074681
H  H53  1  0.85710000  0.19840000  0.50490000  1.0 0.1685074681
H  H54  1  0.50490000  0.85710000  0.19840000  1.0 0.1685074681
H  H55  1  0.14290000  0.69840000  0.99510000  1.0 0.1685074681
H  H56  1  0.64290000  0.80160000  0.00490000  1.0 0.1685074681
H  H57  1  0.99510000  0.14290000  0.69840000  1.0 0.1685074681
H  H58  1  0.19840000  0.50490000  0.85710000  1.0 0.1685074681
H  H59  1  0.80160000  0.00490000  0.64290000  1.0 0.1685074681
H  H60  1  0.69840000  0.99510000  0.14290000  1.0 0.1685074681
H  H61  1  0.69840000  0.50490000  0.64290000  1.0 0.1685074681
H  H62  1  0.64290000  0.69840000  0.50490000  1.0 0.1685074681
H  H63  1  0.50490000  0.64290000  0.69840000  1.0 0.1685074681
H  H64  1  0.99510000  0.35710000  0.19840000  1.0 0.1685074681
H  H65  1  0.14290000  0.80160000  0.49510000  1.0 0.1685074681
H  H66  1  0.49510000  0.14290000  0.80160000  1.0 0.1685074681
H  H67  1  0.85710000  0.30160000  0.00490000  1.0 0.1685074681
H  H68  1  0.35710000  0.19840000  0.99510000  1.0 0.1685074681
H  H69  1  0.00490000  0.85710000  0.30160000  1.0 0.1685074681
H  H70  1  0.80160000  0.49510000  0.14290000  1.0 0.1685074681
H  H71  1  0.19840000  0.99510000  0.35710000  1.0 0.1685074681
H  H72  1  0.30160000  0.00490000  0.85710000  1.0 0.1685074681
H  H73  1  0.30440000  0.45070000  0.13570000  1.0 0.1510911225
H  H74  1  0.13570000  0.30440000  0.45070000  1.0 0.1510911225
H  H75  1  0.45070000  0.13570000  0.30440000  1.0 0.1510911225
H  H76  1  0.04930000  0.86430000  0.80440000  1.0 0.1510911225
H  H77  1  0.63570000  0.19560000  0.54930000  1.0 0.1510911225
H  H78  1  0.54930000  0.63570000  0.19560000  1.0 0.1510911225
H  H79  1  0.36430000  0.69560000  0.95070000  1.0 0.1510911225
H  H80  1  0.86430000  0.80440000  0.04930000  1.0 0.1510911225
H  H81  1  0.95070000  0.36430000  0.69560000  1.0 0.1510911225
H  H82  1  0.19560000  0.54930000  0.63570000  1.0 0.1510911225
H  H83  1  0.80440000  0.04930000  0.86430000  1.0 0.1510911225
H  H84  1  0.69560000  0.95070000  0.36430000  1.0 0.1510911225
H  H85  1  0.69560000  0.54930000  0.86430000  1.0 0.1510911225
H  H86  1  0.86430000  0.69560000  0.54930000  1.0 0.1510911225
H  H87  1  0.54930000  0.86430000  0.69560000  1.0 0.1510911225
H  H88  1  0.95070000  0.13570000  0.19560000  1.0 0.1510911225
H  H89  1  0.36430000  0.80440000  0.45070000  1.0 0.1510911225
H  H90  1  0.45070000  0.36430000  0.80440000  1.0 0.1510911225
H  H91  1  0.63570000  0.30440000  0.04930000  1.0 0.1510911225
H  H92  1  0.13570000  0.19560000  0.95070000  1.0 0.1510911225
H  H93  1  0.04930000  0.63570000  0.30440000  1.0 0.1510911225
H  H94  1  0.80440000  0.45070000  0.36430000  1.0 0.1510911225
H  H95  1  0.19560000  0.95070000  0.13570000  1.0 0.1510911225
H  H96  1  0.30440000  0.04930000  0.63570000  1.0 0.1510911225
H  H97  1  0.23530000  0.44840000  0.07750000  1.0 0.178629234
H  H98  1  0.07750000  0.23530000  0.44840000  1.0 0.178629234
H  H99  1  0.44840000  0.07750000  0.23530000  1.0 0.178629234
H  H100  1  0.05160000  0.92250000  0.73530000  1.0 0.178629234
H  H101  1  0.57750000  0.26470000  0.55160000  1.0 0.178629234
H  H102  1  0.55160000  0.57750000  0.26470000  1.0 0.178629234
H  H103  1  0.42250000  0.76470000  0.94840000  1.0 0.178629234
H  H104  1  0.92250000  0.73530000  0.05160000  1.0 0.178629234
H  H105  1  0.94840000  0.42250000  0.76470000  1.0 0.178629234
H  H106  1  0.26470000  0.55160000  0.57750000  1.0 0.178629234
H  H107  1  0.73530000  0.05160000  0.92250000  1.0 0.178629234
H  H108  1  0.76470000  0.94840000  0.42250000  1.0 0.178629234
H  H109  1  0.76470000  0.55160000  0.92250000  1.0 0.178629234
H  H110  1  0.92250000  0.76470000  0.55160000  1.0 0.178629234
H  H111  1  0.55160000  0.92250000  0.76470000  1.0 0.178629234
H  H112  1  0.94840000  0.07750000  0.26470000  1.0 0.178629234
H  H113  1  0.42250000  0.73530000  0.44840000  1.0 0.178629234
H  H114  1  0.44840000  0.42250000  0.73530000  1.0 0.178629234
H  H115  1  0.57750000  0.23530000  0.05160000  1.0 0.178629234
H  H116  1  0.07750000  0.26470000  0.94840000  1.0 0.178629234
H  H117  1  0.05160000  0.57750000  0.23530000  1.0 0.178629234
H  H118  1  0.73530000  0.44840000  0.42250000  1.0 0.178629234
H  H119  1  0.26470000  0.94840000  0.07750000  1.0 0.178629234
H  H120  1  0.23530000  0.05160000  0.57750000  1.0 0.178629234
H  H121  1  0.13940000  0.47950000  0.19530000  1.0 0.1685074681
H  H122  1  0.19530000  0.13940000  0.47950000  1.0 0.1685074681
H  H123  1  0.47950000  0.19530000  0.13940000  1.0 0.1685074681
H  H124  1  0.02050000  0.80470000  0.63940000  1.0 0.1685074681
H  H125  1  0.69530000  0.36060000  0.52050000  1.0 0.1685074681
H  H126  1  0.52050000  0.69530000  0.36060000  1.0 0.1685074681
H  H127  1  0.30470000  0.86060000  0.97950000  1.0 0.1685074681
H  H128  1  0.80470000  0.63940000  0.02050000  1.0 0.1685074681
H  H129  1  0.97950000  0.30470000  0.86060000  1.0 0.1685074681
H  H130  1  0.36060000  0.52050000  0.69530000  1.0 0.1685074681
H  H131  1  0.63940000  0.02050000  0.80470000  1.0 0.1685074681
H  H132  1  0.86060000  0.97950000  0.30470000  1.0 0.1685074681
H  H133  1  0.86060000  0.52050000  0.80470000  1.0 0.1685074681
H  H134  1  0.80470000  0.86060000  0.52050000  1.0 0.1685074681
H  H135  1  0.52050000  0.80470000  0.86060000  1.0 0.1685074681
H  H136  1  0.97950000  0.19530000  0.36060000  1.0 0.1685074681
H  H137  1  0.30470000  0.63940000  0.47950000  1.0 0.1685074681
H  H138  1  0.47950000  0.30470000  0.63940000  1.0 0.1685074681
H  H139  1  0.69530000  0.13940000  0.02050000  1.0 0.1685074681
H  H140  1  0.19530000  0.36060000  0.97950000  1.0 0.1685074681
H  H141  1  0.02050000  0.69530000  0.13940000  1.0 0.1685074681
H  H142  1  0.63940000  0.47950000  0.30470000  1.0 0.1685074681
H  H143  1  0.36060000  0.97950000  0.19530000  1.0 0.1685074681
H  H144  1  0.13940000  0.02050000  0.69530000  1.0 0.1685074681
C  C1  1  0.30057000  0.47142000  0.23836000  1.0 0.1685074681
C  C2  1  0.23836000  0.30057000  0.47142000  1.0 0.1685074681
C  C3  1  0.47142000  0.23836000  0.30057000  1.0 0.1685074681
C  C4  1  0.02858000  0.76164000  0.80057000  1.0 0.1685074681
C  C5  1  0.73836000  0.19943000  0.52858000  1.0 0.1685074681
C  C6  1  0.52858000  0.73836000  0.19943000  1.0 0.1685074681
C  C7  1  0.26164000  0.69943000  0.97142000  1.0 0.1685074681
C  C8  1  0.76164000  0.80057000  0.02858000  1.0 0.1685074681
C  C9  1  0.97142000  0.26164000  0.69943000  1.0 0.1685074681
C  C10  1  0.19943000  0.52858000  0.73836000  1.0 0.1685074681
C  C11  1  0.80057000  0.02858000  0.76164000  1.0 0.1685074681
C  C12  1  0.69943000  0.97142000  0.26164000  1.0 0.1685074681
C  C13  1  0.69943000  0.52858000  0.76164000  1.0 0.1685074681
C  C14  1  0.76164000  0.69943000  0.52858000  1.0 0.1685074681
C  C15  1  0.52858000  0.76164000  0.69943000  1.0 0.1685074681
C  C16  1  0.97142000  0.23836000  0.19943000  1.0 0.1685074681
C  C17  1  0.26164000  0.80057000  0.47142000  1.0 0.1685074681
C  C18  1  0.47142000  0.26164000  0.80057000  1.0 0.1685074681
C  C19  1  0.73836000  0.30057000  0.02858000  1.0 0.1685074681
C  C20  1  0.23836000  0.19943000  0.97142000  1.0 0.1685074681
C  C21  1  0.02858000  0.73836000  0.30057000  1.0 0.1685074681
C  C22  1  0.80057000  0.47142000  0.26164000  1.0 0.1685074681
C  C23  1  0.19943000  0.97142000  0.23836000  1.0 0.1685074681
C  C24  1  0.30057000  0.02858000  0.73836000  1.0 0.1685074681
C  C25  1  0.35234000  0.46640000  0.22833000  1.0 -0.1393697234
C  C26  1  0.22833000  0.35234000  0.46640000  1.0 -0.1393697234
C  C27  1  0.46640000  0.22833000  0.35234000  1.0 -0.1393697234
C  C28  1  0.03360000  0.77167000  0.85234000  1.0 -0.1393697234
C  C29  1  0.72833000  0.14766000  0.53360000  1.0 -0.1393697234
C  C30  1  0.53360000  0.72833000  0.14766000  1.0 -0.1393697234
C  C31  1  0.27167000  0.64766000  0.96640000  1.0 -0.1393697234
C  C32  1  0.77167000  0.85234000  0.03360000  1.0 -0.1393697234
C  C33  1  0.96640000  0.27167000  0.64766000  1.0 -0.1393697234
C  C34  1  0.14766000  0.53360000  0.72833000  1.0 -0.1393697234
C  C35  1  0.85234000  0.03360000  0.77167000  1.0 -0.1393697234
C  C36  1  0.64766000  0.96640000  0.27167000  1.0 -0.1393697234
C  C37  1  0.64766000  0.53360000  0.77167000  1.0 -0.1393697234
C  C38  1  0.77167000  0.64766000  0.53360000  1.0 -0.1393697234
C  C39  1  0.53360000  0.77167000  0.64766000  1.0 -0.1393697234
C  C40  1  0.96640000  0.22833000  0.14766000  1.0 -0.1393697234
C  C41  1  0.27167000  0.85234000  0.46640000  1.0 -0.1393697234
C  C42  1  0.46640000  0.27167000  0.85234000  1.0 -0.1393697234
C  C43  1  0.72833000  0.35234000  0.03360000  1.0 -0.1393697234
C  C44  1  0.22833000  0.14766000  0.96640000  1.0 -0.1393697234
C  C45  1  0.03360000  0.72833000  0.35234000  1.0 -0.1393697234
C  C46  1  0.85234000  0.46640000  0.27167000  1.0 -0.1393697234
C  C47  1  0.14766000  0.96640000  0.22833000  1.0 -0.1393697234
C  C48  1  0.35234000  0.03360000  0.72833000  1.0 -0.1393697234
C  C49  1  0.38672000  0.47410000  0.26865000  1.0 0.0094584303
C  C50  1  0.26865000  0.38672000  0.47410000  1.0 0.0094584303
C  C51  1  0.47410000  0.26865000  0.38672000  1.0 0.0094584303
C  C52  1  0.02590000  0.73135000  0.88672000  1.0 0.0094584303
C  C53  1  0.76865000  0.11328000  0.52590000  1.0 0.0094584303
C  C54  1  0.52590000  0.76865000  0.11328000  1.0 0.0094584303
C  C55  1  0.23135000  0.61328000  0.97410000  1.0 0.0094584303
C  C56  1  0.73135000  0.88672000  0.02590000  1.0 0.0094584303
C  C57  1  0.97410000  0.23135000  0.61328000  1.0 0.0094584303
C  C58  1  0.11328000  0.52590000  0.76865000  1.0 0.0094584303
C  C59  1  0.88672000  0.02590000  0.73135000  1.0 0.0094584303
C  C60  1  0.61328000  0.97410000  0.23135000  1.0 0.0094584303
C  C61  1  0.61328000  0.52590000  0.73135000  1.0 0.0094584303
C  C62  1  0.73135000  0.61328000  0.52590000  1.0 0.0094584303
C  C63  1  0.52590000  0.73135000  0.61328000  1.0 0.0094584303
C  C64  1  0.97410000  0.26865000  0.11328000  1.0 0.0094584303
C  C65  1  0.23135000  0.88672000  0.47410000  1.0 0.0094584303
C  C66  1  0.47410000  0.23135000  0.88672000  1.0 0.0094584303
C  C67  1  0.76865000  0.38672000  0.02590000  1.0 0.0094584303
C  C68  1  0.26865000  0.11328000  0.97410000  1.0 0.0094584303
C  C69  1  0.02590000  0.76865000  0.38672000  1.0 0.0094584303
C  C70  1  0.88672000  0.47410000  0.23135000  1.0 0.0094584303
C  C71  1  0.11328000  0.97410000  0.26865000  1.0 0.0094584303
C  C72  1  0.38672000  0.02590000  0.76865000  1.0 0.0094584303
C  C73  1  0.36765000  0.48555000  0.31693000  1.0 0.0302946115
C  C74  1  0.31693000  0.36765000  0.48555000  1.0 0.0302946115
C  C75  1  0.48555000  0.31693000  0.36765000  1.0 0.0302946115
C  C76  1  0.01445000  0.68307000  0.86765000  1.0 0.0302946115
C  C77  1  0.81693000  0.13235000  0.51445000  1.0 0.0302946115
C  C78  1  0.51445000  0.81693000  0.13235000  1.0 0.0302946115
C  C79  1  0.18307000  0.63235000  0.98555000  1.0 0.0302946115
C  C80  1  0.68307000  0.86765000  0.01445000  1.0 0.0302946115
C  C81  1  0.98555000  0.18307000  0.63235000  1.0 0.0302946115
C  C82  1  0.13235000  0.51445000  0.81693000  1.0 0.0302946115
C  C83  1  0.86765000  0.01445000  0.68307000  1.0 0.0302946115
C  C84  1  0.63235000  0.98555000  0.18307000  1.0 0.0302946115
C  C85  1  0.63235000  0.51445000  0.68307000  1.0 0.0302946115
C  C86  1  0.68307000  0.63235000  0.51445000  1.0 0.0302946115
C  C87  1  0.51445000  0.68307000  0.63235000  1.0 0.0302946115
C  C88  1  0.98555000  0.31693000  0.13235000  1.0 0.0302946115
C  C89  1  0.18307000  0.86765000  0.48555000  1.0 0.0302946115
C  C90  1  0.48555000  0.18307000  0.86765000  1.0 0.0302946115
C  C91  1  0.81693000  0.36765000  0.01445000  1.0 0.0302946115
C  C92  1  0.31693000  0.13235000  0.98555000  1.0 0.0302946115
C  C93  1  0.01445000  0.81693000  0.36765000  1.0 0.0302946115
C  C94  1  0.86765000  0.48555000  0.18307000  1.0 0.0302946115
C  C95  1  0.13235000  0.98555000  0.31693000  1.0 0.0302946115
C  C96  1  0.36765000  0.01445000  0.81693000  1.0 0.0302946115
C  C97  1  0.31475000  0.48792000  0.32384000  1.0 0.1046155653
C  C98  1  0.32384000  0.31475000  0.48792000  1.0 0.1046155653
C  C99  1  0.48792000  0.32384000  0.31475000  1.0 0.1046155653
C  C100  1  0.01208000  0.67616000  0.81475000  1.0 0.1046155653
C  C101  1  0.82384000  0.18525000  0.51208000  1.0 0.1054376154
C  C102  1  0.51208000  0.82384000  0.18525000  1.0 0.1054376154
C  C103  1  0.17616000  0.68525000  0.98792000  1.0 0.1054376154
C  C104  1  0.67616000  0.81475000  0.01208000  1.0 0.1054376154
C  C105  1  0.98792000  0.17616000  0.68525000  1.0 0.1054376154
C  C106  1  0.18525000  0.51208000  0.82384000  1.0 0.1046155653
C  C107  1  0.81475000  0.01208000  0.67616000  1.0 0.1046155653
C  C108  1  0.68525000  0.98792000  0.17616000  1.0 0.1054376154
C  C109  1  0.68525000  0.51208000  0.67616000  1.0 0.1054376154
C  C110  1  0.67616000  0.68525000  0.51208000  1.0 0.1054376154
C  C111  1  0.51208000  0.67616000  0.68525000  1.0 0.1054376154
C  C112  1  0.98792000  0.32384000  0.18525000  1.0 0.1054376154
C  C113  1  0.17616000  0.81475000  0.48792000  1.0 0.1046155653
C  C114  1  0.48792000  0.17616000  0.81475000  1.0 0.1046155653
C  C115  1  0.82384000  0.31475000  0.01208000  1.0 0.1054376154
C  C116  1  0.32384000  0.18525000  0.98792000  1.0 0.1046155653
C  C117  1  0.01208000  0.82384000  0.31475000  1.0 0.1054376154
C  C118  1  0.81475000  0.48792000  0.17616000  1.0 0.1046155653
C  C119  1  0.18525000  0.98792000  0.32384000  1.0 0.1054376154
C  C120  1  0.31475000  0.01208000  0.82384000  1.0 0.1046155653
C  C121  1  0.26077000  0.46700000  0.19800000  1.0 0.1685074681
C  C122  1  0.19800000  0.26077000  0.46700000  1.0 0.1685074681
C  C123  1  0.46700000  0.19800000  0.26077000  1.0 0.1685074681
C  C124  1  0.03300000  0.80200000  0.76077000  1.0 0.1685074681
C  C125  1  0.69800000  0.23923000  0.53300000  1.0 0.1685074681
C  C126  1  0.53300000  0.69800000  0.23923000  1.0 0.1685074681
C  C127  1  0.30200000  0.73923000  0.96700000  1.0 0.1685074681
C  C128  1  0.80200000  0.76077000  0.03300000  1.0 0.1685074681
C  C129  1  0.96700000  0.30200000  0.73923000  1.0 0.1685074681
C  C130  1  0.23923000  0.53300000  0.69800000  1.0 0.1685074681
C  C131  1  0.76077000  0.03300000  0.80200000  1.0 0.1685074681
C  C132  1  0.73923000  0.96700000  0.30200000  1.0 0.1685074681
C  C133  1  0.73923000  0.53300000  0.80200000  1.0 0.1685074681
C  C134  1  0.80200000  0.73923000  0.53300000  1.0 0.1685074681
C  C135  1  0.53300000  0.80200000  0.73923000  1.0 0.1685074681
C  C136  1  0.96700000  0.19800000  0.23923000  1.0 0.1685074681
C  C137  1  0.30200000  0.76077000  0.46700000  1.0 0.1685074681
C  C138  1  0.46700000  0.30200000  0.76077000  1.0 0.1685074681
C  C139  1  0.69800000  0.26077000  0.03300000  1.0 0.1685074681
C  C140  1  0.19800000  0.23923000  0.96700000  1.0 0.1685074681
C  C141  1  0.03300000  0.69800000  0.26077000  1.0 0.1685074681
C  C142  1  0.76077000  0.46700000  0.30200000  1.0 0.1685074681
C  C143  1  0.23923000  0.96700000  0.19800000  1.0 0.1685074681
C  C144  1  0.26077000  0.03300000  0.69800000  1.0 0.1685074681
C  C145  1  0.27034000  0.45670000  0.14722000  1.0 -0.1344040782
C  C146  1  0.14722000  0.27034000  0.45670000  1.0 -0.1344040782
C  C147  1  0.45670000  0.14722000  0.27034000  1.0 -0.1344040782
C  C148  1  0.04330000  0.85278000  0.77034000  1.0 -0.1344040782
C  C149  1  0.64722000  0.22966000  0.54330000  1.0 -0.1344040782
C  C150  1  0.54330000  0.64722000  0.22966000  1.0 -0.1344040782
C  C151  1  0.35278000  0.72966000  0.95670000  1.0 -0.1393697234
C  C152  1  0.85278000  0.77034000  0.04330000  1.0 -0.1393697234
C  C153  1  0.95670000  0.35278000  0.72966000  1.0 -0.1393697234
C  C154  1  0.22966000  0.54330000  0.64722000  1.0 -0.1344040782
C  C155  1  0.77034000  0.04330000  0.85278000  1.0 -0.1344040782
C  C156  1  0.72966000  0.95670000  0.35278000  1.0 -0.1393697234
C  C157  1  0.72966000  0.54330000  0.85278000  1.0 -0.1393697234
C  C158  1  0.85278000  0.72966000  0.54330000  1.0 -0.1393697234
C  C159  1  0.54330000  0.85278000  0.72966000  1.0 -0.1393697234
C  C160  1  0.95670000  0.14722000  0.22966000  1.0 -0.1344040782
C  C161  1  0.35278000  0.77034000  0.45670000  1.0 -0.1393697234
C  C162  1  0.45670000  0.35278000  0.77034000  1.0 -0.1344040782
C  C163  1  0.64722000  0.27034000  0.04330000  1.0 -0.1344040782
C  C164  1  0.14722000  0.22966000  0.95670000  1.0 -0.1344040782
C  C165  1  0.04330000  0.64722000  0.27034000  1.0 -0.1344040782
C  C166  1  0.77034000  0.45670000  0.35278000  1.0 -0.1393697234
C  C167  1  0.22966000  0.95670000  0.14722000  1.0 -0.1344040782
C  C168  1  0.27034000  0.04330000  0.64722000  1.0 -0.1344040782
C  C169  1  0.22955000  0.45520000  0.11284000  1.0 0.0094584303
C  C170  1  0.11284000  0.22955000  0.45520000  1.0 0.0094584303
C  C171  1  0.45520000  0.11284000  0.22955000  1.0 0.0094584303
C  C172  1  0.04480000  0.88716000  0.72955000  1.0 0.0094584303
C  C173  1  0.61284000  0.27045000  0.54480000  1.0 0.0094584303
C  C174  1  0.54480000  0.61284000  0.27045000  1.0 0.0094584303
C  C175  1  0.38716000  0.77045000  0.95520000  1.0 0.0094584303
C  C176  1  0.88716000  0.72955000  0.04480000  1.0 0.0094584303
C  C177  1  0.95520000  0.38716000  0.77045000  1.0 0.0094584303
C  C178  1  0.27045000  0.54480000  0.61284000  1.0 0.0094584303
C  C179  1  0.72955000  0.04480000  0.88716000  1.0 0.0094584303
C  C180  1  0.77045000  0.95520000  0.38716000  1.0 0.0094584303
C  C181  1  0.77045000  0.54480000  0.88716000  1.0 0.0094584303
C  C182  1  0.88716000  0.77045000  0.54480000  1.0 0.0094584303
C  C183  1  0.54480000  0.88716000  0.77045000  1.0 0.0094584303
C  C184  1  0.95520000  0.11284000  0.27045000  1.0 0.0094584303
C  C185  1  0.38716000  0.72955000  0.45520000  1.0 0.0094584303
C  C186  1  0.45520000  0.38716000  0.72955000  1.0 0.0094584303
C  C187  1  0.61284000  0.22955000  0.04480000  1.0 0.0094584303
C  C188  1  0.11284000  0.27045000  0.95520000  1.0 0.0094584303
C  C189  1  0.04480000  0.61284000  0.22955000  1.0 0.0094584303
C  C190  1  0.72955000  0.45520000  0.38716000  1.0 0.0094584303
C  C191  1  0.27045000  0.95520000  0.11284000  1.0 0.0094584303
C  C192  1  0.22955000  0.04480000  0.61284000  1.0 0.0094584303
C  C193  1  0.18034000  0.46367000  0.13117000  1.0 0.0302946115
C  C194  1  0.13117000  0.18034000  0.46367000  1.0 0.0302946115
C  C195  1  0.46367000  0.13117000  0.18034000  1.0 0.0302946115
C  C196  1  0.03633000  0.86883000  0.68034000  1.0 0.0302946115
C  C197  1  0.63117000  0.31966000  0.53633000  1.0 0.0302946115
C  C198  1  0.53633000  0.63117000  0.31966000  1.0 0.0302946115
C  C199  1  0.36883000  0.81966000  0.96367000  1.0 0.0302946115
C  C200  1  0.86883000  0.68034000  0.03633000  1.0 0.0302946115
C  C201  1  0.96367000  0.36883000  0.81966000  1.0 0.0302946115
C  C202  1  0.31966000  0.53633000  0.63117000  1.0 0.0302946115
C  C203  1  0.68034000  0.03633000  0.86883000  1.0 0.0302946115
C  C204  1  0.81966000  0.96367000  0.36883000  1.0 0.0302946115
C  C205  1  0.81966000  0.53633000  0.86883000  1.0 0.0302946115
C  C206  1  0.86883000  0.81966000  0.53633000  1.0 0.0302946115
C  C207  1  0.53633000  0.86883000  0.81966000  1.0 0.0302946115
C  C208  1  0.96367000  0.13117000  0.31966000  1.0 0.0302946115
C  C209  1  0.36883000  0.68034000  0.46367000  1.0 0.0302946115
C  C210  1  0.46367000  0.36883000  0.68034000  1.0 0.0302946115
C  C211  1  0.63117000  0.18034000  0.03633000  1.0 0.0302946115
C  C212  1  0.13117000  0.31966000  0.96367000  1.0 0.0302946115
C  C213  1  0.03633000  0.63117000  0.18034000  1.0 0.0302946115
C  C214  1  0.68034000  0.46367000  0.36883000  1.0 0.0302946115
C  C215  1  0.31966000  0.96367000  0.13117000  1.0 0.0302946115
C  C216  1  0.18034000  0.03633000  0.63117000  1.0 0.0302946115
C  C217  1  0.17322000  0.47388000  0.18279000  1.0 0.1046155653
C  C218  1  0.18279000  0.17322000  0.47388000  1.0 0.1046155653
C  C219  1  0.47388000  0.18279000  0.17322000  1.0 0.1046155653
C  C220  1  0.02612000  0.81721000  0.67322000  1.0 0.1046155653
C  C221  1  0.68279000  0.32678000  0.52612000  1.0 0.1046155653
C  C222  1  0.52612000  0.68279000  0.32678000  1.0 0.1046155653
C  C223  1  0.31721000  0.82678000  0.97388000  1.0 0.1046155653
C  C224  1  0.81721000  0.67322000  0.02612000  1.0 0.1046155653
C  C225  1  0.97388000  0.31721000  0.82678000  1.0 0.1046155653
C  C226  1  0.32678000  0.52612000  0.68279000  1.0 0.1046155653
C  C227  1  0.67322000  0.02612000  0.81721000  1.0 0.1046155653
C  C228  1  0.82678000  0.97388000  0.31721000  1.0 0.1046155653
C  C229  1  0.82678000  0.52612000  0.81721000  1.0 0.1046155653
C  C230  1  0.81721000  0.82678000  0.52612000  1.0 0.1046155653
C  C231  1  0.52612000  0.81721000  0.82678000  1.0 0.1046155653
C  C232  1  0.97388000  0.18279000  0.32678000  1.0 0.1046155653
C  C233  1  0.31721000  0.67322000  0.47388000  1.0 0.1054376154
C  C234  1  0.47388000  0.31721000  0.67322000  1.0 0.1046155653
C  C235  1  0.68279000  0.17322000  0.02612000  1.0 0.1046155653
C  C236  1  0.18279000  0.32678000  0.97388000  1.0 0.1046155653
C  C237  1  0.02612000  0.68279000  0.17322000  1.0 0.1046155653
C  C238  1  0.67322000  0.47388000  0.31721000  1.0 0.1046155653
C  C239  1  0.32678000  0.97388000  0.18279000  1.0 0.1046155653
C  C240  1  0.17322000  0.02612000  0.68279000  1.0 0.1046155653
C  C241  1  0.40197000  0.49347000  0.36174000  1.0 0.6778372515
C  C242  1  0.36174000  0.40197000  0.49347000  1.0 0.6778372515
C  C243  1  0.49347000  0.36174000  0.40197000  1.0 0.6778372515
C  C244  1  0.00653000  0.63826000  0.90197000  1.0 0.6778372515
C  C245  1  0.86174000  0.09803000  0.50653000  1.0 0.6778372515
C  C246  1  0.50653000  0.86174000  0.09803000  1.0 0.6778372515
C  C247  1  0.13826000  0.59803000  0.99347000  1.0 0.6778372515
C  C248  1  0.63826000  0.90197000  0.00653000  1.0 0.6778372515
C  C249  1  0.99347000  0.13826000  0.59803000  1.0 0.6778372515
C  C250  1  0.09803000  0.50653000  0.86174000  1.0 0.6778372515
C  C251  1  0.90197000  0.00653000  0.63826000  1.0 0.6778372515
C  C252  1  0.59803000  0.99347000  0.13826000  1.0 0.6778372515
C  C253  1  0.59803000  0.50653000  0.63826000  1.0 0.6778372515
C  C254  1  0.63826000  0.59803000  0.50653000  1.0 0.6778372515
C  C255  1  0.50653000  0.63826000  0.59803000  1.0 0.6778372515
C  C256  1  0.99347000  0.36174000  0.09803000  1.0 0.6778372515
C  C257  1  0.13826000  0.90197000  0.49347000  1.0 0.6778372515
C  C258  1  0.49347000  0.13826000  0.90197000  1.0 0.6778372515
C  C259  1  0.86174000  0.40197000  0.00653000  1.0 0.6778372515
C  C260  1  0.36174000  0.09803000  0.99347000  1.0 0.6778372515
C  C261  1  0.00653000  0.86174000  0.40197000  1.0 0.6778372515
C  C262  1  0.90197000  0.49347000  0.13826000  1.0 0.6778372515
C  C263  1  0.09803000  0.99347000  0.36174000  1.0 0.6778372515
C  C264  1  0.40197000  0.00653000  0.86174000  1.0 0.6778372515
C  C265  1  0.13504000  0.46551000  0.09665000  1.0 0.646951128
C  C266  1  0.09665000  0.13504000  0.46551000  1.0 0.646951128
C  C267  1  0.46551000  0.09665000  0.13504000  1.0 0.646951128
C  C268  1  0.03449000  0.90335000  0.63504000  1.0 0.646951128
C  C269  1  0.59665000  0.36496000  0.53449000  1.0 0.646951128
C  C270  1  0.53449000  0.59665000  0.36496000  1.0 0.646951128
C  C271  1  0.40335000  0.86496000  0.96551000  1.0 0.646951128
C  C272  1  0.90335000  0.63504000  0.03449000  1.0 0.646951128
C  C273  1  0.96551000  0.40335000  0.86496000  1.0 0.646951128
C  C274  1  0.36496000  0.53449000  0.59665000  1.0 0.646951128
C  C275  1  0.63504000  0.03449000  0.90335000  1.0 0.646951128
C  C276  1  0.86496000  0.96551000  0.40335000  1.0 0.646951128
C  C277  1  0.86496000  0.53449000  0.90335000  1.0 0.646951128
C  C278  1  0.90335000  0.86496000  0.53449000  1.0 0.646951128
C  C279  1  0.53449000  0.90335000  0.86496000  1.0 0.646951128
C  C280  1  0.96551000  0.09665000  0.36496000  1.0 0.646951128
C  C281  1  0.40335000  0.63504000  0.46551000  1.0 0.646951128
C  C282  1  0.46551000  0.40335000  0.63504000  1.0 0.646951128
C  C283  1  0.59665000  0.13504000  0.03449000  1.0 0.646951128
C  C284  1  0.09665000  0.36496000  0.96551000  1.0 0.646951128
C  C285  1  0.03449000  0.59665000  0.13504000  1.0 0.646951128
C  C286  1  0.63504000  0.46551000  0.40335000  1.0 0.646951128
C  C287  1  0.36496000  0.96551000  0.09665000  1.0 0.646951128
C  C288  1  0.13504000  0.03449000  0.59665000  1.0 0.646951128
N  N1  1  0.28219000  0.48054000  0.28557000  1.0 -0.1933430214
N  N2  1  0.28557000  0.28219000  0.48054000  1.0 -0.1933430214
N  N3  1  0.48054000  0.28557000  0.28219000  1.0 -0.1933430214
N  N4  1  0.01946000  0.71443000  0.78219000  1.0 -0.1933430214
N  N5  1  0.78557000  0.21781000  0.51946000  1.0 -0.1933430214
N  N6  1  0.51946000  0.78557000  0.21781000  1.0 -0.1933430214
N  N7  1  0.21443000  0.71781000  0.98054000  1.0 -0.1933430214
N  N8  1  0.71443000  0.78219000  0.01946000  1.0 -0.1933430214
N  N9  1  0.98054000  0.21443000  0.71781000  1.0 -0.1933430214
N  N10  1  0.21781000  0.51946000  0.78557000  1.0 -0.1933430214
N  N11  1  0.78219000  0.01946000  0.71443000  1.0 -0.1933430214
N  N12  1  0.71781000  0.98054000  0.21443000  1.0 -0.1933430214
N  N13  1  0.71781000  0.51946000  0.71443000  1.0 -0.1933430214
N  N14  1  0.71443000  0.71781000  0.51946000  1.0 -0.1933430214
N  N15  1  0.51946000  0.71443000  0.71781000  1.0 -0.1933430214
N  N16  1  0.98054000  0.28557000  0.21781000  1.0 -0.1933430214
N  N17  1  0.21443000  0.78219000  0.48054000  1.0 -0.1933430214
N  N18  1  0.48054000  0.21443000  0.78219000  1.0 -0.1933430214
N  N19  1  0.78557000  0.28219000  0.01946000  1.0 -0.1933430214
N  N20  1  0.28557000  0.21781000  0.98054000  1.0 -0.1933430214
N  N21  1  0.01946000  0.78557000  0.28219000  1.0 -0.1933430214
N  N22  1  0.78219000  0.48054000  0.21443000  1.0 -0.1933430214
N  N23  1  0.21781000  0.98054000  0.28557000  1.0 -0.1933430214
N  N24  1  0.28219000  0.01946000  0.78557000  1.0 -0.1933430214
N  N25  1  0.21265000  0.47610000  0.21564000  1.0 -0.1967684203
N  N26  1  0.21564000  0.21265000  0.47610000  1.0 -0.1967684203
N  N27  1  0.47610000  0.21564000  0.21265000  1.0 -0.1967684203
N  N28  1  0.02390000  0.78436000  0.71265000  1.0 -0.1967684203
N  N29  1  0.71564000  0.28735000  0.52390000  1.0 -0.1967684203
N  N30  1  0.52390000  0.71564000  0.28735000  1.0 -0.1967684203
N  N31  1  0.28436000  0.78735000  0.97610000  1.0 -0.1967684203
N  N32  1  0.78436000  0.71265000  0.02390000  1.0 -0.1967684203
N  N33  1  0.97610000  0.28436000  0.78735000  1.0 -0.1967684203
N  N34  1  0.28735000  0.52390000  0.71564000  1.0 -0.1967684203
N  N35  1  0.71265000  0.02390000  0.78436000  1.0 -0.1967684203
N  N36  1  0.78735000  0.97610000  0.28436000  1.0 -0.1967684203
N  N37  1  0.78735000  0.52390000  0.78436000  1.0 -0.1967684203
N  N38  1  0.78436000  0.78735000  0.52390000  1.0 -0.1967684203
N  N39  1  0.52390000  0.78436000  0.78735000  1.0 -0.1967684203
N  N40  1  0.97610000  0.21564000  0.28735000  1.0 -0.1967684203
N  N41  1  0.28436000  0.71265000  0.47610000  1.0 -0.1967684203
N  N42  1  0.47610000  0.28436000  0.71265000  1.0 -0.1967684203
N  N43  1  0.71564000  0.21265000  0.02390000  1.0 -0.1967684203
N  N44  1  0.21564000  0.28735000  0.97610000  1.0 -0.1967684203
N  N45  1  0.02390000  0.71564000  0.21265000  1.0 -0.1967684203
N  N46  1  0.71265000  0.47610000  0.28436000  1.0 -0.1967684203
N  N47  1  0.28735000  0.97610000  0.21564000  1.0 -0.1967684203
N  N48  1  0.21265000  0.02390000  0.71564000  1.0 -0.1967684203
Cl  Cl1  1  0.13111000  0.52495000  0.28931000  1.0 -0.4504859011
Cl  Cl2  1  0.28931000  0.13111000  0.52495000  1.0 -0.4504859011
Cl  Cl3  1  0.52495000  0.28931000  0.13111000  1.0 -0.4504859011
Cl  Cl4  1  0.97505000  0.71069000  0.63111000  1.0 -0.4504859011
Cl  Cl5  1  0.78931000  0.36889000  0.47505000  1.0 -0.4504859011
Cl  Cl6  1  0.47505000  0.78931000  0.36889000  1.0 -0.4504859011
Cl  Cl7  1  0.21069000  0.86889000  0.02495000  1.0 -0.4504859011
Cl  Cl8  1  0.71069000  0.63111000  0.97505000  1.0 -0.4504859011
Cl  Cl9  1  0.02495000  0.21069000  0.86889000  1.0 -0.4504859011
Cl  Cl10  1  0.36889000  0.47505000  0.78931000  1.0 -0.4504859011
Cl  Cl11  1  0.63111000  0.97505000  0.71069000  1.0 -0.4504859011
Cl  Cl12  1  0.86889000  0.02495000  0.21069000  1.0 -0.4504859011
Cl  Cl13  1  0.86889000  0.47505000  0.71069000  1.0 -0.4504859011
Cl  Cl14  1  0.71069000  0.86889000  0.47505000  1.0 -0.4504859011
Cl  Cl15  1  0.47505000  0.71069000  0.86889000  1.0 -0.4504859011
Cl  Cl16  1  0.02495000  0.28931000  0.36889000  1.0 -0.4504859011
Cl  Cl17  1  0.21069000  0.63111000  0.52495000  1.0 -0.4504859011
Cl  Cl18  1  0.52495000  0.21069000  0.63111000  1.0 -0.4504859011
Cl  Cl19  1  0.78931000  0.13111000  0.97505000  1.0 -0.4504859011
Cl  Cl20  1  0.28931000  0.36889000  0.02495000  1.0 -0.4504859011
Cl  Cl21  1  0.97505000  0.78931000  0.13111000  1.0 -0.4504859011
Cl  Cl22  1  0.63111000  0.52495000  0.21069000  1.0 -0.4504859011
Cl  Cl23  1  0.36889000  0.02495000  0.28931000  1.0 -0.4504859011
Cl  Cl24  1  0.13111000  0.97505000  0.78931000  1.0 -0.4504859011
Cl  Cl25  1  0.20369000  0.46074000  0.37270000  1.0 -0.4566423538
Cl  Cl26  1  0.37270000  0.20369000  0.46074000  1.0 -0.4566423538
Cl  Cl27  1  0.46074000  0.37270000  0.20369000  1.0 -0.4566423538
Cl  Cl28  1  0.03926000  0.62730000  0.70369000  1.0 -0.4566423538
Cl  Cl29  1  0.87270000  0.29631000  0.53926000  1.0 -0.4566423538
Cl  Cl30  1  0.53926000  0.87270000  0.29631000  1.0 -0.4566423538
Cl  Cl31  1  0.12730000  0.79631000  0.96074000  1.0 -0.4566423538
Cl  Cl32  1  0.62730000  0.70369000  0.03926000  1.0 -0.4566423538
Cl  Cl33  1  0.96074000  0.12730000  0.79631000  1.0 -0.4566423538
Cl  Cl34  1  0.29631000  0.53926000  0.87270000  1.0 -0.4566423538
Cl  Cl35  1  0.70369000  0.03926000  0.62730000  1.0 -0.4566423538
Cl  Cl36  1  0.79631000  0.96074000  0.12730000  1.0 -0.4566423538
Cl  Cl37  1  0.79631000  0.53926000  0.62730000  1.0 -0.4566423538
Cl  Cl38  1  0.62730000  0.79631000  0.53926000  1.0 -0.4566423538
Cl  Cl39  1  0.53926000  0.62730000  0.79631000  1.0 -0.4566423538
Cl  Cl40  1  0.96074000  0.37270000  0.29631000  1.0 -0.4566423538
Cl  Cl41  1  0.12730000  0.70369000  0.46074000  1.0 -0.4566423538
Cl  Cl42  1  0.46074000  0.12730000  0.70369000  1.0 -0.4566423538
Cl  Cl43  1  0.87270000  0.20369000  0.03926000  1.0 -0.4566423538
Cl  Cl44  1  0.37270000  0.29631000  0.96074000  1.0 -0.4566423538
Cl  Cl45  1  0.03926000  0.87270000  0.20369000  1.0 -0.4566423538
Cl  Cl46  1  0.70369000  0.46074000  0.12730000  1.0 -0.4566423538
Cl  Cl47  1  0.29631000  0.96074000  0.37270000  1.0 -0.4566423538
Cl  Cl48  1  0.20369000  0.03926000  0.87270000  1.0 -0.4566423538
O  O1  1  0.38072000  0.50620000  0.40283000  1.0 -0.334694779
O  O2  1  0.40283000  0.38072000  0.50620000  1.0 -0.334694779
O  O3  1  0.50620000  0.40283000  0.38072000  1.0 -0.334694779
O  O4  1  0.99380000  0.59717000  0.88072000  1.0 -0.335107422
O  O5  1  0.90283000  0.11928000  0.49380000  1.0 -0.334694779
O  O6  1  0.49380000  0.90283000  0.11928000  1.0 -0.334694779
O  O7  1  0.09717000  0.61928000  0.00620000  1.0 -0.335107422
O  O8  1  0.59717000  0.88072000  0.99380000  1.0 -0.335107422
O  O9  1  0.00620000  0.09717000  0.61928000  1.0 -0.335107422
O  O10  1  0.11928000  0.49380000  0.90283000  1.0 -0.335107422
O  O11  1  0.88072000  0.99380000  0.59717000  1.0 -0.334694779
O  O12  1  0.61928000  0.00620000  0.09717000  1.0 -0.335107422
O  O13  1  0.61928000  0.49380000  0.59717000  1.0 -0.335107422
O  O14  1  0.59717000  0.61928000  0.49380000  1.0 -0.335107422
O  O15  1  0.49380000  0.59717000  0.61928000  1.0 -0.335107422
O  O16  1  0.00620000  0.40283000  0.11928000  1.0 -0.334694779
O  O17  1  0.09717000  0.88072000  0.50620000  1.0 -0.335107422
O  O18  1  0.50620000  0.09717000  0.88072000  1.0 -0.334694779
O  O19  1  0.90283000  0.38072000  0.99380000  1.0 -0.334694779
O  O20  1  0.40283000  0.11928000  0.00620000  1.0 -0.334694779
O  O21  1  0.99380000  0.90283000  0.38072000  1.0 -0.334694779
O  O22  1  0.88072000  0.50620000  0.09717000  1.0 -0.334694779
O  O23  1  0.11928000  0.00620000  0.40283000  1.0 -0.335107422
O  O24  1  0.38072000  0.99380000  0.90283000  1.0 -0.334694779
O  O25  1  0.44884000  0.48560000  0.35446000  1.0 -0.4985131135
O  O26  1  0.35446000  0.44884000  0.48560000  1.0 -0.4985131135
O  O27  1  0.48560000  0.35446000  0.44884000  1.0 -0.4985131135
O  O28  1  0.01440000  0.64554000  0.94884000  1.0 -0.4985131135
O  O29  1  0.85446000  0.05116000  0.51440000  1.0 -0.4985131135
O  O30  1  0.51440000  0.85446000  0.05116000  1.0 -0.4985131135
O  O31  1  0.14554000  0.55116000  0.98560000  1.0 -0.4985131135
O  O32  1  0.64554000  0.94884000  0.01440000  1.0 -0.4985131135
O  O33  1  0.98560000  0.14554000  0.55116000  1.0 -0.4985131135
O  O34  1  0.05116000  0.51440000  0.85446000  1.0 -0.4985131135
O  O35  1  0.94884000  0.01440000  0.64554000  1.0 -0.4985131135
O  O36  1  0.55116000  0.98560000  0.14554000  1.0 -0.4985131135
O  O37  1  0.55116000  0.51440000  0.64554000  1.0 -0.4985131135
O  O38  1  0.64554000  0.55116000  0.51440000  1.0 -0.4985131135
O  O39  1  0.51440000  0.64554000  0.55116000  1.0 -0.4985131135
O  O40  1  0.98560000  0.35446000  0.05116000  1.0 -0.4985131135
O  O41  1  0.14554000  0.94884000  0.48560000  1.0 -0.4985131135
O  O42  1  0.48560000  0.14554000  0.94884000  1.0 -0.4985131135
O  O43  1  0.85446000  0.44884000  0.01440000  1.0 -0.4985131135
O  O44  1  0.35446000  0.05116000  0.98560000  1.0 -0.4985131135
O  O45  1  0.01440000  0.85446000  0.44884000  1.0 -0.4985131135
O  O46  1  0.94884000  0.48560000  0.14554000  1.0 -0.4985131135
O  O47  1  0.05116000  0.98560000  0.35446000  1.0 -0.4985131135
O  O48  1  0.44884000  0.01440000  0.85446000  1.0 -0.4985131135
O  O49  1  0.09213000  0.46600000  0.11784000  1.0 -0.3883093371
O  O50  1  0.11784000  0.09213000  0.46600000  1.0 -0.3883093371
O  O51  1  0.46600000  0.11784000  0.09213000  1.0 -0.3883093371
O  O52  1  0.03400000  0.88216000  0.59213000  1.0 -0.3883093371
O  O53  1  0.61784000  0.40787000  0.53400000  1.0 -0.3883093371
O  O54  1  0.53400000  0.61784000  0.40787000  1.0 -0.3883093371
O  O55  1  0.38216000  0.90787000  0.96600000  1.0 -0.3883093371
O  O56  1  0.88216000  0.59213000  0.03400000  1.0 -0.3883093371
O  O57  1  0.96600000  0.38216000  0.90787000  1.0 -0.3883093371
O  O58  1  0.40787000  0.53400000  0.61784000  1.0 -0.3883093371
O  O59  1  0.59213000  0.03400000  0.88216000  1.0 -0.3883093371
O  O60  1  0.90787000  0.96600000  0.38216000  1.0 -0.3883093371
O  O61  1  0.90787000  0.53400000  0.88216000  1.0 -0.3883093371
O  O62  1  0.88216000  0.90787000  0.53400000  1.0 -0.3883093371
O  O63  1  0.53400000  0.88216000  0.90787000  1.0 -0.3883093371
O  O64  1  0.96600000  0.11784000  0.40787000  1.0 -0.3883093371
O  O65  1  0.38216000  0.59213000  0.46600000  1.0 -0.3883093371
O  O66  1  0.46600000  0.38216000  0.59213000  1.0 -0.3883093371
O  O67  1  0.61784000  0.09213000  0.03400000  1.0 -0.3883093371
O  O68  1  0.11784000  0.40787000  0.96600000  1.0 -0.3883093371
O  O69  1  0.03400000  0.61784000  0.09213000  1.0 -0.3883093371
O  O70  1  0.59213000  0.46600000  0.38216000  1.0 -0.3883093371
O  O71  1  0.40787000  0.96600000  0.11784000  1.0 -0.3883093371
O  O72  1  0.09213000  0.03400000  0.61784000  1.0 -0.3883093371
O  O73  1  0.14289000  0.46699000  0.04957000  1.0 -0.3698385083
O  O74  1  0.04957000  0.14289000  0.46699000  1.0 -0.3698385083
O  O75  1  0.46699000  0.04957000  0.14289000  1.0 -0.3698385083
O  O76  1  0.03301000  0.95043000  0.64289000  1.0 -0.3698385083
O  O77  1  0.54957000  0.35711000  0.53301000  1.0 -0.3698385083
O  O78  1  0.53301000  0.54957000  0.35711000  1.0 -0.3698385083
O  O79  1  0.45043000  0.85711000  0.96699000  1.0 -0.3698385083
O  O80  1  0.95043000  0.64289000  0.03301000  1.0 -0.3698385083
O  O81  1  0.96699000  0.45043000  0.85711000  1.0 -0.3698385083
O  O82  1  0.35711000  0.53301000  0.54957000  1.0 -0.3698385083
O  O83  1  0.64289000  0.03301000  0.95043000  1.0 -0.3698385083
O  O84  1  0.85711000  0.96699000  0.45043000  1.0 -0.3698385083
O  O85  1  0.85711000  0.53301000  0.95043000  1.0 -0.3698385083
O  O86  1  0.95043000  0.85711000  0.53301000  1.0 -0.3698385083
O  O87  1  0.53301000  0.95043000  0.85711000  1.0 -0.3698385083
O  O88  1  0.96699000  0.04957000  0.35711000  1.0 -0.3698385083
O  O89  1  0.45043000  0.64289000  0.46699000  1.0 -0.3698385083
O  O90  1  0.46699000  0.45043000  0.64289000  1.0 -0.3698385083
O  O91  1  0.54957000  0.14289000  0.03301000  1.0 -0.3698385083
O  O92  1  0.04957000  0.35711000  0.96699000  1.0 -0.3698385083
O  O93  1  0.03301000  0.54957000  0.14289000  1.0 -0.3698385083
O  O94  1  0.64289000  0.46699000  0.45043000  1.0 -0.3698385083
O  O95  1  0.35711000  0.96699000  0.04957000  1.0 -0.3698385083
O  O96  1  0.14289000  0.03301000  0.54957000  1.0 -0.3698385083
O  O97  1  0.45998000  0.45998000  0.45998000  1.0 -0.2770759947
O  O98  1  0.04002000  0.54002000  0.95998000  1.0 -0.2770759947
O  O99  1  0.95998000  0.04002000  0.54002000  1.0 -0.2770759947
O  O100  1  0.54002000  0.95998000  0.04002000  1.0 -0.2770759947
O  O101  1  0.54002000  0.54002000  0.54002000  1.0 -0.2770759947
O  O102  1  0.95998000  0.45998000  0.04002000  1.0 -0.2770759947
O  O103  1  0.04002000  0.95998000  0.45998000  1.0 -0.2770759947
O  O104  1  0.45998000  0.04002000  0.95998000  1.0 -0.2770759947
O  O105  1  0.53778000  0.44789000  0.47422000  1.0 -0.2770759947
O  O106  1  0.47422000  0.53778000  0.44789000  1.0 -0.2770759947
O  O107  1  0.44789000  0.47422000  0.53778000  1.0 -0.2770759947
O  O108  1  0.05211000  0.52578000  0.03778000  1.0 -0.2770759947
O  O109  1  0.97422000  0.96222000  0.55211000  1.0 -0.2770759947
O  O110  1  0.55211000  0.97422000  0.96222000  1.0 -0.2770759947
O  O111  1  0.02578000  0.46222000  0.94789000  1.0 -0.2770759947
O  O112  1  0.52578000  0.03778000  0.05211000  1.0 -0.2770759947
O  O113  1  0.94789000  0.02578000  0.46222000  1.0 -0.274905032
O  O114  1  0.96222000  0.55211000  0.97422000  1.0 -0.2770759947
O  O115  1  0.03778000  0.05211000  0.52578000  1.0 -0.2770759947
O  O116  1  0.46222000  0.94789000  0.02578000  1.0 -0.2770759947
O  O117  1  0.46222000  0.55211000  0.52578000  1.0 -0.2770759947
O  O118  1  0.52578000  0.46222000  0.55211000  1.0 -0.2770759947
O  O119  1  0.55211000  0.52578000  0.46222000  1.0 -0.2770759947
O  O120  1  0.94789000  0.47422000  0.96222000  1.0 -0.2770759947
O  O121  1  0.02578000  0.03778000  0.44789000  1.0 -0.2770759947
O  O122  1  0.44789000  0.02578000  0.03778000  1.0 -0.2770759947
O  O123  1  0.97422000  0.53778000  0.05211000  1.0 -0.2770759947
O  O124  1  0.47422000  0.96222000  0.94789000  1.0 -0.2770759947
O  O125  1  0.05211000  0.97422000  0.53778000  1.0 -0.2770759947
O  O126  1  0.03778000  0.44789000  0.02578000  1.0 -0.2770759947
O  O127  1  0.96222000  0.94789000  0.47422000  1.0 -0.2770759947
O  O128  1  0.53778000  0.05211000  0.97422000  1.0 -0.2770759947
O  O129  1  0.36840000  0.51070000  0.40870000  1.0 -0.3800165168
O  O130  1  0.40870000  0.36840000  0.51070000  1.0 -0.3800165168
O  O131  1  0.51070000  0.40870000  0.36840000  1.0 -0.3800165168
O  O132  1  0.98930000  0.59130000  0.86840000  1.0 -0.3800165168
O  O133  1  0.90870000  0.13160000  0.48930000  1.0 -0.3800165168
O  O134  1  0.48930000  0.90870000  0.13160000  1.0 -0.3800165168
O  O135  1  0.09130000  0.63160000  0.01070000  1.0 -0.3800165168
O  O136  1  0.59130000  0.86840000  0.98930000  1.0 -0.3800165168
O  O137  1  0.01070000  0.09130000  0.63160000  1.0 -0.3800165168
O  O138  1  0.13160000  0.48930000  0.90870000  1.0 -0.3800165168
O  O139  1  0.86840000  0.98930000  0.59130000  1.0 -0.3800165168
O  O140  1  0.63160000  0.01070000  0.09130000  1.0 -0.3800165168
O  O141  1  0.63160000  0.48930000  0.59130000  1.0 -0.3800165168
O  O142  1  0.59130000  0.63160000  0.48930000  1.0 -0.3800165168
O  O143  1  0.48930000  0.59130000  0.63160000  1.0 -0.3800165168
O  O144  1  0.01070000  0.40870000  0.13160000  1.0 -0.3800165168
O  O145  1  0.09130000  0.86840000  0.51070000  1.0 -0.3800165168
O  O146  1  0.51070000  0.09130000  0.86840000  1.0 -0.3800165168
O  O147  1  0.90870000  0.36840000  0.98930000  1.0 -0.3800165168
O  O148  1  0.40870000  0.13160000  0.01070000  1.0 -0.3800165168
O  O149  1  0.98930000  0.90870000  0.36840000  1.0 -0.3800165168
O  O150  1  0.86840000  0.51070000  0.09130000  1.0 -0.3800165168
O  O151  1  0.13160000  0.01070000  0.40870000  1.0 -0.3800165168
O  O152  1  0.36840000  0.98930000  0.90870000  1.0 -0.3800165168
O  O153  1  0.45200000  0.49460000  0.35300000  1.0 -0.5661578214
O  O154  1  0.35300000  0.45200000  0.49460000  1.0 -0.5661578214
O  O155  1  0.49460000  0.35300000  0.45200000  1.0 -0.5661578214
O  O156  1  0.00540000  0.64700000  0.95200000  1.0 -0.5661578214
O  O157  1  0.85300000  0.04800000  0.50540000  1.0 -0.5661578214
O  O158  1  0.50540000  0.85300000  0.04800000  1.0 -0.5661578214
O  O159  1  0.14700000  0.54800000  0.99460000  1.0 -0.5661578214
O  O160  1  0.64700000  0.95200000  0.00540000  1.0 -0.5661578214
O  O161  1  0.99460000  0.14700000  0.54800000  1.0 -0.5661578214
O  O162  1  0.04800000  0.50540000  0.85300000  1.0 -0.5661578214
O  O163  1  0.95200000  0.00540000  0.64700000  1.0 -0.5661578214
O  O164  1  0.54800000  0.99460000  0.14700000  1.0 -0.5661578214
O  O165  1  0.54800000  0.50540000  0.64700000  1.0 -0.5661578214
O  O166  1  0.64700000  0.54800000  0.50540000  1.0 -0.5661578214
O  O167  1  0.50540000  0.64700000  0.54800000  1.0 -0.5661578214
O  O168  1  0.99460000  0.35300000  0.04800000  1.0 -0.5661578214
O  O169  1  0.14700000  0.95200000  0.49460000  1.0 -0.5661578214
O  O170  1  0.49460000  0.14700000  0.95200000  1.0 -0.5661578214
O  O171  1  0.85300000  0.45200000  0.00540000  1.0 -0.5661578214
O  O172  1  0.35300000  0.04800000  0.99460000  1.0 -0.5661578214
O  O173  1  0.00540000  0.85300000  0.45200000  1.0 -0.5661578214
O  O174  1  0.95200000  0.49460000  0.14700000  1.0 -0.5661578214
O  O175  1  0.04800000  0.99460000  0.35300000  1.0 -0.5661578214
O  O176  1  0.45200000  0.00540000  0.85300000  1.0 -0.5661578214
O  O177  1  0.08700000  0.46450000  0.13020000  1.0 -0.4566423538
O  O178  1  0.13020000  0.08700000  0.46450000  1.0 -0.4566423538
O  O179  1  0.46450000  0.13020000  0.08700000  1.0 -0.4566423538
O  O180  1  0.03550000  0.86980000  0.58700000  1.0 -0.4566423538
O  O181  1  0.63020000  0.41300000  0.53550000  1.0 -0.4566423538
O  O182  1  0.53550000  0.63020000  0.41300000  1.0 -0.4566423538
O  O183  1  0.36980000  0.91300000  0.96450000  1.0 -0.4566423538
O  O184  1  0.86980000  0.58700000  0.03550000  1.0 -0.4566423538
O  O185  1  0.96450000  0.36980000  0.91300000  1.0 -0.4566423538
O  O186  1  0.41300000  0.53550000  0.63020000  1.0 -0.4566423538
O  O187  1  0.58700000  0.03550000  0.86980000  1.0 -0.4566423538
O  O188  1  0.91300000  0.96450000  0.36980000  1.0 -0.4566423538
O  O189  1  0.91300000  0.53550000  0.86980000  1.0 -0.4566423538
O  O190  1  0.86980000  0.91300000  0.53550000  1.0 -0.4566423538
O  O191  1  0.53550000  0.86980000  0.91300000  1.0 -0.4566423538
O  O192  1  0.96450000  0.13020000  0.41300000  1.0 -0.4566423538
O  O193  1  0.36980000  0.58700000  0.46450000  1.0 -0.4566423538
O  O194  1  0.46450000  0.36980000  0.58700000  1.0 -0.4566423538
O  O195  1  0.63020000  0.08700000  0.03550000  1.0 -0.4566423538
O  O196  1  0.13020000  0.41300000  0.96450000  1.0 -0.4566423538
O  O197  1  0.03550000  0.63020000  0.08700000  1.0 -0.4566423538
O  O198  1  0.58700000  0.46450000  0.36980000  1.0 -0.4566423538
O  O199  1  0.41300000  0.96450000  0.13020000  1.0 -0.4566423538
O  O200  1  0.08700000  0.03550000  0.63020000  1.0 -0.4566423538
O  O201  1  0.15390000  0.46850000  0.04210000  1.0 -0.4504859011
O  O202  1  0.04210000  0.15390000  0.46850000  1.0 -0.4504859011
O  O203  1  0.46850000  0.04210000  0.15390000  1.0 -0.4504859011
O  O204  1  0.03150000  0.95790000  0.65390000  1.0 -0.4504859011
O  O205  1  0.54210000  0.34610000  0.53150000  1.0 -0.4504859011
O  O206  1  0.53150000  0.54210000  0.34610000  1.0 -0.4504859011
O  O207  1  0.45790000  0.84610000  0.96850000  1.0 -0.4504859011
O  O208  1  0.95790000  0.65390000  0.03150000  1.0 -0.4504859011
O  O209  1  0.96850000  0.45790000  0.84610000  1.0 -0.4504859011
O  O210  1  0.34610000  0.53150000  0.54210000  1.0 -0.4504859011
O  O211  1  0.65390000  0.03150000  0.95790000  1.0 -0.4504859011
O  O212  1  0.84610000  0.96850000  0.45790000  1.0 -0.4504859011
O  O213  1  0.84610000  0.53150000  0.95790000  1.0 -0.4504859011
O  O214  1  0.95790000  0.84610000  0.53150000  1.0 -0.4504859011
O  O215  1  0.53150000  0.95790000  0.84610000  1.0 -0.4504859011
O  O216  1  0.96850000  0.04210000  0.34610000  1.0 -0.4504859011
O  O217  1  0.45790000  0.65390000  0.46850000  1.0 -0.4504859011
O  O218  1  0.46850000  0.45790000  0.65390000  1.0 -0.4504859011
O  O219  1  0.54210000  0.15390000  0.03150000  1.0 -0.4504859011
O  O220  1  0.04210000  0.34610000  0.96850000  1.0 -0.4504859011
O  O221  1  0.03150000  0.54210000  0.15390000  1.0 -0.4504859011
O  O222  1  0.65390000  0.46850000  0.45790000  1.0 -0.4504859011
O  O223  1  0.34610000  0.96850000  0.04210000  1.0 -0.4504859011
O  O224  1  0.15390000  0.03150000  0.54210000  1.0 -0.4504859011
O  O225  1  0.44607000  0.44607000  0.44607000  1.0 -0.1220065025
O  O226  1  0.05393000  0.55393000  0.94607000  1.0 -0.1220065025
O  O227  1  0.94607000  0.05393000  0.55393000  1.0 -0.1220065025
O  O228  1  0.55393000  0.94607000  0.05393000  1.0 -0.1220065025
O  O229  1  0.55393000  0.55393000  0.55393000  1.0 -0.1220065025
O  O230  1  0.94607000  0.44607000  0.05393000  1.0 -0.1220065025
O  O231  1  0.05393000  0.94607000  0.44607000  1.0 -0.1220065025
O  O232  1  0.44607000  0.05393000  0.94607000  1.0 -0.1220065025
O  O233  1  0.55105000  0.43034000  0.46566000  1.0 -0.1393697234
O  O234  1  0.46566000  0.55105000  0.43034000  1.0 -0.1393697234
O  O235  1  0.43034000  0.46566000  0.55105000  1.0 -0.1393697234
O  O236  1  0.06966000  0.53434000  0.05105000  1.0 -0.1393697234
O  O237  1  0.96566000  0.94895000  0.56966000  1.0 -0.1393697234
O  O238  1  0.56966000  0.96566000  0.94895000  1.0 -0.1393697234
O  O239  1  0.03434000  0.44895000  0.93034000  1.0 -0.1393697234
O  O240  1  0.53434000  0.05105000  0.06966000  1.0 -0.1393697234
O  O241  1  0.93034000  0.03434000  0.44895000  1.0 -0.1393697234
O  O242  1  0.94895000  0.56966000  0.96566000  1.0 -0.1393697234
O  O243  1  0.05105000  0.06966000  0.53434000  1.0 -0.1393697234
O  O244  1  0.44895000  0.93034000  0.03434000  1.0 -0.1393697234
O  O245  1  0.44895000  0.56966000  0.53434000  1.0 -0.1393697234
O  O246  1  0.53434000  0.44895000  0.56966000  1.0 -0.1393697234
O  O247  1  0.56966000  0.53434000  0.44895000  1.0 -0.1393697234
O  O248  1  0.93034000  0.46566000  0.94895000  1.0 -0.1393697234
O  O249  1  0.03434000  0.05105000  0.43034000  1.0 -0.1393697234
O  O250  1  0.43034000  0.03434000  0.05105000  1.0 -0.1393697234
O  O251  1  0.96566000  0.55105000  0.06966000  1.0 -0.1393697234
O  O252  1  0.46566000  0.94895000  0.93034000  1.0 -0.1393697234
O  O253  1  0.06966000  0.96566000  0.55105000  1.0 -0.1393697234
O  O254  1  0.05105000  0.43034000  0.03434000  1.0 -0.1393697234
O  O255  1  0.94895000  0.93034000  0.46566000  1.0 -0.1393697234
O  O256  1  0.55105000  0.06966000  0.96566000  1.0 -0.1393697234
