# DDEC6 charges by PACMAN v1.1 (https://github.com/mtap-research/PACMAN-charge/)
data_QUSBIP_FSR_pacman
_symmetry_space_group_name_H-M   'P 1'
_cell_length_a   20.33000000
_cell_length_b   23.16920000
_cell_length_c   32.00810000
_cell_angle_alpha   90.00000000
_cell_angle_beta   90.00000000
_cell_angle_gamma   90.00000000
_symmetry_Int_Tables_number   1
_chemical_formula_structural   Zn4H36C68(N2O5)3
_chemical_formula_sum   'Zn16 H144 C272 N24 O60'
_cell_volume   15076.77009367
_cell_formula_units_Z   4
loop_
 _symmetry_equiv_pos_site_id
 _symmetry_equiv_pos_as_xyz
  1  'x, y, z'
loop_
 _atom_site_type_symbol
 _atom_site_label
 _atom_site_symmetry_multiplicity
 _atom_site_fract_x
 _atom_site_fract_y
 _atom_site_fract_z
 _atom_site_occupancy
 _atom_site_charge
Zn  Zn1  1  0.82710000  0.52589000  0.49849000  1.0 0.9407954112
Zn  Zn2  1  0.67290000  0.47411000  0.99849000  1.0 0.9407954112
Zn  Zn3  1  0.17290000  0.02589000  0.00151000  1.0 0.9407954112
Zn  Zn4  1  0.32710000  0.97411000  0.50151000  1.0 0.9460041365
Zn  Zn5  1  0.70814000  0.48447000  0.55030000  1.0 0.9407954112
Zn  Zn6  1  0.79186000  0.51553000  0.05030000  1.0 0.9407954112
Zn  Zn7  1  0.29186000  0.98447000  0.94970000  1.0 0.9407954112
Zn  Zn8  1  0.20814000  0.01553000  0.44970000  1.0 0.9407954112
Zn  Zn9  1  0.74626000  0.41164000  0.46715000  1.0 1.0202540001
Zn  Zn10  1  0.75374000  0.58836000  0.96715000  1.0 1.0202540001
Zn  Zn11  1  0.25374000  0.91164000  0.03285000  1.0 1.0202540001
Zn  Zn12  1  0.24626000  0.08836000  0.53285000  1.0 1.0202540001
Zn  Zn13  1  0.68622000  0.54218000  0.46486000  1.0 0.9407954112
Zn  Zn14  1  0.81378000  0.45782000  0.96486000  1.0 0.9407954112
Zn  Zn15  1  0.31378000  0.04218000  0.03514000  1.0 0.9407954112
Zn  Zn16  1  0.18622000  0.95782000  0.53514000  1.0 0.9407954112
H  H1  1  0.13740000  0.43070000  0.25380000  1.0 0.1301230439
H  H2  1  0.36260000  0.56930000  0.75380000  1.0 0.1301230439
H  H3  1  0.86260000  0.93070000  0.24620000  1.0 0.1301230439
H  H4  1  0.63740000  0.06930000  0.74620000  1.0 0.1301230439
H  H5  1  0.07580000  0.39910000  0.31100000  1.0 0.1372644484
H  H6  1  0.42420000  0.60090000  0.81100000  1.0 0.1372644484
H  H7  1  0.92420000  0.89910000  0.18900000  1.0 0.1372644484
H  H8  1  0.57580000  0.10090000  0.68900000  1.0 0.1372644484
H  H9  1  0.24370000  0.34910000  0.36720000  1.0 0.1372644484
H  H10  1  0.25630000  0.65090000  0.86720000  1.0 0.1372644484
H  H11  1  0.75630000  0.84910000  0.13280000  1.0 0.1372644484
H  H12  1  0.74370000  0.15090000  0.63280000  1.0 0.1372644484
H  H13  1  0.30130000  0.37460000  0.31000000  1.0 0.1372644484
H  H14  1  0.19870000  0.62540000  0.81000000  1.0 0.1301230439
H  H15  1  0.69870000  0.87460000  0.19000000  1.0 0.1301230439
H  H16  1  0.80130000  0.12540000  0.69000000  1.0 0.1301230439
H  H17  1  0.09720000  0.45550000  0.39950000  1.0 0.1301230439
H  H18  1  0.40280000  0.54450000  0.89950000  1.0 0.1301230439
H  H19  1  0.90280000  0.95550000  0.10050000  1.0 0.1301230439
H  H20  1  0.59720000  0.04450000  0.60050000  1.0 0.1301230439
H  H21  1  0.00220000  0.49920000  0.42370000  1.0 0.1301230439
H  H22  1  0.49780000  0.50080000  0.92370000  1.0 0.1301230439
H  H23  1  0.99780000  0.99920000  0.07630000  1.0 0.1301230439
H  H24  1  0.50220000  0.00080000  0.57630000  1.0 0.1301230439
H  H25  1  0.89920000  0.35140000  0.40850000  1.0 0.1301230439
H  H26  1  0.60080000  0.64860000  0.90850000  1.0 0.1301230439
H  H27  1  0.10080000  0.85140000  0.09150000  1.0 0.1301230439
H  H28  1  0.39920000  0.14860000  0.59150000  1.0 0.1301230439
H  H29  1  0.99760000  0.30620000  0.38730000  1.0 0.1372644484
H  H30  1  0.50240000  0.69380000  0.88730000  1.0 0.1372644484
H  H31  1  0.00240000  0.80620000  0.11270000  1.0 0.1372644484
H  H32  1  0.49760000  0.19380000  0.61270000  1.0 0.1372644484
H  H33  1  0.10130000  0.31320000  0.45620000  1.0 0.1301230439
H  H34  1  0.39870000  0.68680000  0.95620000  1.0 0.1301230439
H  H35  1  0.89870000  0.81320000  0.04380000  1.0 0.1301230439
H  H36  1  0.60130000  0.18680000  0.54380000  1.0 0.1301230439
H  H37  1  0.12700000  0.22610000  0.48520000  1.0 0.1301230439
H  H38  1  0.37300000  0.77390000  0.98520000  1.0 0.1301230439
H  H39  1  0.87300000  0.72610000  0.01480000  1.0 0.1301230439
H  H40  1  0.62700000  0.27390000  0.51480000  1.0 0.1301230439
H  H41  1  0.19100000  0.16680000  0.37350000  1.0 0.1222014222
H  H42  1  0.30900000  0.83320000  0.87350000  1.0 0.1222014222
H  H43  1  0.80900000  0.66680000  0.12650000  1.0 0.1222014222
H  H44  1  0.69100000  0.33320000  0.62650000  1.0 0.1222014222
H  H45  1  0.16100000  0.25260000  0.34230000  1.0 0.1301230439
H  H46  1  0.33900000  0.74740000  0.84230000  1.0 0.1301230439
H  H47  1  0.83900000  0.75260000  0.15770000  1.0 0.1301230439
H  H48  1  0.66100000  0.24740000  0.65770000  1.0 0.1301230439
H  H49  1  0.33760000  0.49080000  0.28290000  1.0 0.1372644484
H  H50  1  0.16240000  0.50920000  0.78290000  1.0 0.1372644484
H  H51  1  0.66240000  0.99080000  0.21710000  1.0 0.1372644484
H  H52  1  0.83760000  0.00920000  0.71710000  1.0 0.1372644484
H  H53  1  0.45090000  0.49470000  0.28420000  1.0 0.1372644484
H  H54  1  0.04910000  0.50530000  0.78420000  1.0 0.1372644484
H  H55  1  0.54910000  0.99470000  0.21580000  1.0 0.1372644484
H  H56  1  0.95090000  0.00530000  0.71580000  1.0 0.1372644484
H  H57  1  0.46250000  0.36850000  0.19970000  1.0 0.1301230439
H  H58  1  0.03750000  0.63150000  0.69970000  1.0 0.1301230439
H  H59  1  0.53750000  0.86850000  0.30030000  1.0 0.1301230439
H  H60  1  0.96250000  0.13150000  0.80030000  1.0 0.1301230439
H  H61  1  0.34810000  0.36050000  0.19860000  1.0 0.1301230439
H  H62  1  0.15190000  0.63950000  0.69860000  1.0 0.1301230439
H  H63  1  0.65190000  0.86050000  0.30140000  1.0 0.1301230439
H  H64  1  0.84810000  0.13950000  0.80140000  1.0 0.1301230439
H  H65  1  0.60460000  0.52490000  0.26640000  1.0 0.1301230439
H  H66  1  0.89540000  0.47510000  0.76640000  1.0 0.1301230439
H  H67  1  0.39540000  0.02490000  0.23360000  1.0 0.1301230439
H  H68  1  0.10460000  0.97510000  0.73360000  1.0 0.1301230439
H  H69  1  0.65750000  0.53910000  0.33110000  1.0 0.1301230439
H  H70  1  0.84250000  0.46090000  0.83110000  1.0 0.1301230439
H  H71  1  0.34250000  0.03910000  0.16890000  1.0 0.1301230439
H  H72  1  0.15750000  0.96090000  0.66890000  1.0 0.1301230439
H  H73  1  0.59910000  0.38260000  0.36750000  1.0 0.1301230439
H  H74  1  0.90090000  0.61740000  0.86750000  1.0 0.1301230439
H  H75  1  0.40090000  0.88260000  0.13250000  1.0 0.1301230439
H  H76  1  0.09910000  0.11740000  0.63250000  1.0 0.1301230439
H  H77  1  0.54480000  0.36770000  0.30490000  1.0 0.1372644484
H  H78  1  0.95520000  0.63230000  0.80490000  1.0 0.1372644484
H  H79  1  0.45520000  0.86770000  0.19510000  1.0 0.1372644484
H  H80  1  0.04480000  0.13230000  0.69510000  1.0 0.1372644484
H  H81  1  0.66220000  0.42350000  0.22360000  1.0 0.1372644484
H  H82  1  0.83780000  0.57650000  0.72360000  1.0 0.1372644484
H  H83  1  0.33780000  0.92350000  0.27640000  1.0 0.1372644484
H  H84  1  0.16220000  0.07650000  0.77640000  1.0 0.1372644484
H  H85  1  0.71590000  0.44050000  0.16260000  1.0 0.1222014222
H  H86  1  0.78410000  0.55950000  0.66260000  1.0 0.1222014222
H  H87  1  0.28410000  0.94050000  0.33740000  1.0 0.1222014222
H  H88  1  0.21590000  0.05950000  0.83740000  1.0 0.1301230439
H  H89  1  0.54530000  0.47890000  0.10560000  1.0 0.1301230439
H  H90  1  0.95470000  0.52110000  0.60560000  1.0 0.1301230439
H  H91  1  0.45470000  0.97890000  0.39440000  1.0 0.1301230439
H  H92  1  0.04530000  0.02110000  0.89440000  1.0 0.1301230439
H  H93  1  0.49040000  0.46830000  0.16840000  1.0 0.1301230439
H  H94  1  0.00960000  0.53170000  0.66840000  1.0 0.1301230439
H  H95  1  0.50960000  0.96830000  0.33160000  1.0 0.1301230439
H  H96  1  0.99040000  0.03170000  0.83160000  1.0 0.1301230439
H  H97  1  0.20150000  0.32820000  0.21500000  1.0 0.1301230439
H  H98  1  0.29850000  0.67180000  0.71500000  1.0 0.1301230439
H  H99  1  0.79850000  0.82820000  0.28500000  1.0 0.1301230439
H  H100  1  0.70150000  0.17180000  0.78500000  1.0 0.1301230439
H  H101  1  0.15850000  0.30540000  0.14800000  1.0 0.1372644484
H  H102  1  0.34150000  0.69460000  0.64800000  1.0 0.1372644484
H  H103  1  0.84150000  0.80540000  0.35200000  1.0 0.1372644484
H  H104  1  0.65850000  0.19460000  0.85200000  1.0 0.1372644484
H  H105  1  0.22050000  0.45960000  0.10590000  1.0 0.1372644484
H  H106  1  0.27950000  0.54040000  0.60590000  1.0 0.1372644484
H  H107  1  0.77950000  0.95960000  0.39410000  1.0 0.1372644484
H  H108  1  0.72050000  0.04040000  0.89410000  1.0 0.1372644484
H  H109  1  0.25670000  0.48510000  0.17260000  1.0 0.1372644484
H  H110  1  0.24330000  0.51490000  0.67260000  1.0 0.1372644484
H  H111  1  0.74330000  0.98510000  0.32740000  1.0 0.1372644484
H  H112  1  0.75670000  0.01490000  0.82740000  1.0 0.1372644484
H  H113  1  0.08200000  0.28660000  0.04930000  1.0 0.1301230439
H  H114  1  0.41800000  0.71340000  0.54930000  1.0 0.1301230439
H  H115  1  0.91800000  0.78660000  0.45070000  1.0 0.1301230439
H  H116  1  0.58200000  0.21340000  0.95070000  1.0 0.1301230439
H  H117  1  0.11050000  0.19440000  0.02820000  1.0 0.1301230439
H  H118  1  0.38950000  0.80560000  0.52820000  1.0 0.1301230439
H  H119  1  0.88950000  0.69440000  0.47180000  1.0 0.1301230439
H  H120  1  0.61050000  0.30560000  0.97180000  1.0 0.1301230439
H  H121  1  0.30020000  0.22440000  0.05390000  1.0 0.1301230439
H  H122  1  0.19980000  0.77560000  0.55390000  1.0 0.1301230439
H  H123  1  0.69980000  0.72440000  0.44610000  1.0 0.1301230439
H  H124  1  0.80020000  0.27560000  0.94610000  1.0 0.1301230439
H  H125  1  0.27530000  0.31830000  0.07390000  1.0 0.1301230439
H  H126  1  0.22470000  0.68170000  0.57390000  1.0 0.1301230439
H  H127  1  0.72470000  0.81830000  0.42610000  1.0 0.1301230439
H  H128  1  0.77530000  0.18170000  0.92610000  1.0 0.1301230439
H  H129  1  0.11600000  0.38080000  0.00510000  1.0 0.1301230439
H  H130  1  0.38400000  0.61920000  0.50510000  1.0 0.1301230439
H  H131  1  0.88400000  0.88080000  0.49490000  1.0 0.1301230439
H  H132  1  0.61600000  0.11920000  0.99490000  1.0 0.1301230439
H  H133  1  0.01470000  0.41520000  0.98400000  1.0 0.1222014222
H  H134  1  0.48530000  0.58480000  0.48400000  1.0 0.1222014222
H  H135  1  0.98530000  0.91520000  0.51600000  1.0 0.1222014222
H  H136  1  0.51470000  0.08480000  0.01600000  1.0 0.1222014222
H  H137  1  0.97250000  0.46180000  0.10250000  1.0 0.1222014222
H  H138  1  0.52750000  0.53820000  0.60250000  1.0 0.1222014222
H  H139  1  0.02750000  0.96180000  0.39750000  1.0 0.1222014222
H  H140  1  0.47250000  0.03820000  0.89750000  1.0 0.1222014222
H  H141  1  0.07430000  0.42560000  0.12430000  1.0 0.1301230439
H  H142  1  0.42570000  0.57440000  0.62430000  1.0 0.1301230439
H  H143  1  0.92570000  0.92560000  0.37570000  1.0 0.1301230439
H  H144  1  0.57430000  0.07440000  0.87570000  1.0 0.1301230439
C  C1  1  0.22560000  0.40640000  0.27650000  1.0 0.1301230439
C  C2  1  0.27440000  0.59360000  0.77650000  1.0 0.1301230439
C  C3  1  0.77440000  0.90640000  0.22350000  1.0 0.1301230439
C  C4  1  0.72560000  0.09360000  0.72350000  1.0 0.1301230439
C  C5  1  0.15890000  0.41310000  0.27690000  1.0 -0.1689605525
C  C6  1  0.34110000  0.58690000  0.77690000  1.0 -0.1689605525
C  C7  1  0.84110000  0.91310000  0.22310000  1.0 -0.1689605525
C  C8  1  0.65890000  0.08690000  0.72310000  1.0 -0.1689605525
C  C9  1  0.12220000  0.39430000  0.31120000  1.0 -0.1689605525
C  C10  1  0.37780000  0.60570000  0.81120000  1.0 -0.1689605525
C  C11  1  0.87780000  0.89430000  0.18880000  1.0 -0.1689605525
C  C12  1  0.62220000  0.10570000  0.68880000  1.0 -0.1689605525
C  C13  1  0.15140000  0.36910000  0.34490000  1.0 0.1372644484
C  C14  1  0.34860000  0.63090000  0.84490000  1.0 0.1372644484
C  C15  1  0.84860000  0.86910000  0.15510000  1.0 0.1458950555
C  C16  1  0.65140000  0.13090000  0.65510000  1.0 0.1372644484
C  C17  1  0.22110000  0.36430000  0.34370000  1.0 -0.1491067667
C  C18  1  0.27890000  0.63570000  0.84370000  1.0 -0.1491067667
C  C19  1  0.77890000  0.86430000  0.15630000  1.0 -0.1491067667
C  C20  1  0.72110000  0.13570000  0.65630000  1.0 -0.1491067667
C  C21  1  0.25510000  0.38070000  0.31040000  1.0 -0.1606662439
C  C22  1  0.24490000  0.61930000  0.81040000  1.0 -0.1606662439
C  C23  1  0.74490000  0.88070000  0.18960000  1.0 -0.1606662439
C  C24  1  0.75510000  0.11930000  0.68960000  1.0 -0.1606662439
C  C25  1  0.05530000  0.37530000  0.39080000  1.0 0.1609258885
C  C26  1  0.44470000  0.62470000  0.89080000  1.0 0.1609258885
C  C27  1  0.94470000  0.87530000  0.10920000  1.0 0.1609258885
C  C28  1  0.55530000  0.12470000  0.60920000  1.0 0.1609258885
C  C29  1  0.05750000  0.43410000  0.40180000  1.0 -0.1780663654
C  C30  1  0.44250000  0.56590000  0.90180000  1.0 -0.1780663654
C  C31  1  0.94250000  0.93410000  0.09820000  1.0 -0.1780663654
C  C32  1  0.55750000  0.06590000  0.59820000  1.0 -0.1780663654
C  C33  1  0.00090000  0.45970000  0.41580000  1.0 -0.0704984986
C  C34  1  0.49910000  0.54030000  0.91580000  1.0 -0.0704984986
C  C35  1  0.99910000  0.95970000  0.08420000  1.0 -0.0704984986
C  C36  1  0.50090000  0.04030000  0.58420000  1.0 -0.0704984986
C  C37  1  0.94270000  0.43070000  0.41880000  1.0 -0.0434404882
C  C38  1  0.55730000  0.56930000  0.91880000  1.0 -0.0434404882
C  C39  1  0.05730000  0.93070000  0.08120000  1.0 -0.0434404882
C  C40  1  0.44270000  0.06930000  0.58120000  1.0 -0.0434404882
C  C41  1  0.93940000  0.37230000  0.40740000  1.0 -0.0704984986
C  C42  1  0.56060000  0.62770000  0.90740000  1.0 -0.0704984986
C  C43  1  0.06060000  0.87230000  0.09260000  1.0 -0.0704984986
C  C44  1  0.43940000  0.12770000  0.59260000  1.0 -0.0704984986
C  C45  1  0.99810000  0.34610000  0.39410000  1.0 -0.1780663654
C  C46  1  0.50190000  0.65390000  0.89410000  1.0 -0.1780663654
C  C47  1  0.00190000  0.84610000  0.10590000  1.0 -0.1780663654
C  C48  1  0.49810000  0.15390000  0.60590000  1.0 -0.1780663654
C  C49  1  0.12900000  0.29370000  0.39580000  1.0 0.2202744028
C  C50  1  0.37100000  0.70630000  0.89580000  1.0 0.2202744028
C  C51  1  0.87100000  0.79370000  0.10420000  1.0 0.2202744028
C  C52  1  0.62900000  0.20630000  0.60420000  1.0 0.2202744028
C  C53  1  0.11900000  0.28350000  0.43910000  1.0 -0.1997605255
C  C54  1  0.38100000  0.71650000  0.93910000  1.0 -0.1997605255
C  C55  1  0.88100000  0.78350000  0.06090000  1.0 -0.1997605255
C  C56  1  0.61900000  0.21650000  0.56090000  1.0 -0.1997605255
C  C57  1  0.13460000  0.23190000  0.45620000  1.0 -0.0619421946
C  C58  1  0.36540000  0.76810000  0.95620000  1.0 -0.0619421946
C  C59  1  0.86540000  0.73190000  0.04380000  1.0 -0.0619421946
C  C60  1  0.63460000  0.26810000  0.54380000  1.0 -0.0619421946
C  C61  1  0.16170000  0.18650000  0.43250000  1.0 -0.0493074572
C  C62  1  0.33830000  0.81350000  0.93250000  1.0 -0.0493074572
C  C63  1  0.83830000  0.68650000  0.06750000  1.0 -0.0493074572
C  C64  1  0.66170000  0.31350000  0.56750000  1.0 -0.0493074572
C  C65  1  0.17190000  0.19640000  0.39010000  1.0 -0.0704984986
C  C66  1  0.32810000  0.80360000  0.89010000  1.0 -0.0704984986
C  C67  1  0.82810000  0.69640000  0.10990000  1.0 -0.0704984986
C  C68  1  0.67190000  0.30360000  0.60990000  1.0 -0.0704984986
C  C69  1  0.15510000  0.24770000  0.37160000  1.0 -0.2091893731
C  C70  1  0.34490000  0.75230000  0.87160000  1.0 -0.2091893731
C  C71  1  0.84490000  0.74770000  0.12840000  1.0 -0.2091893731
C  C72  1  0.65510000  0.25230000  0.62840000  1.0 -0.2091893731
C  C73  1  0.33070000  0.42480000  0.24100000  1.0 0.1372644484
C  C74  1  0.16930000  0.57520000  0.74100000  1.0 0.1458950555
C  C75  1  0.66930000  0.92480000  0.25900000  1.0 0.1458950555
C  C76  1  0.83070000  0.07520000  0.75900000  1.0 0.1458950555
C  C77  1  0.36250000  0.46510000  0.26600000  1.0 -0.1606662439
C  C78  1  0.13750000  0.53490000  0.76600000  1.0 -0.1606662439
C  C79  1  0.63750000  0.96510000  0.23400000  1.0 -0.1606662439
C  C80  1  0.86250000  0.03490000  0.73400000  1.0 -0.1606662439
C  C81  1  0.42960000  0.46760000  0.26640000  1.0 -0.1689605525
C  C82  1  0.07040000  0.53240000  0.76640000  1.0 -0.1606662439
C  C83  1  0.57040000  0.96760000  0.23360000  1.0 -0.1689605525
C  C84  1  0.92960000  0.03240000  0.73360000  1.0 -0.1606662439
C  C85  1  0.46700000  0.43200000  0.24180000  1.0 0.1372644484
C  C86  1  0.03300000  0.56800000  0.74180000  1.0 0.1372644484
C  C87  1  0.53300000  0.93200000  0.25820000  1.0 0.1372644484
C  C88  1  0.96700000  0.06800000  0.75820000  1.0 0.1372644484
C  C89  1  0.43680000  0.39310000  0.21690000  1.0 -0.1606662439
C  C90  1  0.06320000  0.60690000  0.71690000  1.0 -0.1606662439
C  C91  1  0.56320000  0.89310000  0.28310000  1.0 -0.1606662439
C  C92  1  0.93680000  0.10690000  0.78310000  1.0 -0.1606662439
C  C93  1  0.36870000  0.38830000  0.21600000  1.0 -0.1689605525
C  C94  1  0.13130000  0.61170000  0.71600000  1.0 -0.1689605525
C  C95  1  0.63130000  0.88830000  0.28400000  1.0 -0.1689605525
C  C96  1  0.86870000  0.11170000  0.78400000  1.0 -0.1689605525
C  C97  1  0.57080000  0.44400000  0.28000000  1.0 0.1609258885
C  C98  1  0.92920000  0.55600000  0.78000000  1.0 0.1609258885
C  C99  1  0.42920000  0.94400000  0.22000000  1.0 0.1609258885
C  C100  1  0.07080000  0.05600000  0.72000000  1.0 0.1609258885
C  C101  1  0.60350000  0.49570000  0.28720000  1.0 -0.1895980844
C  C102  1  0.89650000  0.50430000  0.78720000  1.0 -0.1895980844
C  C103  1  0.39650000  0.99570000  0.21280000  1.0 -0.1895980844
C  C104  1  0.10350000  0.00430000  0.71280000  1.0 -0.1895980844
C  C105  1  0.63470000  0.50410000  0.32570000  1.0 -0.0812583054
C  C106  1  0.86530000  0.49590000  0.82570000  1.0 -0.0812583054
C  C107  1  0.36530000  0.00410000  0.17430000  1.0 -0.0812583054
C  C108  1  0.13470000  0.99590000  0.67430000  1.0 -0.0812583054
C  C109  1  0.63250000  0.46180000  0.35550000  1.0 -0.0434404882
C  C110  1  0.86750000  0.53820000  0.85550000  1.0 -0.0434404882
C  C111  1  0.36750000  0.96180000  0.14450000  1.0 -0.0434404882
C  C112  1  0.13250000  0.03820000  0.64450000  1.0 -0.0434404882
C  C113  1  0.59990000  0.41210000  0.34690000  1.0 -0.0812583054
C  C114  1  0.90010000  0.58790000  0.84690000  1.0 -0.0812583054
C  C115  1  0.40010000  0.91210000  0.15310000  1.0 -0.0812583054
C  C116  1  0.09990000  0.08790000  0.65310000  1.0 -0.0812583054
C  C117  1  0.56810000  0.40260000  0.30970000  1.0 -0.1780663654
C  C118  1  0.93190000  0.59740000  0.80970000  1.0 -0.1780663654
C  C119  1  0.43190000  0.90260000  0.19030000  1.0 -0.1780663654
C  C120  1  0.06810000  0.09740000  0.69030000  1.0 -0.1780663654
C  C121  1  0.56980000  0.44610000  0.20260000  1.0 0.1920394218
C  C122  1  0.93020000  0.55390000  0.70260000  1.0 0.1920394218
C  C123  1  0.43020000  0.94610000  0.29740000  1.0 0.1920394218
C  C124  1  0.06980000  0.05390000  0.79740000  1.0 0.1920394218
C  C125  1  0.63840000  0.43630000  0.19980000  1.0 -0.1780663654
C  C126  1  0.86160000  0.56370000  0.69980000  1.0 -0.1780663654
C  C127  1  0.36160000  0.93630000  0.30020000  1.0 -0.1780663654
C  C128  1  0.13840000  0.06370000  0.80020000  1.0 -0.1780663654
C  C129  1  0.66950000  0.44530000  0.16340000  1.0 -0.0704984986
C  C130  1  0.83050000  0.55470000  0.66340000  1.0 -0.0704984986
C  C131  1  0.33050000  0.94530000  0.33660000  1.0 -0.0704984986
C  C132  1  0.16950000  0.05470000  0.83660000  1.0 -0.0704984986
C  C133  1  0.63780000  0.46090000  0.12750000  1.0 -0.0704984986
C  C134  1  0.86220000  0.53910000  0.62750000  1.0 -0.0704984986
C  C135  1  0.36220000  0.96090000  0.37250000  1.0 -0.0704984986
C  C136  1  0.13780000  0.03910000  0.87250000  1.0 -0.0704984986
C  C137  1  0.56920000  0.46880000  0.13000000  1.0 -0.0704984986
C  C138  1  0.93080000  0.53120000  0.63000000  1.0 -0.0704984986
C  C139  1  0.43080000  0.96880000  0.37000000  1.0 -0.0704984986
C  C140  1  0.06920000  0.03120000  0.87000000  1.0 -0.0704984986
C  C141  1  0.53650000  0.46190000  0.16720000  1.0 -0.1997605255
C  C142  1  0.96350000  0.53810000  0.66720000  1.0 -0.1997605255
C  C143  1  0.46350000  0.96190000  0.33280000  1.0 -0.1997605255
C  C144  1  0.03650000  0.03810000  0.83280000  1.0 -0.1997605255
C  C145  1  0.23290000  0.40990000  0.19980000  1.0 0.1301230439
C  C146  1  0.26710000  0.59010000  0.69980000  1.0 0.1301230439
C  C147  1  0.76710000  0.90990000  0.30020000  1.0 0.1301230439
C  C148  1  0.73290000  0.09010000  0.80020000  1.0 0.1301230439
C  C149  1  0.20410000  0.35550000  0.19290000  1.0 -0.1689605525
C  C150  1  0.29590000  0.64450000  0.69290000  1.0 -0.1689605525
C  C151  1  0.79590000  0.85550000  0.30710000  1.0 -0.1689605525
C  C152  1  0.70410000  0.14450000  0.80710000  1.0 -0.1689605525
C  C153  1  0.17910000  0.34160000  0.15300000  1.0 -0.1689605525
C  C154  1  0.32090000  0.65840000  0.65300000  1.0 -0.1689605525
C  C155  1  0.82090000  0.84160000  0.34700000  1.0 -0.1689605525
C  C156  1  0.67910000  0.15840000  0.84700000  1.0 -0.1689605525
C  C157  1  0.18520000  0.38120000  0.12190000  1.0 0.1222014222
C  C158  1  0.31480000  0.61880000  0.62190000  1.0 0.1222014222
C  C159  1  0.81480000  0.88120000  0.37810000  1.0 0.1222014222
C  C160  1  0.68520000  0.11880000  0.87810000  1.0 0.1222014222
C  C161  1  0.21520000  0.43340000  0.12850000  1.0 -0.1606662439
C  C162  1  0.28480000  0.56660000  0.62850000  1.0 -0.1606662439
C  C163  1  0.78480000  0.93340000  0.37150000  1.0 -0.1606662439
C  C164  1  0.71520000  0.06660000  0.87150000  1.0 -0.1606662439
C  C165  1  0.23780000  0.44820000  0.16790000  1.0 -0.1689605525
C  C166  1  0.26220000  0.55180000  0.66790000  1.0 -0.1689605525
C  C167  1  0.76220000  0.94820000  0.33210000  1.0 -0.1689605525
C  C168  1  0.73780000  0.05180000  0.83210000  1.0 -0.1689605525
C  C169  1  0.17500000  0.31230000  0.06520000  1.0 0.197886697
C  C170  1  0.32500000  0.68770000  0.56520000  1.0 0.197886697
C  C171  1  0.82500000  0.81230000  0.43480000  1.0 0.197886697
C  C172  1  0.67500000  0.18770000  0.93480000  1.0 0.197886697
C  C173  1  0.12660000  0.27450000  0.05060000  1.0 -0.2091893731
C  C174  1  0.37340000  0.72550000  0.55060000  1.0 -0.2091893731
C  C175  1  0.87340000  0.77450000  0.44940000  1.0 -0.2091893731
C  C176  1  0.62660000  0.22550000  0.94940000  1.0 -0.2091893731
C  C177  1  0.14370000  0.21970000  0.03820000  1.0 -0.0812583054
C  C178  1  0.35630000  0.78030000  0.53820000  1.0 -0.0812583054
C  C179  1  0.85630000  0.71970000  0.46180000  1.0 -0.0812583054
C  C180  1  0.64370000  0.28030000  0.96180000  1.0 -0.0812583054
C  C181  1  0.20830000  0.20040000  0.03990000  1.0 -0.0493074572
C  C182  1  0.29170000  0.79960000  0.53990000  1.0 -0.0493074572
C  C183  1  0.79170000  0.70040000  0.46010000  1.0 -0.0493074572
C  C184  1  0.70830000  0.29960000  0.96010000  1.0 -0.0493074572
C  C185  1  0.25580000  0.23720000  0.05310000  1.0 -0.087169731
C  C186  1  0.24420000  0.76280000  0.55310000  1.0 -0.087169731
C  C187  1  0.74420000  0.73720000  0.44690000  1.0 -0.087169731
C  C188  1  0.75580000  0.26280000  0.94690000  1.0 -0.087169731
C  C189  1  0.24110000  0.29290000  0.06540000  1.0 -0.1997605255
C  C190  1  0.25890000  0.70710000  0.56540000  1.0 -0.1997605255
C  C191  1  0.75890000  0.79290000  0.43460000  1.0 -0.1997605255
C  C192  1  0.74110000  0.20710000  0.93460000  1.0 -0.1997605255
C  C193  1  0.10100000  0.39350000  0.06800000  1.0 0.1784703275
C  C194  1  0.39900000  0.60650000  0.56800000  1.0 0.1784703275
C  C195  1  0.89900000  0.89350000  0.43200000  1.0 0.1784703275
C  C196  1  0.60100000  0.10650000  0.93200000  1.0 0.1784703275
C  C197  1  0.08550000  0.39480000  0.02520000  1.0 -0.1895980844
C  C198  1  0.41450000  0.60520000  0.52520000  1.0 -0.1895980844
C  C199  1  0.91450000  0.89480000  0.47480000  1.0 -0.1895980844
C  C200  1  0.58550000  0.10520000  0.97480000  1.0 -0.1895980844
C  C201  1  0.02610000  0.41630000  0.01270000  1.0 -0.0704984986
C  C202  1  0.47390000  0.58370000  0.51270000  1.0 -0.0704984986
C  C203  1  0.97390000  0.91630000  0.48730000  1.0 -0.0704984986
C  C204  1  0.52610000  0.08370000  0.98730000  1.0 -0.0704984986
C  C205  1  0.98100000  0.44030000  0.04180000  1.0 -0.087169731
C  C206  1  0.51900000  0.55970000  0.54180000  1.0 -0.087169731
C  C207  1  0.01900000  0.94030000  0.45820000  1.0 -0.087169731
C  C208  1  0.48100000  0.05970000  0.95820000  1.0 -0.087169731
C  C209  1  0.00060000  0.44380000  0.08270000  1.0 -0.0704984986
C  C210  1  0.49940000  0.55620000  0.58270000  1.0 -0.0704984986
C  C211  1  0.99940000  0.94380000  0.41730000  1.0 -0.0704984986
C  C212  1  0.50060000  0.05620000  0.91730000  1.0 -0.0704984986
C  C213  1  0.06100000  0.42140000  0.09600000  1.0 -0.1997605255
C  C214  1  0.43900000  0.57860000  0.59600000  1.0 -0.1997605255
C  C215  1  0.93900000  0.92140000  0.40400000  1.0 -0.1997605255
C  C216  1  0.56100000  0.07860000  0.90400000  1.0 -0.1997605255
C  C217  1  0.88350000  0.45800000  0.43760000  1.0 0.6096242508
C  C218  1  0.61650000  0.54200000  0.93760000  1.0 0.6096242508
C  C219  1  0.11650000  0.95800000  0.06240000  1.0 0.6096242508
C  C220  1  0.38350000  0.04200000  0.56240000  1.0 0.6096242508
C  C221  1  0.18010000  0.13110000  0.45180000  1.0 0.5951204812
C  C222  1  0.31990000  0.86890000  0.95180000  1.0 0.5951204812
C  C223  1  0.81990000  0.63110000  0.04820000  1.0 0.5951204812
C  C224  1  0.68010000  0.36890000  0.54820000  1.0 0.5951204812
C  C225  1  0.66260000  0.47240000  0.39780000  1.0 0.5951204812
C  C226  1  0.83740000  0.52760000  0.89780000  1.0 0.5951204812
C  C227  1  0.33740000  0.97240000  0.10220000  1.0 0.5951204812
C  C228  1  0.16260000  0.02760000  0.60220000  1.0 0.5951204812
C  C229  1  0.67270000  0.47100000  0.08830000  1.0 0.5892739237
C  C230  1  0.82730000  0.52900000  0.58830000  1.0 0.5892739237
C  C231  1  0.32730000  0.97100000  0.41170000  1.0 0.5892739237
C  C232  1  0.17270000  0.02900000  0.91170000  1.0 0.5892739237
C  C233  1  0.22430000  0.13800000  0.02870000  1.0 0.5892739237
C  C234  1  0.27570000  0.86200000  0.52870000  1.0 0.5892739237
C  C235  1  0.77570000  0.63800000  0.47130000  1.0 0.5892739237
C  C236  1  0.72430000  0.36200000  0.97130000  1.0 0.5892739237
C  C237  1  0.91570000  0.45850000  0.02850000  1.0 0.5892739237
C  C238  1  0.58430000  0.54150000  0.52850000  1.0 0.5892739237
C  C239  1  0.08430000  0.95850000  0.47150000  1.0 0.5892739237
C  C240  1  0.41570000  0.04150000  0.97150000  1.0 0.5892739237
C  C241  1  0.85480000  0.34230000  0.51670000  1.0 0.4905802896
C  C242  1  0.64520000  0.65770000  0.01670000  1.0 0.4905802896
C  C243  1  0.14520000  0.84230000  0.98330000  1.0 0.4905802896
C  C244  1  0.35480000  0.15770000  0.48330000  1.0 0.4905802896
C  C245  1  0.82280000  0.28230000  0.50880000  1.0 -0.2948884228
C  C246  1  0.67720000  0.71770000  0.00880000  1.0 -0.3067513564
C  C247  1  0.17720000  0.78230000  0.99120000  1.0 -0.2996935109
C  C248  1  0.32280000  0.21770000  0.49120000  1.0 -0.3067513564
C  C249  1  0.95690000  0.39890000  0.52950000  1.0 0.0696495762
C  C250  1  0.54310000  0.60110000  0.02950000  1.0 0.0696495762
C  C251  1  0.04310000  0.89890000  0.97050000  1.0 0.0696495762
C  C252  1  0.45690000  0.10110000  0.47050000  1.0 0.0696495762
C  C253  1  0.96330000  0.29310000  0.53220000  1.0 0.0183741609
C  C254  1  0.53670000  0.70690000  0.03220000  1.0 0.0183741609
C  C255  1  0.03670000  0.79310000  0.96780000  1.0 0.0183741609
C  C256  1  0.46330000  0.20690000  0.46780000  1.0 0.0183741609
C  C257  1  0.74300000  0.32600000  0.39800000  1.0 0.4687635741
C  C258  1  0.75700000  0.67400000  0.89800000  1.0 0.4687635741
C  C259  1  0.25700000  0.82600000  0.10200000  1.0 0.4687635741
C  C260  1  0.24300000  0.17400000  0.60200000  1.0 0.4687635741
C  C261  1  0.77600000  0.34320000  0.35540000  1.0 -0.345020608
C  C262  1  0.72400000  0.65680000  0.85540000  1.0 -0.339161829
C  C263  1  0.22400000  0.84320000  0.14460000  1.0 -0.339161829
C  C264  1  0.27600000  0.15680000  0.64460000  1.0 -0.345020608
C  C265  1  0.68600000  0.27400000  0.35590000  1.0 -0.0181155288
C  C266  1  0.81400000  0.72600000  0.85590000  1.0 -0.0116879561
C  C267  1  0.31400000  0.77400000  0.14410000  1.0 -0.0181155288
C  C268  1  0.18600000  0.22600000  0.64410000  1.0 -0.0116879561
C  C269  1  0.62700000  0.27990000  0.42830000  1.0 -0.0116879561
C  C270  1  0.87300000  0.72010000  0.92830000  1.0 -0.0116879561
C  C271  1  0.37300000  0.77990000  0.07170000  1.0 -0.0116879561
C  C272  1  0.12700000  0.22010000  0.57170000  1.0 -0.0116879561
N  N1  1  0.26120000  0.42200000  0.23990000  1.0 -0.1689605525
N  N2  1  0.23880000  0.57800000  0.73990000  1.0 -0.1689605525
N  N3  1  0.73880000  0.92200000  0.26010000  1.0 -0.1689605525
N  N4  1  0.76120000  0.07800000  0.76010000  1.0 -0.1689605525
N  N5  1  0.11570000  0.34650000  0.37950000  1.0 -0.1491067667
N  N6  1  0.38430000  0.65350000  0.87950000  1.0 -0.1491067667
N  N7  1  0.88430000  0.84650000  0.12050000  1.0 -0.1491067667
N  N8  1  0.61570000  0.15350000  0.62050000  1.0 -0.1491067667
N  N9  1  0.53810000  0.43570000  0.24090000  1.0 -0.1689605525
N  N10  1  0.96190000  0.56430000  0.74090000  1.0 -0.1689605525
N  N11  1  0.46190000  0.93570000  0.25910000  1.0 -0.1689605525
N  N12  1  0.03810000  0.06430000  0.75910000  1.0 -0.1689605525
N  N13  1  0.16000000  0.36610000  0.08060000  1.0 -0.1606662439
N  N14  1  0.34000000  0.63390000  0.58060000  1.0 -0.1606662439
N  N15  1  0.84000000  0.86610000  0.41940000  1.0 -0.1491067667
N  N16  1  0.66000000  0.13390000  0.91940000  1.0 -0.1606662439
N  N17  1  0.92310000  0.34070000  0.52630000  1.0 -0.1278967643
N  N18  1  0.57690000  0.65930000  0.02630000  1.0 -0.1278967643
N  N19  1  0.07690000  0.84070000  0.97370000  1.0 -0.1278967643
N  N20  1  0.42310000  0.15930000  0.47370000  1.0 -0.1278967643
N  N21  1  0.68000000  0.29400000  0.39930000  1.0 0.0066506749
N  N22  1  0.82000000  0.70600000  0.89930000  1.0 0.004186697
N  N23  1  0.32000000  0.79400000  0.10070000  1.0 0.0066506749
N  N24  1  0.18000000  0.20600000  0.60070000  1.0 0.004186697
O  O1  1  0.74240000  0.48980000  0.49441000  1.0 -1.0039561847
O  O2  1  0.75760000  0.51020000  0.99441000  1.0 -1.0039561847
O  O3  1  0.25760000  0.98980000  0.00559000  1.0 -1.0039561847
O  O4  1  0.24240000  0.01020000  0.50559000  1.0 -1.0039561847
O  O5  1  0.89430000  0.50020000  0.46111000  1.0 -0.5135519067
O  O6  1  0.60570000  0.49980000  0.96111000  1.0 -0.5135519067
O  O7  1  0.10570000  0.00020000  0.03889000  1.0 -0.5135519067
O  O8  1  0.39430000  0.99980000  0.53889000  1.0 -0.5135519067
O  O9  1  0.82670000  0.43730000  0.42840000  1.0 -0.5645166396
O  O10  1  0.67330000  0.56270000  0.92840000  1.0 -0.5645166396
O  O11  1  0.17330000  0.93730000  0.07160000  1.0 -0.5655116597
O  O12  1  0.32670000  0.06270000  0.57160000  1.0 -0.5645166396
O  O13  1  0.17820000  0.12530000  0.49086000  1.0 -0.5461336533
O  O14  1  0.32180000  0.87470000  0.99086000  1.0 -0.5461336533
O  O15  1  0.82180000  0.62530000  0.00914000  1.0 -0.5461336533
O  O16  1  0.67820000  0.37470000  0.50914000  1.0 -0.5461336533
O  O17  1  0.19720000  0.09150000  0.42730000  1.0 -0.5203655781
O  O18  1  0.30280000  0.90850000  0.92730000  1.0 -0.5203655781
O  O19  1  0.80280000  0.59150000  0.07270000  1.0 -0.5203655781
O  O20  1  0.69720000  0.40850000  0.57270000  1.0 -0.5203655781
O  O21  1  0.67460000  0.52600000  0.40617000  1.0 -0.5292710261
O  O22  1  0.82540000  0.47400000  0.90617000  1.0 -0.5292710261
O  O23  1  0.32540000  0.02600000  0.09383000  1.0 -0.5292710261
O  O24  1  0.17460000  0.97400000  0.59383000  1.0 -0.5292710261
O  O25  1  0.67150000  0.43220000  0.42210000  1.0 -0.4962552795
O  O26  1  0.82850000  0.56780000  0.92210000  1.0 -0.4962552795
O  O27  1  0.32850000  0.93220000  0.07790000  1.0 -0.4962552795
O  O28  1  0.17150000  0.06780000  0.57790000  1.0 -0.4962552795
O  O29  1  0.73410000  0.47230000  0.08906000  1.0 -0.5203655781
O  O30  1  0.76590000  0.52770000  0.58906000  1.0 -0.5203655781
O  O31  1  0.26590000  0.97230000  0.41094000  1.0 -0.5203655781
O  O32  1  0.23410000  0.02770000  0.91094000  1.0 -0.5203655781
O  O33  1  0.63800000  0.47680000  0.05500000  1.0 -0.5292710261
O  O34  1  0.86200000  0.52320000  0.55500000  1.0 -0.5292710261
O  O35  1  0.36200000  0.97680000  0.44500000  1.0 -0.5292710261
O  O36  1  0.13800000  0.02320000  0.94500000  1.0 -0.5292710261
O  O37  1  0.28180000  0.12280000  0.03520000  1.0 -0.5203655781
O  O38  1  0.21820000  0.87720000  0.53520000  1.0 -0.5203655781
O  O39  1  0.71820000  0.62280000  0.46480000  1.0 -0.5203655781
O  O40  1  0.78180000  0.37720000  0.96480000  1.0 -0.5203655781
O  O41  1  0.17920000  0.10960000  0.01307000  1.0 -0.5292710261
O  O42  1  0.32080000  0.89040000  0.51307000  1.0 -0.5292710261
O  O43  1  0.82080000  0.60960000  0.48693000  1.0 -0.5292710261
O  O44  1  0.67920000  0.39040000  0.98693000  1.0 -0.5292710261
O  O45  1  0.90170000  0.45330000  0.99011000  1.0 -0.5292710261
O  O46  1  0.59830000  0.54670000  0.49011000  1.0 -0.5292710261
O  O47  1  0.09830000  0.95330000  0.50989000  1.0 -0.5292710261
O  O48  1  0.40170000  0.04670000  0.00989000  1.0 -0.5292710261
O  O49  1  0.87880000  0.47900000  0.05602000  1.0 -0.5203655781
O  O50  1  0.62120000  0.52100000  0.55602000  1.0 -0.5203655781
O  O51  1  0.12120000  0.97900000  0.44398000  1.0 -0.5203655781
O  O52  1  0.37880000  0.02100000  0.94398000  1.0 -0.5203655781
O  O53  1  0.82610000  0.38580000  0.50890000  1.0 -0.4392632553
O  O54  1  0.67390000  0.61420000  0.00890000  1.0 -0.4392632553
O  O55  1  0.17390000  0.88580000  0.99110000  1.0 -0.4392632553
O  O56  1  0.32610000  0.11420000  0.49110000  1.0 -0.4392632553
O  O57  1  0.74840000  0.33460000  0.43520000  1.0 -0.3910861025
O  O58  1  0.75160000  0.66540000  0.93520000  1.0 -0.3910861025
O  O59  1  0.25160000  0.83460000  0.06480000  1.0 -0.3910861025
O  O60  1  0.24840000  0.16540000  0.56480000  1.0 -0.3910861025
