# DDEC6 charges by PACMAN v1.1 (https://github.com/mtap-research/PACMAN-charge/)
data_QUSHUJ_ASR_pacman
_symmetry_space_group_name_H-M   'P 1'
_cell_length_a   27.31000000
_cell_length_b   28.43000000
_cell_length_c   30.55600000
_cell_angle_alpha   90.00000000
_cell_angle_beta   90.00000000
_cell_angle_gamma   90.00000000
_symmetry_Int_Tables_number   1
_chemical_formula_structural   Mn4Cu6H153C144(NO3)12
_chemical_formula_sum   'Mn16 Cu24 H612 C576 N48 O144'
_cell_volume   23724.39035480
_cell_formula_units_Z   4
loop_
 _symmetry_equiv_pos_site_id
 _symmetry_equiv_pos_as_xyz
  1  'x, y, z'
loop_
 _atom_site_type_symbol
 _atom_site_label
 _atom_site_symmetry_multiplicity
 _atom_site_fract_x
 _atom_site_fract_y
 _atom_site_fract_z
 _atom_site_occupancy
 _atom_site_charge
Mn  Mn1  1  0.39542000  0.05340000  0.12896000  1.0 0.9412337093
Mn  Mn2  1  0.10458000  0.94660000  0.62896000  1.0 0.9412337093
Mn  Mn3  1  0.89542000  0.44660000  0.87104000  1.0 0.9412337093
Mn  Mn4  1  0.60458000  0.55340000  0.37104000  1.0 0.9412337093
Mn  Mn5  1  0.58800000  0.37101000  0.06438000  1.0 0.9098690002
Mn  Mn6  1  0.91200000  0.62899000  0.56438000  1.0 0.9098690002
Mn  Mn7  1  0.08800000  0.12899000  0.93562000  1.0 0.9098690002
Mn  Mn8  1  0.41200000  0.87101000  0.43562000  1.0 0.9098690002
Mn  Mn9  1  0.66769000  0.85462000  0.83716000  1.0 0.9606234728
Mn  Mn10  1  0.83231000  0.14538000  0.33716000  1.0 0.9606234728
Mn  Mn11  1  0.16769000  0.64538000  0.16284000  1.0 0.9606234728
Mn  Mn12  1  0.33231000  0.35462000  0.66284000  1.0 0.9606234728
Mn  Mn13  1  0.82438000  0.82745000  0.15538000  1.0 0.893532738
Mn  Mn14  1  0.67562000  0.17255000  0.65538000  1.0 0.893532738
Mn  Mn15  1  0.32438000  0.67255000  0.84462000  1.0 0.893532738
Mn  Mn16  1  0.17562000  0.32745000  0.34462000  1.0 0.893532738
Cu  Cu1  1  0.42036000  0.96441000  0.28246000  1.0 0.664661154
Cu  Cu2  1  0.07964000  0.03559000  0.78246000  1.0 0.664661154
Cu  Cu3  1  0.92036000  0.53559000  0.71754000  1.0 0.6652058213
Cu  Cu4  1  0.57964000  0.46441000  0.21754000  1.0 0.664661154
Cu  Cu5  1  0.49114000  0.20915000  0.07318000  1.0 0.613509938
Cu  Cu6  1  0.00886000  0.79085000  0.57318000  1.0 0.6157498011
Cu  Cu7  1  0.99114000  0.29085000  0.92682000  1.0 0.6157498011
Cu  Cu8  1  0.50886000  0.70915000  0.42682000  1.0 0.6157498011
Cu  Cu9  1  0.23425000  0.06710000  0.03628000  1.0 0.7028553634
Cu  Cu10  1  0.26575000  0.93290000  0.53628000  1.0 0.7028553634
Cu  Cu11  1  0.73425000  0.43290000  0.96372000  1.0 0.7028553634
Cu  Cu12  1  0.76575000  0.56710000  0.46372000  1.0 0.7028553634
Cu  Cu13  1  0.68414000  0.01372000  0.74680000  1.0 0.6284065469
Cu  Cu14  1  0.81586000  0.98628000  0.24680000  1.0 0.6284065469
Cu  Cu15  1  0.18414000  0.48628000  0.25320000  1.0 0.6284065469
Cu  Cu16  1  0.31586000  0.51372000  0.75320000  1.0 0.6284065469
Cu  Cu17  1  0.74433000  0.81463000  0.99630000  1.0 0.7028553634
Cu  Cu18  1  0.75567000  0.18537000  0.49630000  1.0 0.7028553634
Cu  Cu19  1  0.24433000  0.68537000  0.00370000  1.0 0.7028553634
Cu  Cu20  1  0.25567000  0.31463000  0.50370000  1.0 0.7028553634
Cu  Cu21  1  0.99767000  0.73849000  0.16389000  1.0 0.6284065469
Cu  Cu22  1  0.50233000  0.26151000  0.66389000  1.0 0.6284065469
Cu  Cu23  1  0.49767000  0.76151000  0.83611000  1.0 0.6284065469
Cu  Cu24  1  0.00233000  0.23849000  0.33611000  1.0 0.6284065469
H  H1  1  0.52160000  0.83440000  0.17570000  1.0 0.1210080664
H  H2  1  0.97840000  0.16560000  0.67570000  1.0 0.1210080664
H  H3  1  0.02160000  0.66560000  0.82430000  1.0 0.1210080664
H  H4  1  0.47840000  0.33440000  0.32430000  1.0 0.1210080664
H  H5  1  0.54300000  0.90670000  0.23720000  1.0 0.1106805322
H  H6  1  0.95700000  0.09330000  0.73720000  1.0 0.1106805322
H  H7  1  0.04300000  0.59330000  0.76280000  1.0 0.1106805322
H  H8  1  0.45700000  0.40670000  0.26280000  1.0 0.1106805322
H  H9  1  0.51790000  0.95180000  0.21740000  1.0 0.0998666795
H  H10  1  0.98210000  0.04820000  0.71740000  1.0 0.0998666795
H  H11  1  0.01790000  0.54820000  0.78260000  1.0 0.0998666795
H  H12  1  0.48210000  0.45180000  0.28260000  1.0 0.0998666795
H  H13  1  0.37710000  0.81520000  0.15800000  1.0 0.1210080664
H  H14  1  0.12290000  0.18480000  0.65800000  1.0 0.1210080664
H  H15  1  0.87710000  0.68480000  0.84200000  1.0 0.1210080664
H  H16  1  0.62290000  0.31520000  0.34200000  1.0 0.1210080664
H  H17  1  0.33390000  0.91470000  0.21300000  1.0 0.1106805322
H  H18  1  0.16610000  0.08530000  0.71300000  1.0 0.1106805322
H  H19  1  0.83390000  0.58530000  0.78700000  1.0 0.1106805322
H  H20  1  0.66610000  0.41470000  0.28700000  1.0 0.1106805322
H  H21  1  0.31880000  0.86380000  0.19820000  1.0 0.0998666795
H  H22  1  0.18120000  0.13620000  0.69820000  1.0 0.0998666795
H  H23  1  0.81880000  0.63620000  0.80180000  1.0 0.0998666795
H  H24  1  0.68120000  0.36380000  0.30180000  1.0 0.0998666795
H  H25  1  0.45700000  0.78850000  0.15090000  1.0 0.1106805322
H  H26  1  0.04300000  0.21150000  0.65090000  1.0 0.1106805322
H  H27  1  0.95700000  0.71150000  0.84910000  1.0 0.1106805322
H  H28  1  0.54300000  0.28850000  0.34910000  1.0 0.1106805322
H  H29  1  0.59470000  0.93520000  0.17680000  1.0 0.1286806416
H  H30  1  0.90530000  0.06480000  0.67680000  1.0 0.1286806416
H  H31  1  0.09470000  0.56480000  0.82320000  1.0 0.1286806416
H  H32  1  0.40530000  0.43520000  0.32320000  1.0 0.1286806416
H  H33  1  0.55020000  0.93220000  0.14450000  1.0 0.1286806416
H  H34  1  0.94980000  0.06780000  0.64450000  1.0 0.1286806416
H  H35  1  0.05020000  0.56780000  0.85550000  1.0 0.1286806416
H  H36  1  0.44980000  0.43220000  0.35550000  1.0 0.1286806416
H  H37  1  0.57370000  0.88600000  0.16310000  1.0 0.1106805322
H  H38  1  0.92630000  0.11400000  0.66310000  1.0 0.1106805322
H  H39  1  0.07370000  0.61400000  0.83690000  1.0 0.1106805322
H  H40  1  0.42630000  0.38600000  0.33690000  1.0 0.1106805322
H  H41  1  0.28630000  0.92110000  0.14660000  1.0 0.1210080664
H  H42  1  0.21370000  0.07890000  0.64660000  1.0 0.1210080664
H  H43  1  0.78630000  0.57890000  0.85340000  1.0 0.1210080664
H  H44  1  0.71370000  0.42110000  0.35340000  1.0 0.1210080664
H  H45  1  0.32300000  0.88770000  0.12220000  1.0 0.1106805322
H  H46  1  0.17700000  0.11230000  0.62220000  1.0 0.1106805322
H  H47  1  0.82300000  0.61230000  0.87780000  1.0 0.1106805322
H  H48  1  0.67700000  0.38770000  0.37780000  1.0 0.1106805322
H  H49  1  0.33970000  0.93820000  0.13630000  1.0 0.139528821
H  H50  1  0.16030000  0.06180000  0.63630000  1.0 0.139528821
H  H51  1  0.83970000  0.56180000  0.86370000  1.0 0.139528821
H  H52  1  0.66030000  0.43820000  0.36370000  1.0 0.139528821
H  H53  1  0.60900000  0.07960000  0.98190000  1.0 0.1286806416
H  H54  1  0.89100000  0.92040000  0.48190000  1.0 0.1286806416
H  H55  1  0.10900000  0.42040000  0.01810000  1.0 0.1286806416
H  H56  1  0.39100000  0.57960000  0.51810000  1.0 0.1286806416
H  H57  1  0.50920000  0.10490000  0.97060000  1.0 0.1106805322
H  H58  1  0.99080000  0.89510000  0.47060000  1.0 0.1106805322
H  H59  1  0.00920000  0.39510000  0.02940000  1.0 0.1106805322
H  H60  1  0.49080000  0.60490000  0.52940000  1.0 0.1106805322
H  H61  1  0.49870000  0.14870000  0.00060000  1.0 0.0817932678
H  H62  1  0.00130000  0.85130000  0.50060000  1.0 0.0817932678
H  H63  1  0.99870000  0.35130000  0.99940000  1.0 0.0817932678
H  H64  1  0.50130000  0.64870000  0.49940000  1.0 0.0817932678
H  H65  1  0.63770000  0.05510000  0.10890000  1.0 0.1210080664
H  H66  1  0.86230000  0.94490000  0.60890000  1.0 0.1210080664
H  H67  1  0.13770000  0.44490000  0.89110000  1.0 0.1210080664
H  H68  1  0.36230000  0.55510000  0.39110000  1.0 0.1210080664
H  H69  1  0.59970000  0.12100000  0.16030000  1.0 0.0998666795
H  H70  1  0.90030000  0.87900000  0.66030000  1.0 0.0998666795
H  H71  1  0.09970000  0.37900000  0.83970000  1.0 0.0998666795
H  H72  1  0.40030000  0.62100000  0.33970000  1.0 0.0998666795
H  H73  1  0.54420000  0.13070000  0.15150000  1.0 0.1106805322
H  H74  1  0.95580000  0.86930000  0.65150000  1.0 0.1106805322
H  H75  1  0.04420000  0.36930000  0.84850000  1.0 0.1106805322
H  H76  1  0.45580000  0.63070000  0.34850000  1.0 0.1106805322
H  H77  1  0.31690000  0.95910000  0.90640000  1.0 0.1210080664
H  H78  1  0.18310000  0.04090000  0.40640000  1.0 0.1210080664
H  H79  1  0.81690000  0.54090000  0.09360000  1.0 0.1210080664
H  H80  1  0.68310000  0.45910000  0.59360000  1.0 0.1210080664
H  H81  1  0.27620000  0.95530000  0.01240000  1.0 0.1286806416
H  H82  1  0.22380000  0.04470000  0.51240000  1.0 0.1286806416
H  H83  1  0.77620000  0.54470000  0.98760000  1.0 0.1286806416
H  H84  1  0.72380000  0.45530000  0.48760000  1.0 0.1286806416
H  H85  1  0.26470000  0.93500000  0.96600000  1.0 0.1106805322
H  H86  1  0.23530000  0.06500000  0.46600000  1.0 0.1106805322
H  H87  1  0.76470000  0.56500000  0.03400000  1.0 0.1106805322
H  H88  1  0.73530000  0.43500000  0.53400000  1.0 0.1106805322
H  H89  1  0.40290000  0.07300000  0.91850000  1.0 0.1286806416
H  H90  1  0.09710000  0.92700000  0.41850000  1.0 0.1286806416
H  H91  1  0.90290000  0.42700000  0.08150000  1.0 0.1286806416
H  H92  1  0.59710000  0.57300000  0.58150000  1.0 0.1286806416
H  H93  1  0.40990000  0.10040000  0.00600000  1.0 0.1106805322
H  H94  1  0.09010000  0.89960000  0.50600000  1.0 0.1106805322
H  H95  1  0.90990000  0.39960000  0.99400000  1.0 0.1106805322
H  H96  1  0.59010000  0.60040000  0.49400000  1.0 0.1106805322
H  H97  1  0.35660000  0.10960000  0.02200000  1.0 0.1106805322
H  H98  1  0.14340000  0.89040000  0.52200000  1.0 0.1106805322
H  H99  1  0.85660000  0.39040000  0.97800000  1.0 0.1106805322
H  H100  1  0.64340000  0.60960000  0.47800000  1.0 0.1106805322
H  H101  1  0.65750000  0.04550000  0.03560000  1.0 0.1210080664
H  H102  1  0.84250000  0.95450000  0.53560000  1.0 0.1210080664
H  H103  1  0.15750000  0.45450000  0.96440000  1.0 0.1210080664
H  H104  1  0.34250000  0.54550000  0.46440000  1.0 0.1210080664
H  H105  1  0.53250000  0.17500000  0.93310000  1.0 0.1286806416
H  H106  1  0.96750000  0.82500000  0.43310000  1.0 0.1286806416
H  H107  1  0.03250000  0.32500000  0.06690000  1.0 0.1286806416
H  H108  1  0.46750000  0.67500000  0.56690000  1.0 0.1286806416
H  H109  1  0.57910000  0.14390000  0.94090000  1.0 0.1106805322
H  H110  1  0.92090000  0.85610000  0.44090000  1.0 0.1106805322
H  H111  1  0.07910000  0.35610000  0.05910000  1.0 0.1106805322
H  H112  1  0.42090000  0.64390000  0.55910000  1.0 0.1106805322
H  H113  1  0.56900000  0.18740000  0.97100000  1.0 0.1286806416
H  H114  1  0.93100000  0.81260000  0.47100000  1.0 0.1286806416
H  H115  1  0.06900000  0.31260000  0.02900000  1.0 0.1286806416
H  H116  1  0.43100000  0.68740000  0.52900000  1.0 0.1286806416
H  H117  1  0.55280000  0.07660000  0.20710000  1.0 0.1210080664
H  H118  1  0.94720000  0.92340000  0.70710000  1.0 0.1210080664
H  H119  1  0.05280000  0.42340000  0.79290000  1.0 0.1210080664
H  H120  1  0.44720000  0.57660000  0.29290000  1.0 0.1210080664
H  H121  1  0.58170000  0.04290000  0.17580000  1.0 0.1106805322
H  H122  1  0.91830000  0.95710000  0.67580000  1.0 0.1106805322
H  H123  1  0.08170000  0.45710000  0.82420000  1.0 0.1106805322
H  H124  1  0.41830000  0.54290000  0.32420000  1.0 0.1106805322
H  H125  1  0.52610000  0.05290000  0.16740000  1.0 0.139528821
H  H126  1  0.97390000  0.94710000  0.66740000  1.0 0.139528821
H  H127  1  0.02610000  0.44710000  0.83260000  1.0 0.139528821
H  H128  1  0.47390000  0.55290000  0.33260000  1.0 0.139528821
H  H129  1  0.37660000  0.00870000  0.87820000  1.0 0.1106805322
H  H130  1  0.12340000  0.99130000  0.37820000  1.0 0.1106805322
H  H131  1  0.87660000  0.49130000  0.12180000  1.0 0.1106805322
H  H132  1  0.62340000  0.50870000  0.62180000  1.0 0.1106805322
H  H133  1  0.19120000  0.96490000  0.99530000  1.0 0.1210080664
H  H134  1  0.30880000  0.03510000  0.49530000  1.0 0.1210080664
H  H135  1  0.69120000  0.53510000  0.00470000  1.0 0.1210080664
H  H136  1  0.80880000  0.46490000  0.50470000  1.0 0.1210080664
H  H137  1  0.20520000  0.99670000  0.95540000  1.0 0.1286806416
H  H138  1  0.29480000  0.00330000  0.45540000  1.0 0.1286806416
H  H139  1  0.70520000  0.50330000  0.04460000  1.0 0.1286806416
H  H140  1  0.79480000  0.49670000  0.54460000  1.0 0.1286806416
H  H141  1  0.21530000  0.01420000  0.00320000  1.0 0.0697151893
H  H142  1  0.28470000  0.98580000  0.50320000  1.0 0.0697151893
H  H143  1  0.71530000  0.48580000  0.99680000  1.0 0.0697151893
H  H144  1  0.78470000  0.51420000  0.49680000  1.0 0.0697151893
H  H145  1  0.39050000  0.17940000  0.99400000  1.0 0.1210080664
H  H146  1  0.10950000  0.82060000  0.49400000  1.0 0.1210080664
H  H147  1  0.89050000  0.32060000  0.00600000  1.0 0.1210080664
H  H148  1  0.60950000  0.67940000  0.50600000  1.0 0.1210080664
H  H149  1  0.34510000  0.16530000  0.96540000  1.0 0.139528821
H  H150  1  0.15490000  0.83470000  0.46540000  1.0 0.139528821
H  H151  1  0.84510000  0.33470000  0.03460000  1.0 0.139528821
H  H152  1  0.65490000  0.66530000  0.53460000  1.0 0.139528821
H  H153  1  0.39830000  0.15550000  0.94820000  1.0 0.1106805322
H  H154  1  0.10170000  0.84450000  0.44820000  1.0 0.1106805322
H  H155  1  0.89830000  0.34450000  0.05180000  1.0 0.1210080664
H  H156  1  0.60170000  0.65550000  0.55180000  1.0 0.1106805322
H  H157  1  0.45350000  0.23600000  0.97180000  1.0 0.1106805322
H  H158  1  0.04650000  0.76400000  0.47180000  1.0 0.1106805322
H  H159  1  0.95350000  0.26400000  0.02820000  1.0 0.1106805322
H  H160  1  0.54650000  0.73600000  0.52820000  1.0 0.1106805322
H  H161  1  0.48560000  0.28120000  0.97280000  1.0 0.1106805322
H  H162  1  0.01440000  0.71880000  0.47280000  1.0 0.1106805322
H  H163  1  0.98560000  0.21880000  0.02720000  1.0 0.1106805322
H  H164  1  0.51440000  0.78120000  0.52720000  1.0 0.1106805322
H  H165  1  0.36750000  0.30570000  0.95220000  1.0 0.1210080664
H  H166  1  0.13250000  0.69430000  0.45220000  1.0 0.1210080664
H  H167  1  0.86750000  0.19430000  0.04780000  1.0 0.1210080664
H  H168  1  0.63250000  0.80570000  0.54780000  1.0 0.1210080664
H  H169  1  0.38240000  0.30870000  0.13550000  1.0 0.0998666795
H  H170  1  0.11760000  0.69130000  0.63550000  1.0 0.0998666795
H  H171  1  0.88240000  0.19130000  0.86450000  1.0 0.0998666795
H  H172  1  0.61760000  0.80870000  0.36450000  1.0 0.0998666795
H  H173  1  0.43310000  0.28530000  0.12460000  1.0 0.1106805322
H  H174  1  0.06690000  0.71470000  0.62460000  1.0 0.1106805322
H  H175  1  0.93310000  0.21470000  0.87540000  1.0 0.1106805322
H  H176  1  0.56690000  0.78530000  0.37540000  1.0 0.1106805322
H  H177  1  0.33300000  0.34400000  0.07500000  1.0 0.1210080664
H  H178  1  0.16700000  0.65600000  0.57500000  1.0 0.1210080664
H  H179  1  0.83300000  0.15600000  0.92500000  1.0 0.1210080664
H  H180  1  0.66700000  0.84400000  0.42500000  1.0 0.1210080664
H  H181  1  0.41820000  0.25860000  0.90630000  1.0 0.1286806416
H  H182  1  0.08180000  0.74140000  0.40630000  1.0 0.1210080664
H  H183  1  0.91820000  0.24140000  0.09370000  1.0 0.1286806416
H  H184  1  0.58180000  0.75860000  0.59370000  1.0 0.1286806416
H  H185  1  0.47530000  0.26130000  0.90120000  1.0 0.1210080664
H  H186  1  0.02470000  0.73870000  0.40120000  1.0 0.1210080664
H  H187  1  0.97530000  0.23870000  0.09880000  1.0 0.1210080664
H  H188  1  0.52470000  0.76130000  0.59880000  1.0 0.1210080664
H  H189  1  0.44480000  0.30740000  0.90820000  1.0 0.1210080664
H  H190  1  0.05520000  0.69260000  0.40820000  1.0 0.1210080664
H  H191  1  0.94480000  0.19260000  0.09180000  1.0 0.1210080664
H  H192  1  0.55520000  0.80740000  0.59180000  1.0 0.1210080664
H  H193  1  0.31300000  0.33930000  0.00140000  1.0 0.1106805322
H  H194  1  0.18700000  0.66070000  0.50140000  1.0 0.1106805322
H  H195  1  0.81300000  0.16070000  0.99860000  1.0 0.1106805322
H  H196  1  0.68700000  0.83930000  0.49860000  1.0 0.1106805322
H  H197  1  0.41820000  0.38500000  0.12570000  1.0 0.1106805322
H  H198  1  0.08180000  0.61500000  0.62570000  1.0 0.1106805322
H  H199  1  0.91820000  0.11500000  0.87430000  1.0 0.1106805322
H  H200  1  0.58180000  0.88500000  0.37430000  1.0 0.1106805322
H  H201  1  0.44650000  0.35780000  0.16240000  1.0 0.1286806416
H  H202  1  0.05350000  0.64220000  0.66240000  1.0 0.1286806416
H  H203  1  0.94650000  0.14220000  0.83760000  1.0 0.1286806416
H  H204  1  0.55350000  0.85780000  0.33760000  1.0 0.1286806416
H  H205  1  0.46880000  0.36140000  0.11530000  1.0 0.139528821
H  H206  1  0.03120000  0.63860000  0.61530000  1.0 0.139528821
H  H207  1  0.96880000  0.13860000  0.88470000  1.0 0.139528821
H  H208  1  0.53120000  0.86140000  0.38470000  1.0 0.139528821
H  H209  1  0.44750000  0.54160000  0.18610000  1.0 0.0998666795
H  H210  1  0.05250000  0.45840000  0.68610000  1.0 0.0998666795
H  H211  1  0.94750000  0.95840000  0.81390000  1.0 0.0998666795
H  H212  1  0.55250000  0.04160000  0.31390000  1.0 0.0998666795
H  H213  1  0.48830000  0.50860000  0.20640000  1.0 0.0912434405
H  H214  1  0.01170000  0.49140000  0.70640000  1.0 0.0912434405
H  H215  1  0.98830000  0.99140000  0.79360000  1.0 0.0912434405
H  H216  1  0.51170000  0.00860000  0.29360000  1.0 0.0912434405
H  H217  1  0.47300000  0.60380000  0.14130000  1.0 0.1210080664
H  H218  1  0.02700000  0.39620000  0.64130000  1.0 0.1210080664
H  H219  1  0.97300000  0.89620000  0.85870000  1.0 0.1210080664
H  H220  1  0.52700000  0.10380000  0.35870000  1.0 0.1210080664
H  H221  1  0.59940000  0.60580000  0.07410000  1.0 0.1210080664
H  H222  1  0.90060000  0.39420000  0.57410000  1.0 0.1210080664
H  H223  1  0.09940000  0.89420000  0.92590000  1.0 0.1210080664
H  H224  1  0.40060000  0.10580000  0.42590000  1.0 0.1210080664
H  H225  1  0.65360000  0.54230000  0.07610000  1.0 0.0998666795
H  H226  1  0.84640000  0.45770000  0.57610000  1.0 0.0998666795
H  H227  1  0.15360000  0.95770000  0.92390000  1.0 0.0998666795
H  H228  1  0.34640000  0.04230000  0.42390000  1.0 0.0998666795
H  H229  1  0.63960000  0.49500000  0.09940000  1.0 0.1106805322
H  H230  1  0.86040000  0.50500000  0.59940000  1.0 0.1106805322
H  H231  1  0.13960000  0.00500000  0.90060000  1.0 0.1106805322
H  H232  1  0.36040000  0.99500000  0.40060000  1.0 0.1106805322
H  H233  1  0.63250000  0.33090000  0.88520000  1.0 0.1106805322
H  H234  1  0.86750000  0.66910000  0.38520000  1.0 0.1106805322
H  H235  1  0.13250000  0.16910000  0.11480000  1.0 0.1106805322
H  H236  1  0.36750000  0.83090000  0.61480000  1.0 0.1106805322
H  H237  1  0.63520000  0.34510000  0.93520000  1.0 0.1106805322
H  H238  1  0.86480000  0.65490000  0.43520000  1.0 0.1106805322
H  H239  1  0.13520000  0.15490000  0.06480000  1.0 0.1106805322
H  H240  1  0.36480000  0.84510000  0.56480000  1.0 0.1106805322
H  H241  1  0.56940000  0.38270000  0.84400000  1.0 0.1106805322
H  H242  1  0.93060000  0.61730000  0.34400000  1.0 0.1106805322
H  H243  1  0.06940000  0.11730000  0.15600000  1.0 0.1106805322
H  H244  1  0.43060000  0.88270000  0.65600000  1.0 0.1106805322
H  H245  1  0.64840000  0.54890000  0.90580000  1.0 0.0912434405
H  H246  1  0.85160000  0.45110000  0.40580000  1.0 0.0912434405
H  H247  1  0.14840000  0.95110000  0.09420000  1.0 0.0912434405
H  H248  1  0.35160000  0.04890000  0.59420000  1.0 0.0912434405
H  H249  1  0.67730000  0.51820000  0.93970000  1.0 0.0998666795
H  H250  1  0.82270000  0.48180000  0.43970000  1.0 0.0998666795
H  H251  1  0.17730000  0.98180000  0.06030000  1.0 0.0998666795
H  H252  1  0.32270000  0.01820000  0.56030000  1.0 0.0998666795
H  H253  1  0.58480000  0.52130000  0.86600000  1.0 0.1210080664
H  H254  1  0.91520000  0.47870000  0.36600000  1.0 0.1210080664
H  H255  1  0.08480000  0.97870000  0.13400000  1.0 0.1210080664
H  H256  1  0.41520000  0.02130000  0.63400000  1.0 0.1210080664
H  H257  1  0.44430000  0.49180000  0.12080000  1.0 0.1286806416
H  H258  1  0.05570000  0.50820000  0.62080000  1.0 0.1286806416
H  H259  1  0.94430000  0.00820000  0.87920000  1.0 0.1286806416
H  H260  1  0.55570000  0.99180000  0.37920000  1.0 0.1286806416
H  H261  1  0.43340000  0.45980000  0.16140000  1.0 0.1210080664
H  H262  1  0.06660000  0.54020000  0.66140000  1.0 0.1210080664
H  H263  1  0.93340000  0.04020000  0.83860000  1.0 0.1210080664
H  H264  1  0.56660000  0.95980000  0.33860000  1.0 0.1210080664
H  H265  1  0.48560000  0.45950000  0.14000000  1.0 0.1210080664
H  H266  1  0.01440000  0.54050000  0.64000000  1.0 0.1210080664
H  H267  1  0.98560000  0.04050000  0.86000000  1.0 0.1210080664
H  H268  1  0.51440000  0.95950000  0.36000000  1.0 0.1210080664
H  H269  1  0.52610000  0.64130000  0.09350000  1.0 0.1210080664
H  H270  1  0.97390000  0.35870000  0.59350000  1.0 0.1210080664
H  H271  1  0.02610000  0.85870000  0.90650000  1.0 0.1210080664
H  H272  1  0.47390000  0.14130000  0.40650000  1.0 0.1210080664
H  H273  1  0.67920000  0.57420000  0.14400000  1.0 0.1210080664
H  H274  1  0.82080000  0.42580000  0.64400000  1.0 0.1210080664
H  H275  1  0.17920000  0.92580000  0.85600000  1.0 0.1210080664
H  H276  1  0.32080000  0.07420000  0.35600000  1.0 0.1210080664
H  H277  1  0.66430000  0.52740000  0.16770000  1.0 0.1286806416
H  H278  1  0.83570000  0.47260000  0.66770000  1.0 0.1286806416
H  H279  1  0.16430000  0.97260000  0.83230000  1.0 0.1286806416
H  H280  1  0.33570000  0.02740000  0.33230000  1.0 0.1286806416
H  H281  1  0.70820000  0.52760000  0.13470000  1.0 0.1210080664
H  H282  1  0.79180000  0.47240000  0.63470000  1.0 0.1210080664
H  H283  1  0.20820000  0.97240000  0.86530000  1.0 0.1210080664
H  H284  1  0.29180000  0.02760000  0.36530000  1.0 0.1210080664
H  H285  1  0.55940000  0.30050000  0.92070000  1.0 0.1210080664
H  H286  1  0.94060000  0.69950000  0.42070000  1.0 0.1210080664
H  H287  1  0.05940000  0.19950000  0.07930000  1.0 0.1210080664
H  H288  1  0.44060000  0.80050000  0.57930000  1.0 0.1210080664
H  H289  1  0.54700000  0.35080000  0.93840000  1.0 0.139528821
H  H290  1  0.95300000  0.64920000  0.43840000  1.0 0.139528821
H  H291  1  0.04700000  0.14920000  0.06160000  1.0 0.139528821
H  H292  1  0.45300000  0.85080000  0.56160000  1.0 0.139528821
H  H293  1  0.54310000  0.34020000  0.88820000  1.0 0.1106805322
H  H294  1  0.95690000  0.65980000  0.38820000  1.0 0.1106805322
H  H295  1  0.04310000  0.15980000  0.11180000  1.0 0.1106805322
H  H296  1  0.45690000  0.84020000  0.61180000  1.0 0.1106805322
H  H297  1  0.55250000  0.46000000  0.82500000  1.0 0.1210080664
H  H298  1  0.94750000  0.54000000  0.32500000  1.0 0.1210080664
H  H299  1  0.05250000  0.04000000  0.17500000  1.0 0.1210080664
H  H300  1  0.44750000  0.96000000  0.67500000  1.0 0.1210080664
H  H301  1  0.58280000  0.55770000  0.95660000  1.0 0.1286806416
H  H302  1  0.91720000  0.44230000  0.45660000  1.0 0.1286806416
H  H303  1  0.08280000  0.94230000  0.04340000  1.0 0.1286806416
H  H304  1  0.41720000  0.05770000  0.54340000  1.0 0.1286806416
H  H305  1  0.61040000  0.52570000  0.99030000  1.0 0.139528821
H  H306  1  0.88960000  0.47430000  0.49030000  1.0 0.139528821
H  H307  1  0.11040000  0.97430000  0.00970000  1.0 0.139528821
H  H308  1  0.38960000  0.02570000  0.50970000  1.0 0.139528821
H  H309  1  0.63140000  0.57530000  0.97840000  1.0 0.1210080664
H  H310  1  0.86860000  0.42470000  0.47840000  1.0 0.1210080664
H  H311  1  0.13140000  0.92470000  0.02160000  1.0 0.1210080664
H  H312  1  0.36860000  0.07530000  0.52160000  1.0 0.1210080664
H  H313  1  0.63670000  0.87040000  0.61650000  1.0 0.1210080664
H  H314  1  0.86330000  0.12960000  0.11650000  1.0 0.1210080664
H  H315  1  0.13670000  0.62960000  0.38350000  1.0 0.1210080664
H  H316  1  0.36330000  0.37040000  0.88350000  1.0 0.1210080664
H  H317  1  0.71390000  0.86460000  0.58530000  1.0 0.1106805322
H  H318  1  0.78610000  0.13540000  0.08530000  1.0 0.1106805322
H  H319  1  0.21390000  0.63540000  0.41470000  1.0 0.1106805322
H  H320  1  0.28610000  0.36460000  0.91470000  1.0 0.1106805322
H  H321  1  0.78140000  0.89540000  0.62130000  1.0 0.1286806416
H  H322  1  0.71860000  0.10460000  0.12130000  1.0 0.1286806416
H  H323  1  0.28140000  0.60460000  0.37870000  1.0 0.1286806416
H  H324  1  0.21860000  0.39540000  0.87870000  1.0 0.1286806416
H  H325  1  0.60370000  0.92320000  0.71870000  1.0 0.1106805322
H  H326  1  0.89630000  0.07680000  0.21870000  1.0 0.1106805322
H  H327  1  0.10370000  0.57680000  0.28130000  1.0 0.1106805322
H  H328  1  0.39630000  0.42320000  0.78130000  1.0 0.1106805322
H  H329  1  0.58360000  0.92810000  0.67060000  1.0 0.0998666795
H  H330  1  0.91640000  0.07190000  0.17060000  1.0 0.0998666795
H  H331  1  0.08360000  0.57190000  0.32940000  1.0 0.0998666795
H  H332  1  0.41640000  0.42810000  0.82940000  1.0 0.0998666795
H  H333  1  0.78720000  0.93600000  0.73010000  1.0 0.1106805322
H  H334  1  0.71280000  0.06400000  0.23010000  1.0 0.1106805322
H  H335  1  0.28720000  0.56400000  0.26990000  1.0 0.1106805322
H  H336  1  0.21280000  0.43600000  0.76990000  1.0 0.1106805322
H  H337  1  0.82020000  0.92350000  0.68950000  1.0 0.0998666795
H  H338  1  0.67980000  0.07650000  0.18950000  1.0 0.0998666795
H  H339  1  0.32020000  0.57650000  0.31050000  1.0 0.0998666795
H  H340  1  0.17980000  0.42350000  0.81050000  1.0 0.0998666795
H  H341  1  0.82230000  0.00680000  0.70190000  1.0 0.1210080664
H  H342  1  0.67770000  0.99320000  0.20190000  1.0 0.1286806416
H  H343  1  0.32230000  0.49320000  0.29810000  1.0 0.1286806416
H  H344  1  0.17770000  0.50680000  0.79810000  1.0 0.1210080664
H  H345  1  0.76530000  0.00910000  0.69600000  1.0 0.1106805322
H  H346  1  0.73470000  0.99090000  0.19600000  1.0 0.1106805322
H  H347  1  0.26530000  0.49090000  0.30400000  1.0 0.1106805322
H  H348  1  0.23470000  0.50910000  0.80400000  1.0 0.1106805322
H  H349  1  0.79880000  0.99670000  0.65600000  1.0 0.1286806416
H  H350  1  0.70120000  0.00330000  0.15600000  1.0 0.1286806416
H  H351  1  0.29880000  0.50330000  0.34400000  1.0 0.1286806416
H  H352  1  0.20120000  0.49670000  0.84400000  1.0 0.1286806416
H  H353  1  0.55250000  0.85740000  0.70750000  1.0 0.1210080664
H  H354  1  0.94750000  0.14260000  0.20750000  1.0 0.1210080664
H  H355  1  0.05250000  0.64260000  0.29250000  1.0 0.1210080664
H  H356  1  0.44750000  0.35740000  0.79250000  1.0 0.1210080664
H  H357  1  0.60620000  0.83790000  0.70750000  1.0 0.1286806416
H  H358  1  0.89380000  0.16210000  0.20750000  1.0 0.1286806416
H  H359  1  0.10620000  0.66210000  0.29250000  1.0 0.1286806416
H  H360  1  0.39380000  0.33790000  0.79250000  1.0 0.1286806416
H  H361  1  0.57850000  0.84560000  0.66310000  1.0 0.1106805322
H  H362  1  0.92150000  0.15440000  0.16310000  1.0 0.1106805322
H  H363  1  0.07850000  0.65440000  0.33690000  1.0 0.1106805322
H  H364  1  0.42150000  0.34560000  0.83690000  1.0 0.1106805322
H  H365  1  0.54450000  0.66920000  0.72910000  1.0 0.0912434405
H  H366  1  0.95550000  0.33080000  0.22910000  1.0 0.0912434405
H  H367  1  0.04450000  0.83080000  0.27090000  1.0 0.0912434405
H  H368  1  0.45550000  0.16920000  0.77090000  1.0 0.0912434405
H  H369  1  0.51820000  0.70550000  0.75950000  1.0 0.0912434405
H  H370  1  0.98180000  0.29450000  0.25950000  1.0 0.0912434405
H  H371  1  0.01820000  0.79450000  0.24050000  1.0 0.0912434405
H  H372  1  0.48180000  0.20550000  0.74050000  1.0 0.0912434405
H  H373  1  0.66040000  0.63320000  0.87610000  1.0 0.1286806416
H  H374  1  0.83960000  0.36680000  0.37610000  1.0 0.1286806416
H  H375  1  0.16040000  0.86680000  0.12390000  1.0 0.1286806416
H  H376  1  0.33960000  0.13320000  0.62390000  1.0 0.1286806416
H  H377  1  0.65400000  0.59330000  0.81010000  1.0 0.1210080664
H  H378  1  0.84600000  0.40670000  0.31010000  1.0 0.1210080664
H  H379  1  0.15400000  0.90670000  0.18990000  1.0 0.1210080664
H  H380  1  0.34600000  0.09330000  0.68990000  1.0 0.1210080664
H  H381  1  0.60690000  0.62420000  0.75390000  1.0 0.1210080664
H  H382  1  0.89310000  0.37580000  0.25390000  1.0 0.1210080664
H  H383  1  0.10690000  0.87580000  0.24610000  1.0 0.1286806416
H  H384  1  0.39310000  0.12420000  0.74610000  1.0 0.1286806416
H  H385  1  0.54340000  0.74440000  0.69540000  1.0 0.1286806416
H  H386  1  0.95660000  0.25560000  0.19540000  1.0 0.1286806416
H  H387  1  0.04340000  0.75560000  0.30460000  1.0 0.1286806416
H  H388  1  0.45660000  0.24440000  0.80460000  1.0 0.1286806416
H  H389  1  0.59780000  0.72900000  0.70320000  1.0 0.1286806416
H  H390  1  0.90220000  0.27100000  0.20320000  1.0 0.1286806416
H  H391  1  0.09780000  0.77100000  0.29680000  1.0 0.1286806416
H  H392  1  0.40220000  0.22900000  0.79680000  1.0 0.1286806416
H  H393  1  0.57310000  0.76550000  0.73470000  1.0 0.1210080664
H  H394  1  0.92690000  0.23450000  0.23470000  1.0 0.1210080664
H  H395  1  0.07310000  0.73450000  0.26530000  1.0 0.1210080664
H  H396  1  0.42690000  0.26550000  0.76530000  1.0 0.1210080664
H  H397  1  0.63730000  0.74730000  0.89520000  1.0 0.1106805322
H  H398  1  0.86270000  0.25270000  0.39520000  1.0 0.1106805322
H  H399  1  0.13730000  0.75270000  0.10480000  1.0 0.1106805322
H  H400  1  0.36270000  0.24730000  0.60480000  1.0 0.1106805322
H  H401  1  0.58890000  0.72490000  0.91260000  1.0 0.0998666795
H  H402  1  0.91110000  0.27510000  0.41260000  1.0 0.0998666795
H  H403  1  0.08890000  0.77510000  0.08740000  1.0 0.0998666795
H  H404  1  0.41110000  0.22490000  0.58740000  1.0 0.0998666795
H  H405  1  0.65040000  0.71860000  0.96550000  1.0 0.1210080664
H  H406  1  0.84960000  0.28140000  0.46550000  1.0 0.1210080664
H  H407  1  0.15040000  0.78140000  0.03450000  1.0 0.1210080664
H  H408  1  0.34960000  0.21860000  0.53450000  1.0 0.1210080664
H  H409  1  0.68300000  0.68950000  0.93300000  1.0 0.1106805322
H  H410  1  0.81700000  0.31050000  0.43300000  1.0 0.1106805322
H  H411  1  0.18300000  0.81050000  0.06700000  1.0 0.1106805322
H  H412  1  0.31700000  0.18950000  0.56700000  1.0 0.1106805322
H  H413  1  0.63420000  0.66800000  0.95110000  1.0 0.1210080664
H  H414  1  0.86580000  0.33200000  0.45110000  1.0 0.1210080664
H  H415  1  0.13420000  0.83200000  0.04890000  1.0 0.1210080664
H  H416  1  0.36580000  0.16800000  0.54890000  1.0 0.1210080664
H  H417  1  0.91920000  0.86730000  0.91290000  1.0 0.1210080664
H  H418  1  0.58080000  0.13270000  0.41290000  1.0 0.1210080664
H  H419  1  0.41920000  0.63270000  0.08710000  1.0 0.1210080664
H  H420  1  0.08080000  0.36730000  0.58710000  1.0 0.1210080664
H  H421  1  0.95200000  0.79210000  0.91000000  1.0 0.1106805322
H  H422  1  0.54800000  0.20790000  0.41000000  1.0 0.1106805322
H  H423  1  0.45200000  0.70790000  0.09000000  1.0 0.1106805322
H  H424  1  0.04800000  0.29210000  0.59000000  1.0 0.1106805322
H  H425  1  0.90120000  0.72710000  0.91730000  1.0 0.1286806416
H  H426  1  0.59880000  0.27290000  0.41730000  1.0 0.1286806416
H  H427  1  0.40120000  0.77290000  0.08270000  1.0 0.1286806416
H  H428  1  0.09880000  0.22710000  0.58270000  1.0 0.1286806416
H  H429  1  0.82170000  0.69530000  0.95000000  1.0 0.0998666795
H  H430  1  0.67830000  0.30470000  0.45000000  1.0 0.0998666795
H  H431  1  0.32170000  0.80470000  0.05000000  1.0 0.0998666795
H  H432  1  0.17830000  0.19530000  0.55000000  1.0 0.0998666795
H  H433  1  0.78060000  0.73210000  0.96170000  1.0 0.0817932678
H  H434  1  0.71940000  0.26790000  0.46170000  1.0 0.0817932678
H  H435  1  0.28060000  0.76790000  0.03830000  1.0 0.0817932678
H  H436  1  0.21940000  0.23210000  0.53830000  1.0 0.0817932678
H  H437  1  0.85130000  0.91930000  0.93470000  1.0 0.0998666795
H  H438  1  0.64870000  0.08070000  0.43470000  1.0 0.0998666795
H  H439  1  0.35130000  0.58070000  0.06530000  1.0 0.0998666795
H  H440  1  0.14870000  0.41930000  0.56530000  1.0 0.0998666795
H  H441  1  0.79990000  0.89770000  0.94520000  1.0 0.0998666795
H  H442  1  0.70010000  0.10230000  0.44520000  1.0 0.0998666795
H  H443  1  0.29990000  0.60230000  0.05480000  1.0 0.0998666795
H  H444  1  0.20010000  0.39770000  0.55480000  1.0 0.0998666795
H  H445  1  0.75200000  0.68070000  0.90410000  1.0 0.1286806416
H  H446  1  0.74800000  0.31930000  0.40410000  1.0 0.1286806416
H  H447  1  0.25200000  0.81930000  0.09590000  1.0 0.1286806416
H  H448  1  0.24800000  0.18070000  0.59590000  1.0 0.1286806416
H  H449  1  0.79560000  0.69710000  0.87440000  1.0 0.1210080664
H  H450  1  0.70440000  0.30290000  0.37440000  1.0 0.1210080664
H  H451  1  0.29560000  0.80290000  0.12560000  1.0 0.1210080664
H  H452  1  0.20440000  0.19710000  0.62560000  1.0 0.1210080664
H  H453  1  0.75390000  0.73260000  0.88680000  1.0 0.139528821
H  H454  1  0.74610000  0.26740000  0.38680000  1.0 0.139528821
H  H455  1  0.25390000  0.76740000  0.11320000  1.0 0.139528821
H  H456  1  0.24610000  0.23260000  0.61320000  1.0 0.139528821
H  H457  1  0.79440000  0.94730000  0.88230000  1.0 0.1210080664
H  H458  1  0.70560000  0.05270000  0.38230000  1.0 0.1210080664
H  H459  1  0.29440000  0.55270000  0.11770000  1.0 0.1210080664
H  H460  1  0.20560000  0.44730000  0.61770000  1.0 0.1210080664
H  H461  1  0.78100000  0.89560000  0.86890000  1.0 0.1286806416
H  H462  1  0.71900000  0.10440000  0.36890000  1.0 0.1286806416
H  H463  1  0.28100000  0.60440000  0.13110000  1.0 0.1286806416
H  H464  1  0.21900000  0.39560000  0.63110000  1.0 0.1286806416
H  H465  1  0.83290000  0.91590000  0.85790000  1.0 0.1210080664
H  H466  1  0.66710000  0.08410000  0.35790000  1.0 0.1210080664
H  H467  1  0.33290000  0.58410000  0.14210000  1.0 0.1210080664
H  H468  1  0.16710000  0.41590000  0.64210000  1.0 0.1210080664
H  H469  1  0.69160000  0.87890000  0.06030000  1.0 0.0998666795
H  H470  1  0.80840000  0.12110000  0.56030000  1.0 0.0998666795
H  H471  1  0.19160000  0.62110000  0.93970000  1.0 0.0998666795
H  H472  1  0.30840000  0.37890000  0.43970000  1.0 0.0998666795
H  H473  1  0.66120000  0.89480000  0.10070000  1.0 0.1106805322
H  H474  1  0.83880000  0.10520000  0.60070000  1.0 0.1106805322
H  H475  1  0.16120000  0.60520000  0.89930000  1.0 0.1106805322
H  H476  1  0.33880000  0.39480000  0.39930000  1.0 0.1106805322
H  H477  1  0.72560000  0.72540000  0.06810000  1.0 0.0912434405
H  H478  1  0.77440000  0.27460000  0.56810000  1.0 0.0912434405
H  H479  1  0.22560000  0.77460000  0.93190000  1.0 0.0912434405
H  H480  1  0.27440000  0.22540000  0.43190000  1.0 0.0912434405
H  H481  1  0.69990000  0.71260000  0.02420000  1.0 0.0998666795
H  H482  1  0.80010000  0.28740000  0.52420000  1.0 0.0998666795
H  H483  1  0.19990000  0.78740000  0.97580000  1.0 0.0998666795
H  H484  1  0.30010000  0.21260000  0.47580000  1.0 0.0998666795
H  H485  1  0.72240000  0.64360000  0.06320000  1.0 0.1210080664
H  H486  1  0.77760000  0.35640000  0.56320000  1.0 0.1210080664
H  H487  1  0.22240000  0.85640000  0.93680000  1.0 0.1210080664
H  H488  1  0.27760000  0.14360000  0.43680000  1.0 0.1210080664
H  H489  1  0.66560000  0.64430000  0.05600000  1.0 0.1210080664
H  H490  1  0.83440000  0.35570000  0.55600000  1.0 0.1210080664
H  H491  1  0.16560000  0.85570000  0.94400000  1.0 0.1210080664
H  H492  1  0.33440000  0.14430000  0.44400000  1.0 0.1210080664
H  H493  1  0.68760000  0.65780000  0.10170000  1.0 0.139528821
H  H494  1  0.81240000  0.34220000  0.60170000  1.0 0.139528821
H  H495  1  0.18760000  0.84220000  0.89830000  1.0 0.139528821
H  H496  1  0.31240000  0.15780000  0.39830000  1.0 0.139528821
H  H497  1  0.65100000  0.95010000  0.04420000  1.0 0.1106805322
H  H498  1  0.84900000  0.04990000  0.54420000  1.0 0.1106805322
H  H499  1  0.15100000  0.54990000  0.95580000  1.0 0.1106805322
H  H500  1  0.34900000  0.45010000  0.45580000  1.0 0.1106805322
H  H501  1  0.60000000  0.92670000  0.05310000  1.0 0.1210080664
H  H502  1  0.90000000  0.07330000  0.55310000  1.0 0.1210080664
H  H503  1  0.10000000  0.57330000  0.94690000  1.0 0.1210080664
H  H504  1  0.40000000  0.42670000  0.44690000  1.0 0.1210080664
H  H505  1  0.63130000  0.91120000  0.01250000  1.0 0.139528821
H  H506  1  0.86870000  0.08880000  0.51250000  1.0 0.139528821
H  H507  1  0.13130000  0.58880000  0.98750000  1.0 0.139528821
H  H508  1  0.36870000  0.41120000  0.48750000  1.0 0.139528821
H  H509  1  0.83280000  0.82290000  0.36590000  1.0 0.1286806416
H  H510  1  0.66720000  0.17710000  0.86590000  1.0 0.1286806416
H  H511  1  0.33280000  0.67710000  0.63410000  1.0 0.1286806416
H  H512  1  0.16720000  0.32290000  0.13410000  1.0 0.1286806416
H  H513  1  0.75510000  0.83070000  0.39570000  1.0 0.1106805322
H  H514  1  0.74490000  0.16930000  0.89570000  1.0 0.1106805322
H  H515  1  0.25510000  0.66930000  0.60430000  1.0 0.1106805322
H  H516  1  0.24490000  0.33070000  0.10430000  1.0 0.1106805322
H  H517  1  0.69840000  0.88040000  0.36320000  1.0 0.1210080664
H  H518  1  0.80160000  0.11960000  0.86320000  1.0 0.1210080664
H  H519  1  0.19840000  0.61960000  0.63680000  1.0 0.1210080664
H  H520  1  0.30160000  0.38040000  0.13680000  1.0 0.1210080664
H  H521  1  0.67450000  0.91470000  0.28790000  1.0 0.0998666795
H  H522  1  0.82550000  0.08530000  0.78790000  1.0 0.0998666795
H  H523  1  0.17450000  0.58530000  0.71210000  1.0 0.0998666795
H  H524  1  0.32550000  0.41470000  0.21210000  1.0 0.0998666795
H  H525  1  0.71490000  0.94670000  0.26730000  1.0 0.0998666795
H  H526  1  0.78510000  0.05330000  0.76730000  1.0 0.0912434405
H  H527  1  0.21490000  0.55330000  0.73270000  1.0 0.0912434405
H  H528  1  0.28510000  0.44670000  0.23270000  1.0 0.0912434405
H  H529  1  0.88720000  0.89690000  0.29830000  1.0 0.1106805322
H  H530  1  0.61280000  0.10310000  0.79830000  1.0 0.1106805322
H  H531  1  0.38720000  0.60310000  0.70170000  1.0 0.1106805322
H  H532  1  0.11280000  0.39690000  0.20170000  1.0 0.1106805322
H  H533  1  0.87210000  0.85570000  0.26800000  1.0 0.1106805322
H  H534  1  0.62790000  0.14430000  0.76800000  1.0 0.1106805322
H  H535  1  0.37210000  0.64430000  0.73200000  1.0 0.1106805322
H  H536  1  0.12790000  0.35570000  0.23200000  1.0 0.1106805322
H  H537  1  0.94660000  0.84040000  0.29960000  1.0 0.1286806416
H  H538  1  0.55340000  0.15960000  0.79960000  1.0 0.1286806416
H  H539  1  0.44660000  0.65960000  0.70040000  1.0 0.1286806416
H  H540  1  0.05340000  0.34040000  0.20040000  1.0 0.1286806416
H  H541  1  0.90910000  0.80210000  0.31510000  1.0 0.1210080664
H  H542  1  0.59090000  0.19790000  0.81510000  1.0 0.1210080664
H  H543  1  0.40910000  0.69790000  0.68490000  1.0 0.1210080664
H  H544  1  0.09090000  0.30210000  0.18490000  1.0 0.1210080664
H  H545  1  0.92370000  0.84340000  0.34650000  1.0 0.1210080664
H  H546  1  0.57630000  0.15660000  0.84650000  1.0 0.1210080664
H  H547  1  0.42370000  0.65660000  0.65350000  1.0 0.1210080664
H  H548  1  0.07630000  0.34340000  0.15350000  1.0 0.1210080664
H  H549  1  0.66060000  0.99490000  0.30940000  1.0 0.1286806416
H  H550  1  0.83940000  0.00510000  0.80940000  1.0 0.1210080664
H  H551  1  0.16060000  0.50510000  0.69060000  1.0 0.1210080664
H  H552  1  0.33940000  0.49490000  0.19060000  1.0 0.1286806416
H  H553  1  0.71250000  0.99690000  0.33140000  1.0 0.1286806416
H  H554  1  0.78750000  0.00310000  0.83140000  1.0 0.1286806416
H  H555  1  0.21250000  0.50310000  0.66860000  1.0 0.1286806416
H  H556  1  0.28750000  0.49690000  0.16860000  1.0 0.1286806416
H  H557  1  0.67130000  0.96500000  0.35140000  1.0 0.1210080664
H  H558  1  0.82870000  0.03500000  0.85140000  1.0 0.1210080664
H  H559  1  0.17130000  0.53500000  0.64860000  1.0 0.1210080664
H  H560  1  0.32870000  0.46500000  0.14860000  1.0 0.1210080664
H  H561  1  0.84050000  0.60720000  0.11410000  1.0 0.1106805322
H  H562  1  0.65950000  0.39280000  0.61410000  1.0 0.1106805322
H  H563  1  0.34050000  0.89280000  0.88590000  1.0 0.1106805322
H  H564  1  0.15950000  0.10720000  0.38590000  1.0 0.1106805322
H  H565  1  0.83950000  0.56250000  0.17760000  1.0 0.1210080664
H  H566  1  0.66050000  0.43750000  0.67760000  1.0 0.1210080664
H  H567  1  0.33950000  0.93750000  0.82240000  1.0 0.1210080664
H  H568  1  0.16050000  0.06250000  0.32240000  1.0 0.1210080664
H  H569  1  0.87880000  0.58950000  0.24000000  1.0 0.1286806416
H  H570  1  0.62120000  0.41050000  0.74000000  1.0 0.1286806416
H  H571  1  0.37880000  0.91050000  0.76000000  1.0 0.1286806416
H  H572  1  0.12120000  0.08950000  0.26000000  1.0 0.1286806416
H  H573  1  0.87880000  0.66990000  0.06930000  1.0 0.0998666795
H  H574  1  0.62120000  0.33010000  0.56930000  1.0 0.0998666795
H  H575  1  0.37880000  0.83010000  0.93070000  1.0 0.0998666795
H  H576  1  0.12120000  0.16990000  0.43070000  1.0 0.0998666795
H  H577  1  0.88340000  0.71840000  0.09370000  1.0 0.0998666795
H  H578  1  0.61660000  0.28160000  0.59370000  1.0 0.0998666795
H  H579  1  0.38340000  0.78160000  0.90630000  1.0 0.0998666795
H  H580  1  0.11660000  0.21840000  0.40630000  1.0 0.0998666795
H  H581  1  0.87320000  0.70530000  0.25370000  1.0 0.1106805322
H  H582  1  0.62680000  0.29470000  0.75370000  1.0 0.1106805322
H  H583  1  0.37320000  0.79470000  0.74630000  1.0 0.1106805322
H  H584  1  0.12680000  0.20530000  0.24630000  1.0 0.1106805322
H  H585  1  0.88620000  0.66100000  0.28160000  1.0 0.0912434405
H  H586  1  0.61380000  0.33900000  0.78160000  1.0 0.0912434405
H  H587  1  0.38620000  0.83900000  0.71840000  1.0 0.0912434405
H  H588  1  0.11380000  0.16100000  0.21840000  1.0 0.0912434405
H  H589  1  0.80130000  0.71330000  0.06640000  1.0 0.1210080664
H  H590  1  0.69870000  0.28670000  0.56640000  1.0 0.1210080664
H  H591  1  0.30130000  0.78670000  0.93360000  1.0 0.1210080664
H  H592  1  0.19870000  0.21330000  0.43360000  1.0 0.1210080664
H  H593  1  0.79800000  0.71030000  0.11750000  1.0 0.139528821
H  H594  1  0.70200000  0.28970000  0.61750000  1.0 0.139528821
H  H595  1  0.29800000  0.78970000  0.88250000  1.0 0.139528821
H  H596  1  0.20200000  0.21030000  0.38250000  1.0 0.139528821
H  H597  1  0.79390000  0.66450000  0.08930000  1.0 0.1106805322
H  H598  1  0.70610000  0.33550000  0.58930000  1.0 0.1106805322
H  H599  1  0.29390000  0.83550000  0.91070000  1.0 0.1106805322
H  H600  1  0.20610000  0.16450000  0.41070000  1.0 0.1106805322
H  H601  1  0.93850000  0.72480000  0.29970000  1.0 0.1210080664
H  H602  1  0.56150000  0.27520000  0.79970000  1.0 0.1210080664
H  H603  1  0.43850000  0.77520000  0.70030000  1.0 0.1210080664
H  H604  1  0.06150000  0.22480000  0.20030000  1.0 0.1210080664
H  H605  1  0.95830000  0.72550000  0.25150000  1.0 0.1106805322
H  H606  1  0.54170000  0.27450000  0.75150000  1.0 0.1106805322
H  H607  1  0.45830000  0.77450000  0.74850000  1.0 0.1106805322
H  H608  1  0.04170000  0.22550000  0.24850000  1.0 0.1106805322
H  H609  1  0.96950000  0.68240000  0.28200000  1.0 0.1210080664
H  H610  1  0.53050000  0.31760000  0.78200000  1.0 0.1210080664
H  H611  1  0.46950000  0.81760000  0.71800000  1.0 0.1210080664
H  H612  1  0.03050000  0.18240000  0.21800000  1.0 0.1210080664
C  C1  1  0.41870000  0.98660000  0.19640000  1.0 0.3194647375
C  C2  1  0.08130000  0.01340000  0.69640000  1.0 0.3194647375
C  C3  1  0.91870000  0.51340000  0.80360000  1.0 0.3194647375
C  C4  1  0.58130000  0.48660000  0.30360000  1.0 0.3194647375
C  C5  1  0.43250000  0.90450000  0.20200000  1.0 0.1513269245
C  C6  1  0.06750000  0.09550000  0.70200000  1.0 0.1513269245
C  C7  1  0.93250000  0.59550000  0.79800000  1.0 0.1513269245
C  C8  1  0.56750000  0.40450000  0.29800000  1.0 0.1513269245
C  C9  1  0.40820000  0.03080000  0.22110000  1.0 0.4732014983
C  C10  1  0.09180000  0.96920000  0.72110000  1.0 0.4732014983
C  C11  1  0.90820000  0.46920000  0.77890000  1.0 0.4732014983
C  C12  1  0.59180000  0.53080000  0.27890000  1.0 0.4732014983
C  C13  1  0.48040000  0.88850000  0.19770000  1.0 0.061050644
C  C14  1  0.01960000  0.11150000  0.69770000  1.0 0.061050644
C  C15  1  0.98040000  0.61150000  0.80230000  1.0 0.061050644
C  C16  1  0.51960000  0.38850000  0.30230000  1.0 0.061050644
C  C17  1  0.39380000  0.87700000  0.18710000  1.0 0.061050644
C  C18  1  0.10620000  0.12300000  0.68710000  1.0 0.061050644
C  C19  1  0.89380000  0.62300000  0.81290000  1.0 0.061050644
C  C20  1  0.60620000  0.37700000  0.31290000  1.0 0.061050644
C  C21  1  0.48950000  0.84500000  0.17850000  1.0 -0.142565049
C  C22  1  0.01050000  0.15500000  0.67850000  1.0 -0.142565049
C  C23  1  0.98950000  0.65500000  0.82150000  1.0 -0.142565049
C  C24  1  0.51050000  0.34500000  0.32150000  1.0 -0.142565049
C  C25  1  0.52760000  0.91970000  0.21130000  1.0 -0.1683730539
C  C26  1  0.97240000  0.08030000  0.71130000  1.0 -0.1683730539
C  C27  1  0.02760000  0.58030000  0.78870000  1.0 -0.1683730539
C  C28  1  0.47240000  0.41970000  0.28870000  1.0 -0.1683730539
C  C29  1  0.40300000  0.83360000  0.16800000  1.0 -0.1600785286
C  C30  1  0.09700000  0.16640000  0.66800000  1.0 -0.1600785286
C  C31  1  0.90300000  0.66640000  0.83200000  1.0 -0.1600785286
C  C32  1  0.59700000  0.33360000  0.33200000  1.0 -0.1600785286
C  C33  1  0.33820000  0.89110000  0.19040000  1.0 -0.149125092
C  C34  1  0.16180000  0.10890000  0.69040000  1.0 -0.149125092
C  C35  1  0.83820000  0.60890000  0.80960000  1.0 -0.149125092
C  C36  1  0.66180000  0.39110000  0.30960000  1.0 -0.149125092
C  C37  1  0.45090000  0.81760000  0.16370000  1.0 -0.0912898137
C  C38  1  0.04910000  0.18240000  0.66370000  1.0 -0.0912898137
C  C39  1  0.95090000  0.68240000  0.83630000  1.0 -0.0912898137
C  C40  1  0.54910000  0.31760000  0.33630000  1.0 -0.0912898137
C  C41  1  0.56550000  0.91810000  0.16960000  1.0 -0.3590535884
C  C42  1  0.93450000  0.08190000  0.66960000  1.0 -0.3590535884
C  C43  1  0.06550000  0.58190000  0.83040000  1.0 -0.3590535884
C  C44  1  0.43450000  0.41810000  0.33040000  1.0 -0.3590535884
C  C45  1  0.32000000  0.91200000  0.14420000  1.0 -0.3497677908
C  C46  1  0.18000000  0.08800000  0.64420000  1.0 -0.3497677908
C  C47  1  0.82000000  0.58800000  0.85580000  1.0 -0.3497677908
C  C48  1  0.68000000  0.41200000  0.35580000  1.0 -0.3497677908
C  C49  1  0.46620000  0.11800000  0.09550000  1.0 0.3404914493
C  C50  1  0.03380000  0.88200000  0.59550000  1.0 0.3404914493
C  C51  1  0.96620000  0.38200000  0.90450000  1.0 0.3404914493
C  C52  1  0.53380000  0.61800000  0.40450000  1.0 0.3404914493
C  C53  1  0.42380000  0.15020000  0.09990000  1.0 0.4377520299
C  C54  1  0.07620000  0.84980000  0.59990000  1.0 0.4377520299
C  C55  1  0.92380000  0.34980000  0.90010000  1.0 0.4377520299
C  C56  1  0.57620000  0.65020000  0.40010000  1.0 0.4377520299
C  C57  1  0.32190000  0.03890000  0.06510000  1.0 0.2256854623
C  C58  1  0.17810000  0.96110000  0.56510000  1.0 0.2256854623
C  C59  1  0.82190000  0.46110000  0.93490000  1.0 0.2256854623
C  C60  1  0.67810000  0.53890000  0.43490000  1.0 0.2256854623
C  C61  1  0.29660000  0.04790000  0.10410000  1.0 0.4118245466
C  C62  1  0.20340000  0.95210000  0.60410000  1.0 0.4118245466
C  C63  1  0.79660000  0.45210000  0.89590000  1.0 0.4118245466
C  C64  1  0.70340000  0.54790000  0.39590000  1.0 0.4118245466
C  C65  1  0.54820000  0.11520000  0.06700000  1.0 0.1210080664
C  C66  1  0.95180000  0.88480000  0.56700000  1.0 0.1210080664
C  C67  1  0.04820000  0.38480000  0.93300000  1.0 0.1210080664
C  C68  1  0.45180000  0.61520000  0.43300000  1.0 0.1210080664
C  C69  1  0.32320000  0.03240000  0.98770000  1.0 0.155639544
C  C70  1  0.17680000  0.96760000  0.48770000  1.0 0.155639544
C  C71  1  0.82320000  0.46760000  0.01230000  1.0 0.155639544
C  C72  1  0.67680000  0.53240000  0.51230000  1.0 0.155639544
C  C73  1  0.56010000  0.10950000  0.02310000  1.0 0.061050644
C  C74  1  0.93990000  0.89050000  0.52310000  1.0 0.061050644
C  C75  1  0.06010000  0.39050000  0.97690000  1.0 0.061050644
C  C76  1  0.43990000  0.60950000  0.47690000  1.0 0.061050644
C  C77  1  0.57730000  0.09480000  0.09910000  1.0 0.0697151893
C  C78  1  0.92270000  0.90520000  0.59910000  1.0 0.0697151893
C  C79  1  0.07730000  0.40520000  0.90090000  1.0 0.0697151893
C  C80  1  0.42270000  0.59480000  0.40090000  1.0 0.0697151893
C  C81  1  0.30740000  0.99380000  0.96350000  1.0 0.061050644
C  C82  1  0.19260000  0.00620000  0.46350000  1.0 0.061050644
C  C83  1  0.80740000  0.50620000  0.03650000  1.0 0.061050644
C  C84  1  0.69260000  0.49380000  0.53650000  1.0 0.061050644
C  C85  1  0.35900000  0.06210000  0.97080000  1.0 0.0817932678
C  C86  1  0.14100000  0.93790000  0.47080000  1.0 0.0817932678
C  C87  1  0.85900000  0.43790000  0.02920000  1.0 0.0817932678
C  C88  1  0.64100000  0.56210000  0.52920000  1.0 0.0817932678
C  C89  1  0.60100000  0.08340000  0.01130000  1.0 -0.149125092
C  C90  1  0.89900000  0.91660000  0.51130000  1.0 -0.149125092
C  C91  1  0.10100000  0.41660000  0.98870000  1.0 -0.149125092
C  C92  1  0.39900000  0.58340000  0.48870000  1.0 -0.149125092
C  C93  1  0.52440000  0.13040000  0.98670000  1.0 -0.1600785286
C  C94  1  0.97560000  0.86960000  0.48670000  1.0 -0.1600785286
C  C95  1  0.02440000  0.36960000  0.01330000  1.0 -0.1600785286
C  C96  1  0.47560000  0.63040000  0.51330000  1.0 -0.1600785286
C  C97  1  0.61820000  0.06870000  0.08740000  1.0 -0.1683730539
C  C98  1  0.88180000  0.93130000  0.58740000  1.0 -0.1683730539
C  C99  1  0.11820000  0.43130000  0.91260000  1.0 -0.1683730539
C  C100  1  0.38180000  0.56870000  0.41260000  1.0 -0.1683730539
C  C101  1  0.56970000  0.10710000  0.14910000  1.0 -0.149125092
C  C102  1  0.93030000  0.89290000  0.64910000  1.0 -0.149125092
C  C103  1  0.06970000  0.39290000  0.85090000  1.0 -0.149125092
C  C104  1  0.43030000  0.60710000  0.35090000  1.0 -0.149125092
C  C105  1  0.51620000  0.29880000  0.05320000  1.0 0.3194647375
C  C106  1  0.98380000  0.70120000  0.55320000  1.0 0.3194647375
C  C107  1  0.01620000  0.20120000  0.94680000  1.0 0.3194647375
C  C108  1  0.48380000  0.79880000  0.44680000  1.0 0.3194647375
C  C109  1  0.43220000  0.29310000  0.04050000  1.0 0.139528821
C  C110  1  0.06780000  0.70690000  0.54050000  1.0 0.139528821
C  C111  1  0.93220000  0.20690000  0.95950000  1.0 0.139528821
C  C112  1  0.56780000  0.79310000  0.45950000  1.0 0.139528821
C  C113  1  0.56260000  0.27280000  0.05920000  1.0 0.4508729278
C  C114  1  0.93740000  0.72720000  0.55920000  1.0 0.4508729278
C  C115  1  0.06260000  0.22720000  0.94080000  1.0 0.4508729278
C  C116  1  0.43740000  0.77280000  0.44080000  1.0 0.4508729278
C  C117  1  0.32740000  0.98490000  0.92250000  1.0 -0.1600785286
C  C118  1  0.17260000  0.01510000  0.42250000  1.0 -0.1600785286
C  C119  1  0.82740000  0.51510000  0.07750000  1.0 -0.1600785286
C  C120  1  0.67260000  0.48490000  0.57750000  1.0 -0.1600785286
C  C121  1  0.26690000  0.96380000  0.98280000  1.0 -0.142565049
C  C122  1  0.23310000  0.03620000  0.48280000  1.0 -0.142565049
C  C123  1  0.76690000  0.53620000  0.01720000  1.0 -0.142565049
C  C124  1  0.73310000  0.46380000  0.51720000  1.0 -0.142565049
C  C125  1  0.37900000  0.05320000  0.92980000  1.0 -0.1600785286
C  C126  1  0.12100000  0.94680000  0.42980000  1.0 -0.1600785286
C  C127  1  0.87900000  0.44680000  0.07020000  1.0 -0.1600785286
C  C128  1  0.62100000  0.55320000  0.57020000  1.0 -0.1600785286
C  C129  1  0.37680000  0.10680000  0.99610000  1.0 -0.1600785286
C  C130  1  0.12320000  0.89320000  0.49610000  1.0 -0.1600785286
C  C131  1  0.87680000  0.39320000  0.00390000  1.0 -0.1600785286
C  C132  1  0.62320000  0.60680000  0.50390000  1.0 -0.1600785286
C  C133  1  0.63010000  0.06300000  0.04340000  1.0 -0.1003055827
C  C134  1  0.86990000  0.93700000  0.54340000  1.0 -0.1003055827
C  C135  1  0.13010000  0.43700000  0.95660000  1.0 -0.1003055827
C  C136  1  0.36990000  0.56300000  0.45660000  1.0 -0.1003055827
C  C137  1  0.55410000  0.16220000  0.95490000  1.0 -0.3590535884
C  C138  1  0.94590000  0.83780000  0.45490000  1.0 -0.3590535884
C  C139  1  0.05410000  0.33780000  0.04510000  1.0 -0.3590535884
C  C140  1  0.44590000  0.66220000  0.54510000  1.0 -0.3590535884
C  C141  1  0.55640000  0.06620000  0.17740000  1.0 -0.3590535884
C  C142  1  0.94360000  0.93380000  0.67740000  1.0 -0.3590535884
C  C143  1  0.05640000  0.43380000  0.82260000  1.0 -0.3590535884
C  C144  1  0.44360000  0.56620000  0.32260000  1.0 -0.3590535884
C  C145  1  0.42020000  0.29030000  0.99640000  1.0 0.0436768233
C  C146  1  0.07980000  0.70970000  0.49640000  1.0 0.0436768233
C  C147  1  0.92020000  0.20970000  0.00360000  1.0 0.0436768233
C  C148  1  0.57980000  0.79030000  0.50360000  1.0 0.0436768233
C  C149  1  0.39950000  0.31320000  0.07000000  1.0 0.0697151893
C  C150  1  0.10050000  0.68680000  0.57000000  1.0 0.0697151893
C  C151  1  0.89950000  0.18680000  0.93000000  1.0 0.0697151893
C  C152  1  0.60050000  0.81320000  0.43000000  1.0 0.0697151893
C  C153  1  0.36320000  0.01460000  0.90570000  1.0 -0.1003055827
C  C154  1  0.13680000  0.98540000  0.40570000  1.0 -0.1003055827
C  C155  1  0.86320000  0.48540000  0.09430000  1.0 -0.1003055827
C  C156  1  0.63680000  0.51460000  0.59430000  1.0 -0.1003055827
C  C157  1  0.21450000  0.98720000  0.98430000  1.0 -0.3888923676
C  C158  1  0.28550000  0.01280000  0.48430000  1.0 -0.3888923676
C  C159  1  0.71450000  0.51280000  0.01570000  1.0 -0.3888923676
C  C160  1  0.78550000  0.48720000  0.51570000  1.0 -0.3888923676
C  C161  1  0.37800000  0.15660000  0.97380000  1.0 -0.3590535884
C  C162  1  0.12200000  0.84340000  0.47380000  1.0 -0.3590535884
C  C163  1  0.87800000  0.34340000  0.02620000  1.0 -0.3590535884
C  C164  1  0.62200000  0.65660000  0.52620000  1.0 -0.3590535884
C  C165  1  0.45320000  0.26950000  0.96570000  1.0 -0.149125092
C  C166  1  0.04680000  0.73050000  0.46570000  1.0 -0.149125092
C  C167  1  0.95320000  0.23050000  0.03430000  1.0 -0.149125092
C  C168  1  0.54680000  0.76950000  0.53430000  1.0 -0.149125092
C  C169  1  0.37550000  0.30760000  0.98170000  1.0 -0.1297025235
C  C170  1  0.12450000  0.69240000  0.48170000  1.0 -0.1297025235
C  C171  1  0.87550000  0.19240000  0.01830000  1.0 -0.1297025235
C  C172  1  0.62450000  0.80760000  0.51830000  1.0 -0.1297025235
C  C173  1  0.41210000  0.31210000  0.11850000  1.0 -0.1600785286
C  C174  1  0.08790000  0.68790000  0.61850000  1.0 -0.1600785286
C  C175  1  0.91210000  0.18790000  0.88150000  1.0 -0.1600785286
C  C176  1  0.58790000  0.81210000  0.38150000  1.0 -0.1600785286
C  C177  1  0.35490000  0.33050000  0.05530000  1.0 -0.1600785286
C  C178  1  0.14510000  0.66950000  0.55530000  1.0 -0.1600785286
C  C179  1  0.85490000  0.16950000  0.94470000  1.0 -0.1600785286
C  C180  1  0.64510000  0.83050000  0.44470000  1.0 -0.1600785286
C  C181  1  0.44700000  0.27500000  0.91560000  1.0 -0.3590535884
C  C182  1  0.05300000  0.72500000  0.41560000  1.0 -0.3590535884
C  C183  1  0.94700000  0.22500000  0.08440000  1.0 -0.3590535884
C  C184  1  0.55300000  0.77500000  0.58440000  1.0 -0.3590535884
C  C185  1  0.34290000  0.32770000  0.01120000  1.0 -0.1003055827
C  C186  1  0.15710000  0.67230000  0.51120000  1.0 -0.1003055827
C  C187  1  0.84290000  0.17230000  0.98880000  1.0 -0.1003055827
C  C188  1  0.65710000  0.82770000  0.48880000  1.0 -0.1003055827
C  C189  1  0.43900000  0.35860000  0.13170000  1.0 -0.3497677908
C  C190  1  0.06100000  0.64140000  0.63170000  1.0 -0.3497677908
C  C191  1  0.93900000  0.14140000  0.86830000  1.0 -0.3497677908
C  C192  1  0.56100000  0.85860000  0.36830000  1.0 -0.3497677908
C  C193  1  0.58360000  0.39680000  0.15600000  1.0 0.4732014983
C  C194  1  0.91640000  0.60320000  0.65600000  1.0 0.4732014983
C  C195  1  0.08360000  0.10320000  0.84400000  1.0 0.4732014983
C  C196  1  0.41640000  0.89680000  0.34400000  1.0 0.4732014983
C  C197  1  0.57060000  0.44100000  0.13130000  1.0 0.3404914493
C  C198  1  0.92940000  0.55900000  0.63130000  1.0 0.3404914493
C  C199  1  0.07060000  0.05900000  0.86870000  1.0 0.3404914493
C  C200  1  0.42940000  0.94100000  0.36870000  1.0 0.3404914493
C  C201  1  0.64440000  0.40970000  0.99530000  1.0 0.3404914493
C  C202  1  0.85560000  0.59030000  0.49530000  1.0 0.3404914493
C  C203  1  0.14440000  0.09030000  0.00470000  1.0 0.3404914493
C  C204  1  0.35560000  0.90970000  0.50470000  1.0 0.3404914493
C  C205  1  0.67990000  0.40370000  0.03150000  1.0 0.4508729278
C  C206  1  0.82010000  0.59630000  0.53150000  1.0 0.4508729278
C  C207  1  0.17990000  0.09630000  0.96850000  1.0 0.4508729278
C  C208  1  0.32010000  0.90370000  0.46850000  1.0 0.4508729278
C  C209  1  0.55840000  0.52450000  0.13910000  1.0 0.139528821
C  C210  1  0.94160000  0.47550000  0.63910000  1.0 0.139528821
C  C211  1  0.05840000  0.97550000  0.86090000  1.0 0.139528821
C  C212  1  0.44160000  0.02450000  0.36090000  1.0 0.139528821
C  C213  1  0.63110000  0.43430000  0.92110000  1.0 0.139528821
C  C214  1  0.86890000  0.56570000  0.42110000  1.0 0.139528821
C  C215  1  0.13110000  0.06570000  0.07890000  1.0 0.139528821
C  C216  1  0.36890000  0.93430000  0.57890000  1.0 0.139528821
C  C217  1  0.51450000  0.54580000  0.15060000  1.0 0.061050644
C  C218  1  0.98550000  0.45420000  0.65060000  1.0 0.061050644
C  C219  1  0.01450000  0.95420000  0.84940000  1.0 0.061050644
C  C220  1  0.48550000  0.04580000  0.34940000  1.0 0.061050644
C  C221  1  0.59030000  0.54700000  0.11040000  1.0 0.0697151893
C  C222  1  0.90970000  0.45300000  0.61040000  1.0 0.0697151893
C  C223  1  0.09030000  0.95300000  0.88960000  1.0 0.0697151893
C  C224  1  0.40970000  0.04700000  0.38960000  1.0 0.0697151893
C  C225  1  0.61170000  0.39760000  0.89650000  1.0 0.0539357549
C  C226  1  0.88830000  0.60240000  0.39650000  1.0 0.0539357549
C  C227  1  0.11170000  0.10240000  0.10350000  1.0 0.0539357549
C  C228  1  0.38830000  0.89760000  0.60350000  1.0 0.0539357549
C  C229  1  0.62100000  0.48060000  0.90970000  1.0 0.061050644
C  C230  1  0.87900000  0.51940000  0.40970000  1.0 0.061050644
C  C231  1  0.12100000  0.01940000  0.09030000  1.0 0.061050644
C  C232  1  0.37900000  0.98060000  0.59030000  1.0 0.061050644
C  C233  1  0.47460000  0.52070000  0.17940000  1.0 -0.1683730539
C  C234  1  0.02540000  0.47930000  0.67940000  1.0 -0.1683730539
C  C235  1  0.97460000  0.97930000  0.82060000  1.0 -0.1683730539
C  C236  1  0.52540000  0.02070000  0.32060000  1.0 -0.1683730539
C  C237  1  0.50240000  0.58950000  0.13350000  1.0 -0.1600785286
C  C238  1  0.99760000  0.41050000  0.63350000  1.0 -0.1600785286
C  C239  1  0.00240000  0.91050000  0.86650000  1.0 -0.1600785286
C  C240  1  0.49760000  0.08950000  0.36650000  1.0 -0.1600785286
C  C241  1  0.57810000  0.59080000  0.09330000  1.0 -0.149125092
C  C242  1  0.92190000  0.40920000  0.59330000  1.0 -0.149125092
C  C243  1  0.07810000  0.90920000  0.90670000  1.0 -0.149125092
C  C244  1  0.42190000  0.09080000  0.40670000  1.0 -0.149125092
C  C245  1  0.64090000  0.52890000  0.10310000  1.0 -0.1600785286
C  C246  1  0.85910000  0.47110000  0.60310000  1.0 -0.1600785286
C  C247  1  0.14090000  0.97110000  0.89690000  1.0 -0.1600785286
C  C248  1  0.35910000  0.02890000  0.39690000  1.0 -0.1600785286
C  C249  1  0.61680000  0.34880000  0.90830000  1.0 -0.149125092
C  C250  1  0.88320000  0.65120000  0.40830000  1.0 -0.149125092
C  C251  1  0.11680000  0.15120000  0.09170000  1.0 -0.149125092
C  C252  1  0.38320000  0.84880000  0.59170000  1.0 -0.149125092
C  C253  1  0.58230000  0.40730000  0.86050000  1.0 -0.142565049
C  C254  1  0.91770000  0.59270000  0.36050000  1.0 -0.142565049
C  C255  1  0.08230000  0.09270000  0.13950000  1.0 -0.142565049
C  C256  1  0.41770000  0.90730000  0.63950000  1.0 -0.149125092
C  C257  1  0.64480000  0.52590000  0.92900000  1.0 -0.1600785286
C  C258  1  0.85520000  0.47410000  0.42900000  1.0 -0.1600785286
C  C259  1  0.14480000  0.97410000  0.07100000  1.0 -0.1600785286
C  C260  1  0.35520000  0.02590000  0.57100000  1.0 -0.1600785286
C  C261  1  0.59150000  0.49030000  0.87370000  1.0 -0.149125092
C  C262  1  0.90850000  0.50970000  0.37370000  1.0 -0.149125092
C  C263  1  0.09150000  0.00970000  0.12630000  1.0 -0.149125092
C  C264  1  0.40850000  0.99030000  0.62630000  1.0 -0.149125092
C  C265  1  0.45780000  0.47870000  0.14710000  1.0 -0.3590535884
C  C266  1  0.04220000  0.52130000  0.64710000  1.0 -0.3590535884
C  C267  1  0.95780000  0.02130000  0.85290000  1.0 -0.3590535884
C  C268  1  0.54220000  0.97870000  0.35290000  1.0 -0.3590535884
C  C269  1  0.53420000  0.61200000  0.10490000  1.0 -0.1003055827
C  C270  1  0.96580000  0.38800000  0.60490000  1.0 -0.1003055827
C  C271  1  0.03420000  0.88800000  0.89510000  1.0 -0.1003055827
C  C272  1  0.46580000  0.11200000  0.39510000  1.0 -0.1003055827
C  C273  1  0.67660000  0.54070000  0.14100000  1.0 -0.3497677908
C  C274  1  0.82340000  0.45930000  0.64100000  1.0 -0.3497677908
C  C275  1  0.17660000  0.95930000  0.85900000  1.0 -0.3497677908
C  C276  1  0.32340000  0.04070000  0.35900000  1.0 -0.3497677908
C  C277  1  0.56100000  0.33360000  0.91450000  1.0 -0.3590535884
C  C278  1  0.93900000  0.66640000  0.41450000  1.0 -0.3590535884
C  C279  1  0.06100000  0.16640000  0.08550000  1.0 -0.3590535884
C  C280  1  0.43900000  0.83360000  0.58550000  1.0 -0.3590535884
C  C281  1  0.57220000  0.45360000  0.84910000  1.0 -0.1110610069
C  C282  1  0.92780000  0.54640000  0.34910000  1.0 -0.1110610069
C  C283  1  0.07220000  0.04640000  0.15090000  1.0 -0.1110610069
C  C284  1  0.42780000  0.95360000  0.65090000  1.0 -0.1110610069
C  C285  1  0.61440000  0.54830000  0.96730000  1.0 -0.3590535884
C  C286  1  0.88560000  0.45170000  0.46730000  1.0 -0.3590535884
C  C287  1  0.11440000  0.95170000  0.03270000  1.0 -0.3590535884
C  C288  1  0.38560000  0.04830000  0.53270000  1.0 -0.3590535884
C  C289  1  0.68310000  0.95200000  0.80950000  1.0 0.4118245466
C  C290  1  0.81690000  0.04800000  0.30950000  1.0 0.4118245466
C  C291  1  0.18310000  0.54800000  0.19050000  1.0 0.4118245466
C  C292  1  0.31690000  0.45200000  0.69050000  1.0 0.4118245466
C  C293  1  0.69160000  0.92220000  0.77190000  1.0 0.3049090951
C  C294  1  0.80840000  0.07780000  0.27190000  1.0 0.3049090951
C  C295  1  0.19160000  0.57780000  0.22810000  1.0 0.3049090951
C  C296  1  0.30840000  0.42220000  0.72810000  1.0 0.3049090951
C  C297  1  0.74470000  0.91960000  0.67420000  1.0 0.0697151893
C  C298  1  0.75530000  0.08040000  0.17420000  1.0 0.0697151893
C  C299  1  0.24470000  0.58040000  0.32580000  1.0 0.0697151893
C  C300  1  0.25530000  0.41960000  0.82580000  1.0 0.0697151893
C  C301  1  0.69850000  0.92310000  0.69290000  1.0 0.1286806416
C  C302  1  0.80150000  0.07690000  0.19290000  1.0 0.1286806416
C  C303  1  0.19850000  0.57690000  0.30710000  1.0 0.1286806416
C  C304  1  0.30150000  0.42310000  0.80710000  1.0 0.1286806416
C  C305  1  0.65800000  0.90460000  0.67130000  1.0 0.0697151893
C  C306  1  0.84200000  0.09540000  0.17130000  1.0 0.0697151893
C  C307  1  0.15800000  0.59540000  0.32870000  1.0 0.0697151893
C  C308  1  0.34200000  0.40460000  0.82870000  1.0 0.0697151893
C  C309  1  0.66380000  0.88270000  0.63100000  1.0 -0.1683730539
C  C310  1  0.83620000  0.11730000  0.13100000  1.0 -0.1683730539
C  C311  1  0.16380000  0.61730000  0.36900000  1.0 -0.1683730539
C  C312  1  0.33620000  0.38270000  0.86900000  1.0 -0.1683730539
C  C313  1  0.71000000  0.87930000  0.61220000  1.0 -0.0912898137
C  C314  1  0.79000000  0.12070000  0.11220000  1.0 -0.0912898137
C  C315  1  0.21000000  0.62070000  0.38780000  1.0 -0.0912898137
C  C316  1  0.29000000  0.37930000  0.88780000  1.0 -0.0912898137
C  C317  1  0.75050000  0.89770000  0.63390000  1.0 -0.1600785286
C  C318  1  0.74950000  0.10230000  0.13390000  1.0 -0.1600785286
C  C319  1  0.25050000  0.60230000  0.36610000  1.0 -0.1600785286
C  C320  1  0.24950000  0.39770000  0.86610000  1.0 -0.1600785286
C  C321  1  0.60360000  0.90900000  0.68990000  1.0 -0.149125092
C  C322  1  0.89640000  0.09100000  0.18990000  1.0 -0.149125092
C  C323  1  0.10360000  0.59100000  0.31010000  1.0 -0.149125092
C  C324  1  0.39640000  0.40900000  0.81010000  1.0 -0.149125092
C  C325  1  0.79080000  0.93990000  0.69880000  1.0 -0.1600785286
C  C326  1  0.70920000  0.06010000  0.19880000  1.0 -0.1600785286
C  C327  1  0.29080000  0.56010000  0.30120000  1.0 -0.1600785286
C  C328  1  0.20920000  0.43990000  0.80120000  1.0 -0.1600785286
C  C329  1  0.79500000  0.99330000  0.68700000  1.0 -0.3682769845
C  C330  1  0.70500000  0.00670000  0.18700000  1.0 -0.3682769845
C  C331  1  0.29500000  0.50670000  0.31300000  1.0 -0.3682769845
C  C332  1  0.20500000  0.49330000  0.81300000  1.0 -0.3682769845
C  C333  1  0.58320000  0.85750000  0.69200000  1.0 -0.3590535884
C  C334  1  0.91680000  0.14250000  0.19200000  1.0 -0.3590535884
C  C335  1  0.08320000  0.64250000  0.30800000  1.0 -0.3590535884
C  C336  1  0.41680000  0.35750000  0.80800000  1.0 -0.3590535884
C  C337  1  0.56220000  0.82960000  0.82960000  1.0 0.4377520299
C  C338  1  0.93780000  0.17040000  0.32960000  1.0 0.4377520299
C  C339  1  0.06220000  0.67040000  0.17040000  1.0 0.4377520299
C  C340  1  0.43780000  0.32960000  0.67040000  1.0 0.4377520299
C  C341  1  0.59120000  0.78760000  0.82400000  1.0 0.2660435735
C  C342  1  0.90880000  0.21240000  0.32400000  1.0 0.2660435735
C  C343  1  0.09120000  0.71240000  0.17600000  1.0 0.2660435735
C  C344  1  0.40880000  0.28760000  0.67600000  1.0 0.2660435735
C  C345  1  0.54970000  0.69670000  0.74720000  1.0 -0.149125092
C  C346  1  0.95030000  0.30330000  0.24720000  1.0 -0.149125092
C  C347  1  0.04970000  0.80330000  0.25280000  1.0 -0.149125092
C  C348  1  0.45030000  0.19670000  0.75280000  1.0 -0.149125092
C  C349  1  0.58890000  0.70660000  0.82570000  1.0 0.1734483166
C  C350  1  0.91110000  0.29340000  0.32570000  1.0 0.1734483166
C  C351  1  0.08890000  0.79340000  0.17430000  1.0 0.1734483166
C  C352  1  0.41110000  0.20660000  0.67430000  1.0 0.1734483166
C  C353  1  0.61720000  0.68810000  0.85940000  1.0 0.061050644
C  C354  1  0.88280000  0.31190000  0.35940000  1.0 0.061050644
C  C355  1  0.11720000  0.81190000  0.14060000  1.0 0.061050644
C  C356  1  0.38280000  0.18810000  0.64060000  1.0 0.061050644
C  C357  1  0.64150000  0.64560000  0.85350000  1.0 -0.1600785286
C  C358  1  0.85850000  0.35440000  0.35350000  1.0 -0.1600785286
C  C359  1  0.14150000  0.85440000  0.14650000  1.0 -0.1600785286
C  C360  1  0.35850000  0.14560000  0.64650000  1.0 -0.1600785286
C  C361  1  0.63770000  0.62170000  0.81400000  1.0 -0.1003055827
C  C362  1  0.86230000  0.37830000  0.31400000  1.0 -0.1003055827
C  C363  1  0.13770000  0.87830000  0.18600000  1.0 -0.1003055827
C  C364  1  0.36230000  0.12170000  0.68600000  1.0 -0.1003055827
C  C365  1  0.60950000  0.64020000  0.78030000  1.0 -0.149125092
C  C366  1  0.89050000  0.35980000  0.28030000  1.0 -0.149125092
C  C367  1  0.10950000  0.85980000  0.21970000  1.0 -0.149125092
C  C368  1  0.39050000  0.14020000  0.71970000  1.0 -0.149125092
C  C369  1  0.58510000  0.68270000  0.78610000  1.0 0.0436768233
C  C370  1  0.91490000  0.31730000  0.28610000  1.0 0.0436768233
C  C371  1  0.08510000  0.81730000  0.21390000  1.0 0.0436768233
C  C372  1  0.41490000  0.18270000  0.71390000  1.0 0.0436768233
C  C373  1  0.56800000  0.73790000  0.71720000  1.0 -0.3590535884
C  C374  1  0.93200000  0.26210000  0.21720000  1.0 -0.3590535884
C  C375  1  0.06800000  0.76210000  0.28280000  1.0 -0.3590535884
C  C376  1  0.43200000  0.23790000  0.78280000  1.0 -0.3590535884
C  C377  1  0.62180000  0.71760000  0.90260000  1.0 -0.1600785286
C  C378  1  0.87820000  0.28240000  0.40260000  1.0 -0.1600785286
C  C379  1  0.12180000  0.78240000  0.09740000  1.0 -0.1600785286
C  C380  1  0.37820000  0.21760000  0.59740000  1.0 -0.1600785286
C  C381  1  0.65000000  0.69640000  0.94170000  1.0 -0.3682769845
C  C382  1  0.85000000  0.30360000  0.44170000  1.0 -0.3682769845
C  C383  1  0.15000000  0.80360000  0.05830000  1.0 -0.3682769845
C  C384  1  0.35000000  0.19640000  0.55830000  1.0 -0.3682769845
C  C385  1  0.68370000  0.83390000  0.92830000  1.0 0.4377520299
C  C386  1  0.81630000  0.16610000  0.42830000  1.0 0.4342462824
C  C387  1  0.18370000  0.66610000  0.07170000  1.0 0.4342462824
C  C388  1  0.31630000  0.33390000  0.57170000  1.0 0.4342462824
C  C389  1  0.73270000  0.82660000  0.90880000  1.0 0.3404914493
C  C390  1  0.76730000  0.17340000  0.40880000  1.0 0.3404914493
C  C391  1  0.23270000  0.67340000  0.09120000  1.0 0.3404914493
C  C392  1  0.26730000  0.32660000  0.59120000  1.0 0.3404914493
C  C393  1  0.81840000  0.80840000  0.92620000  1.0 0.139528821
C  C394  1  0.68160000  0.19160000  0.42620000  1.0 0.139528821
C  C395  1  0.31840000  0.69160000  0.07380000  1.0 0.139528821
C  C396  1  0.18160000  0.30840000  0.57380000  1.0 0.139528821
C  C397  1  0.84880000  0.84730000  0.92190000  1.0 0.0697151893
C  C398  1  0.65120000  0.15270000  0.42190000  1.0 0.0697151893
C  C399  1  0.34880000  0.65270000  0.07810000  1.0 0.0697151893
C  C400  1  0.15120000  0.34730000  0.57810000  1.0 0.0697151893
C  C401  1  0.89880000  0.84120000  0.91580000  1.0 -0.1683730539
C  C402  1  0.60120000  0.15880000  0.41580000  1.0 -0.1683730539
C  C403  1  0.39880000  0.65880000  0.08420000  1.0 -0.1683730539
C  C404  1  0.10120000  0.34120000  0.58420000  1.0 -0.1683730539
C  C405  1  0.91850000  0.79610000  0.91410000  1.0 -0.1003055827
C  C406  1  0.58150000  0.20390000  0.41410000  1.0 -0.1003055827
C  C407  1  0.41850000  0.70390000  0.08590000  1.0 -0.1003055827
C  C408  1  0.08150000  0.29610000  0.58590000  1.0 -0.1003055827
C  C409  1  0.88810000  0.75720000  0.91840000  1.0 -0.1683730539
C  C410  1  0.61190000  0.24280000  0.41840000  1.0 -0.1683730539
C  C411  1  0.38810000  0.74280000  0.08160000  1.0 -0.1683730539
C  C412  1  0.11190000  0.25720000  0.58160000  1.0 -0.1683730539
C  C413  1  0.83810000  0.76330000  0.92450000  1.0 0.061050644
C  C414  1  0.66190000  0.23670000  0.42450000  1.0 0.061050644
C  C415  1  0.33810000  0.73670000  0.07550000  1.0 0.061050644
C  C416  1  0.16190000  0.26330000  0.57550000  1.0 0.061050644
C  C417  1  0.80280000  0.72160000  0.93890000  1.0 -0.1600785286
C  C418  1  0.69720000  0.27840000  0.43890000  1.0 -0.1600785286
C  C419  1  0.30280000  0.77840000  0.06110000  1.0 -0.1600785286
C  C420  1  0.19720000  0.22160000  0.56110000  1.0 -0.1600785286
C  C421  1  0.82650000  0.89770000  0.92420000  1.0 -0.149125092
C  C422  1  0.67350000  0.10230000  0.42420000  1.0 -0.149125092
C  C423  1  0.32650000  0.60230000  0.07580000  1.0 -0.149125092
C  C424  1  0.17350000  0.39770000  0.57580000  1.0 -0.149125092
C  C425  1  0.77320000  0.70650000  0.89700000  1.0 -0.3590535884
C  C426  1  0.72680000  0.29350000  0.39700000  1.0 -0.3590535884
C  C427  1  0.27320000  0.79350000  0.10300000  1.0 -0.3590535884
C  C428  1  0.22680000  0.20650000  0.60300000  1.0 -0.3590535884
C  C429  1  0.80700000  0.91590000  0.87890000  1.0 -0.3590535884
C  C430  1  0.69300000  0.08410000  0.37890000  1.0 -0.3590535884
C  C431  1  0.30700000  0.58410000  0.12110000  1.0 -0.3590535884
C  C432  1  0.19300000  0.41590000  0.62110000  1.0 -0.3590535884
C  C433  1  0.80780000  0.81580000  0.06450000  1.0 0.464951679
C  C434  1  0.69220000  0.18420000  0.56450000  1.0 0.464951679
C  C435  1  0.30780000  0.68420000  0.93550000  1.0 0.464951679
C  C436  1  0.19220000  0.31580000  0.43550000  1.0 0.464951679
C  C437  1  0.75770000  0.80970000  0.08470000  1.0 0.3507654517
C  C438  1  0.74230000  0.19030000  0.58470000  1.0 0.3507654517
C  C439  1  0.25770000  0.69030000  0.91530000  1.0 0.3507654517
C  C440  1  0.24230000  0.30970000  0.41530000  1.0 0.3507654517
C  C441  1  0.67300000  0.79680000  0.06890000  1.0 0.1734483166
C  C442  1  0.82700000  0.20320000  0.56890000  1.0 0.1734483166
C  C443  1  0.17300000  0.70320000  0.93110000  1.0 0.1734483166
C  C444  1  0.32700000  0.29680000  0.43110000  1.0 0.1734483166
C  C445  1  0.63860000  0.83270000  0.07610000  1.0 0.0345787013
C  C446  1  0.86140000  0.16730000  0.57610000  1.0 0.0345787013
C  C447  1  0.13860000  0.66730000  0.92390000  1.0 0.0345787013
C  C448  1  0.36140000  0.33270000  0.42390000  1.0 0.0345787013
C  C449  1  0.59000000  0.81920000  0.08460000  1.0 -0.0396249947
C  C450  1  0.91000000  0.18080000  0.58460000  1.0 -0.0396249947
C  C451  1  0.09000000  0.68080000  0.91540000  1.0 -0.0396249947
C  C452  1  0.41000000  0.31920000  0.41540000  1.0 -0.0396249947
C  C453  1  0.57870000  0.76950000  0.08140000  1.0 -0.0753718001
C  C454  1  0.92130000  0.23050000  0.58140000  1.0 -0.0753718001
C  C455  1  0.07870000  0.73050000  0.91860000  1.0 -0.0753718001
C  C456  1  0.42130000  0.26950000  0.41860000  1.0 -0.0753718001
C  C457  1  0.60740000  0.73510000  0.06920000  1.0 -0.0631717501
C  C458  1  0.89260000  0.26490000  0.56920000  1.0 -0.0631717501
C  C459  1  0.10740000  0.76490000  0.93080000  1.0 -0.0631717501
C  C460  1  0.39260000  0.23510000  0.43080000  1.0 -0.0631717501
C  C461  1  0.65550000  0.74850000  0.06550000  1.0 0.0436768233
C  C462  1  0.84450000  0.25150000  0.56550000  1.0 0.0436768233
C  C463  1  0.15550000  0.75150000  0.93450000  1.0 0.0436768233
C  C464  1  0.34450000  0.24850000  0.43450000  1.0 0.0436768233
C  C465  1  0.65850000  0.88200000  0.07130000  1.0 -0.149125092
C  C466  1  0.84150000  0.11800000  0.57130000  1.0 -0.149125092
C  C467  1  0.15850000  0.61800000  0.92870000  1.0 -0.149125092
C  C468  1  0.34150000  0.38200000  0.42870000  1.0 -0.149125092
C  C469  1  0.69560000  0.71280000  0.05580000  1.0 -0.149125092
C  C470  1  0.80440000  0.28720000  0.55580000  1.0 -0.149125092
C  C471  1  0.19560000  0.78720000  0.94420000  1.0 -0.149125092
C  C472  1  0.30440000  0.21280000  0.44420000  1.0 -0.149125092
C  C473  1  0.69200000  0.65930000  0.07100000  1.0 -0.3590535884
C  C474  1  0.80800000  0.34070000  0.57100000  1.0 -0.3590535884
C  C475  1  0.19200000  0.84070000  0.92900000  1.0 -0.3590535884
C  C476  1  0.30800000  0.15930000  0.42900000  1.0 -0.3590535884
C  C477  1  0.63300000  0.92140000  0.04200000  1.0 -0.3289692031
C  C478  1  0.86700000  0.07860000  0.54200000  1.0 -0.3289692031
C  C479  1  0.13300000  0.57860000  0.95800000  1.0 -0.3289692031
C  C480  1  0.36700000  0.42140000  0.45800000  1.0 -0.3289692031
C  C481  1  0.81220000  0.92330000  0.18110000  1.0 0.4508729278
C  C482  1  0.68780000  0.07670000  0.68110000  1.0 0.4508729278
C  C483  1  0.31220000  0.57670000  0.81890000  1.0 0.4508729278
C  C484  1  0.18780000  0.42330000  0.31890000  1.0 0.4508729278
C  C485  1  0.80050000  0.89610000  0.22100000  1.0 0.3194647375
C  C486  1  0.69950000  0.10390000  0.72100000  1.0 0.3194647375
C  C487  1  0.30050000  0.60390000  0.77900000  1.0 0.3194647375
C  C488  1  0.19950000  0.39610000  0.27900000  1.0 0.3194647375
C  C489  1  0.78870000  0.89780000  0.29610000  1.0 0.1286806416
C  C490  1  0.71130000  0.10220000  0.79610000  1.0 0.1286806416
C  C491  1  0.28870000  0.60220000  0.70390000  1.0 0.1286806416
C  C492  1  0.21130000  0.39780000  0.20390000  1.0 0.1286806416
C  C493  1  0.82270000  0.86800000  0.31560000  1.0 0.061050644
C  C494  1  0.67730000  0.13200000  0.81560000  1.0 0.061050644
C  C495  1  0.32270000  0.63200000  0.68440000  1.0 0.061050644
C  C496  1  0.17730000  0.36800000  0.18440000  1.0 0.061050644
C  C497  1  0.81010000  0.84290000  0.35290000  1.0 -0.142565049
C  C498  1  0.68990000  0.15710000  0.85290000  1.0 -0.142565049
C  C499  1  0.31010000  0.65710000  0.64710000  1.0 -0.142565049
C  C500  1  0.18990000  0.34290000  0.14710000  1.0 -0.142565049
C  C501  1  0.76350000  0.84750000  0.37080000  1.0 -0.1003055827
C  C502  1  0.73650000  0.15250000  0.87080000  1.0 -0.1003055827
C  C503  1  0.26350000  0.65250000  0.62920000  1.0 -0.1003055827
C  C504  1  0.23650000  0.34750000  0.12920000  1.0 -0.1003055827
C  C505  1  0.72960000  0.87730000  0.35130000  1.0 -0.149125092
C  C506  1  0.77040000  0.12270000  0.85130000  1.0 -0.149125092
C  C507  1  0.22960000  0.62270000  0.64870000  1.0 -0.149125092
C  C508  1  0.27040000  0.37730000  0.14870000  1.0 -0.149125092
C  C509  1  0.74220000  0.90250000  0.31390000  1.0 0.061050644
C  C510  1  0.75780000  0.09750000  0.81390000  1.0 0.061050644
C  C511  1  0.24220000  0.59750000  0.68610000  1.0 0.061050644
C  C512  1  0.25780000  0.40250000  0.18610000  1.0 0.061050644
C  C513  1  0.70280000  0.93400000  0.29460000  1.0 -0.1683730539
C  C514  1  0.79720000  0.06600000  0.79460000  1.0 -0.1600785286
C  C515  1  0.20280000  0.56600000  0.70540000  1.0 -0.1683730539
C  C516  1  0.29720000  0.43400000  0.20540000  1.0 -0.1683730539
C  C517  1  0.87510000  0.86480000  0.29850000  1.0 -0.1600785286
C  C518  1  0.62490000  0.13520000  0.79850000  1.0 -0.1600785286
C  C519  1  0.37510000  0.63520000  0.70150000  1.0 -0.1600785286
C  C520  1  0.12490000  0.36480000  0.20150000  1.0 -0.1600785286
C  C521  1  0.91760000  0.83500000  0.31660000  1.0 -0.3590535884
C  C522  1  0.58240000  0.16500000  0.81660000  1.0 -0.3590535884
C  C523  1  0.41760000  0.66500000  0.68340000  1.0 -0.3590535884
C  C524  1  0.08240000  0.33500000  0.18340000  1.0 -0.3590535884
C  C525  1  0.68500000  0.97700000  0.32500000  1.0 -0.3590535884
C  C526  1  0.81500000  0.02300000  0.82500000  1.0 -0.3590535884
C  C527  1  0.18500000  0.52300000  0.67500000  1.0 -0.3590535884
C  C528  1  0.31500000  0.47700000  0.17500000  1.0 -0.3590535884
C  C529  1  0.92660000  0.80660000  0.16800000  1.0 0.4342462824
C  C530  1  0.57340000  0.19340000  0.66800000  1.0 0.4342462824
C  C531  1  0.42660000  0.69340000  0.83200000  1.0 0.4342462824
C  C532  1  0.07340000  0.30660000  0.33200000  1.0 0.4342462824
C  C533  1  0.89740000  0.76380000  0.17060000  1.0 0.3194647375
C  C534  1  0.60260000  0.23620000  0.67060000  1.0 0.3194647375
C  C535  1  0.39740000  0.73620000  0.82940000  1.0 0.3194647375
C  C536  1  0.10260000  0.26380000  0.32940000  1.0 0.3194647375
C  C537  1  0.90410000  0.67720000  0.17580000  1.0 0.1286806416
C  C538  1  0.59590000  0.32280000  0.67580000  1.0 0.1286806416
C  C539  1  0.40410000  0.82280000  0.82420000  1.0 0.1286806416
C  C540  1  0.09590000  0.17720000  0.32420000  1.0 0.1286806416
C  C541  1  0.88050000  0.66100000  0.13850000  1.0 0.0697151893
C  C542  1  0.61950000  0.33900000  0.63850000  1.0 0.0697151893
C  C543  1  0.38050000  0.83900000  0.86150000  1.0 0.0697151893
C  C544  1  0.11950000  0.16100000  0.36150000  1.0 0.0697151893
C  C545  1  0.85630000  0.61800000  0.13910000  1.0 -0.149125092
C  C546  1  0.64370000  0.38200000  0.63910000  1.0 -0.149125092
C  C547  1  0.35630000  0.88200000  0.86090000  1.0 -0.149125092
C  C548  1  0.14370000  0.11800000  0.36090000  1.0 -0.149125092
C  C549  1  0.85570000  0.59120000  0.17720000  1.0 -0.1003055827
C  C550  1  0.64430000  0.40880000  0.67720000  1.0 -0.1003055827
C  C551  1  0.35570000  0.90880000  0.82280000  1.0 -0.1003055827
C  C552  1  0.14430000  0.09120000  0.32280000  1.0 -0.1003055827
C  C553  1  0.87930000  0.60740000  0.21450000  1.0 -0.1796310098
C  C554  1  0.62070000  0.39260000  0.71450000  1.0 -0.1796310098
C  C555  1  0.37930000  0.89260000  0.78550000  1.0 -0.1796310098
C  C556  1  0.12070000  0.10740000  0.28550000  1.0 -0.1796310098
C  C557  1  0.90350000  0.65040000  0.21390000  1.0 0.0697151893
C  C558  1  0.59650000  0.34960000  0.71390000  1.0 0.0697151893
C  C559  1  0.40350000  0.84960000  0.78610000  1.0 0.0697151893
C  C560  1  0.09650000  0.15040000  0.28610000  1.0 0.0697151893
C  C561  1  0.86740000  0.68800000  0.09420000  1.0 -0.142565049
C  C562  1  0.63260000  0.31200000  0.59420000  1.0 -0.142565049
C  C563  1  0.36740000  0.81200000  0.90580000  1.0 -0.142565049
C  C564  1  0.13260000  0.18800000  0.40580000  1.0 -0.142565049
C  C565  1  0.89800000  0.68140000  0.25850000  1.0 -0.149125092
C  C566  1  0.60200000  0.31860000  0.75850000  1.0 -0.149125092
C  C567  1  0.39800000  0.81860000  0.74150000  1.0 -0.149125092
C  C568  1  0.10200000  0.18140000  0.24150000  1.0 -0.149125092
C  C569  1  0.80940000  0.69500000  0.09200000  1.0 -0.3682769845
C  C570  1  0.69060000  0.30500000  0.59200000  1.0 -0.3682769845
C  C571  1  0.30940000  0.80500000  0.90800000  1.0 -0.3682769845
C  C572  1  0.19060000  0.19500000  0.40800000  1.0 -0.3682769845
C  C573  1  0.94600000  0.70600000  0.27450000  1.0 -0.3682769845
C  C574  1  0.55400000  0.29400000  0.77450000  1.0 -0.3682769845
C  C575  1  0.44600000  0.79400000  0.72550000  1.0 -0.3682769845
C  C576  1  0.05400000  0.20600000  0.22550000  1.0 -0.3682769845
N  N1  1  0.42500000  0.94740000  0.22060000  1.0 -0.3988409987
N  N2  1  0.07500000  0.05260000  0.72060000  1.0 -0.3988409987
N  N3  1  0.92500000  0.55260000  0.77940000  1.0 -0.3988409987
N  N4  1  0.57500000  0.44740000  0.27940000  1.0 -0.3988409987
N  N5  1  0.50370000  0.14290000  0.08020000  1.0 -0.4468836798
N  N6  1  0.99630000  0.85710000  0.58020000  1.0 -0.4468836798
N  N7  1  0.00370000  0.35710000  0.91980000  1.0 -0.4468836798
N  N8  1  0.49630000  0.64290000  0.41980000  1.0 -0.4468836798
N  N9  1  0.29780000  0.04130000  0.02500000  1.0 -0.3682769845
N  N10  1  0.20220000  0.95870000  0.52500000  1.0 -0.3590535884
N  N11  1  0.79780000  0.45870000  0.97500000  1.0 -0.3590535884
N  N12  1  0.70220000  0.54130000  0.47500000  1.0 -0.3590535884
N  N13  1  0.47760000  0.27260000  0.05360000  1.0 -0.4299122809
N  N14  1  0.02240000  0.72740000  0.55360000  1.0 -0.4299122809
N  N15  1  0.97760000  0.22740000  0.94640000  1.0 -0.4299122809
N  N16  1  0.52240000  0.77260000  0.44640000  1.0 -0.4299122809
N  N17  1  0.16370000  0.07340000  0.04160000  1.0 -0.4299122809
N  N18  1  0.33630000  0.92660000  0.54160000  1.0 -0.4299122809
N  N19  1  0.66370000  0.42660000  0.95840000  1.0 -0.4299122809
N  N20  1  0.83630000  0.57340000  0.45840000  1.0 -0.4299122809
N  N21  1  0.56960000  0.47880000  0.15620000  1.0 -0.4299122809
N  N22  1  0.93040000  0.52120000  0.65620000  1.0 -0.4299122809
N  N23  1  0.06960000  0.02120000  0.84380000  1.0 -0.4299122809
N  N24  1  0.43040000  0.97880000  0.34380000  1.0 -0.4299122809
N  N25  1  0.69070000  0.94690000  0.73580000  1.0 -0.4087234364
N  N26  1  0.80930000  0.05310000  0.23580000  1.0 -0.4087234364
N  N27  1  0.19070000  0.55310000  0.26420000  1.0 -0.4087234364
N  N28  1  0.30930000  0.44690000  0.76420000  1.0 -0.4087234364
N  N29  1  0.56670000  0.74710000  0.82590000  1.0 -0.3497677908
N  N30  1  0.93330000  0.25290000  0.32590000  1.0 -0.3497677908
N  N31  1  0.06670000  0.75290000  0.17410000  1.0 -0.3497677908
N  N32  1  0.43330000  0.24710000  0.67410000  1.0 -0.3497677908
N  N33  1  0.76900000  0.81740000  0.93870000  1.0 -0.4689882409
N  N34  1  0.73100000  0.18260000  0.43870000  1.0 -0.4689882409
N  N35  1  0.26900000  0.68260000  0.06130000  1.0 -0.4689882409
N  N36  1  0.23100000  0.31740000  0.56130000  1.0 -0.4689882409
N  N37  1  0.72230000  0.80640000  0.05510000  1.0 -0.4689882409
N  N38  1  0.77770000  0.19360000  0.55510000  1.0 -0.4689882409
N  N39  1  0.22230000  0.69360000  0.94490000  1.0 -0.4689882409
N  N40  1  0.27770000  0.30640000  0.44490000  1.0 -0.4689882409
N  N41  1  0.80070000  0.91930000  0.25650000  1.0 -0.3988409987
N  N42  1  0.69930000  0.08070000  0.75650000  1.0 -0.3988409987
N  N43  1  0.30070000  0.58070000  0.74350000  1.0 -0.3988409987
N  N44  1  0.19930000  0.41930000  0.24350000  1.0 -0.3988409987
N  N45  1  0.93060000  0.72580000  0.17400000  1.0 -0.4773757707
N  N46  1  0.56940000  0.27420000  0.67400000  1.0 -0.4773757707
N  N47  1  0.43060000  0.77420000  0.82600000  1.0 -0.4773757707
N  N48  1  0.06940000  0.22580000  0.32600000  1.0 -0.4773757707
O  O1  1  0.41020000  0.02780000  0.26280000  1.0 -0.4773757707
O  O2  1  0.08980000  0.97220000  0.76280000  1.0 -0.4773757707
O  O3  1  0.91020000  0.47220000  0.73720000  1.0 -0.4773757707
O  O4  1  0.58980000  0.52780000  0.23720000  1.0 -0.4773757707
O  O5  1  0.41880000  0.98720000  0.15430000  1.0 -0.4406295643
O  O6  1  0.08120000  0.01280000  0.65430000  1.0 -0.4406295643
O  O7  1  0.91880000  0.51280000  0.84570000  1.0 -0.4406295643
O  O8  1  0.58120000  0.48720000  0.34570000  1.0 -0.4406295643
O  O9  1  0.40210000  0.06610000  0.19800000  1.0 -0.4299122809
O  O10  1  0.09790000  0.93390000  0.69800000  1.0 -0.4299122809
O  O11  1  0.90210000  0.43390000  0.80200000  1.0 -0.4299122809
O  O12  1  0.59790000  0.56610000  0.30200000  1.0 -0.4299122809
O  O13  1  0.46470000  0.07640000  0.10550000  1.0 -0.4087234364
O  O14  1  0.03530000  0.92360000  0.60550000  1.0 -0.4087234364
O  O15  1  0.96470000  0.42360000  0.89450000  1.0 -0.4087234364
O  O16  1  0.53530000  0.57640000  0.39450000  1.0 -0.4087234364
O  O17  1  0.38600000  0.12890000  0.11820000  1.0 -0.4689882409
O  O18  1  0.11400000  0.87110000  0.61820000  1.0 -0.4689882409
O  O19  1  0.88600000  0.37110000  0.88180000  1.0 -0.4689882409
O  O20  1  0.61400000  0.62890000  0.38180000  1.0 -0.4689882409
O  O21  1  0.36900000  0.03010000  0.06900000  1.0 -0.4406295643
O  O22  1  0.13100000  0.96990000  0.56900000  1.0 -0.4406295643
O  O23  1  0.86900000  0.46990000  0.93100000  1.0 -0.4406295643
O  O24  1  0.63100000  0.53010000  0.43100000  1.0 -0.4406295643
O  O25  1  0.31660000  0.04850000  0.13930000  1.0 -0.3497677908
O  O26  1  0.18340000  0.95150000  0.63930000  1.0 -0.3497677908
O  O27  1  0.81660000  0.45150000  0.86070000  1.0 -0.3497677908
O  O28  1  0.68340000  0.54850000  0.36070000  1.0 -0.3497677908
O  O29  1  0.42390000  0.19140000  0.08980000  1.0 -0.4087234364
O  O30  1  0.07610000  0.80860000  0.58980000  1.0 -0.4087234364
O  O31  1  0.92390000  0.30860000  0.91020000  1.0 -0.4087234364
O  O32  1  0.57610000  0.69140000  0.41020000  1.0 -0.4087234364
O  O33  1  0.24820000  0.05630000  0.09660000  1.0 -0.4997606428
O  O34  1  0.25180000  0.94370000  0.59660000  1.0 -0.4997606428
O  O35  1  0.74820000  0.44370000  0.90340000  1.0 -0.4997606428
O  O36  1  0.75180000  0.55630000  0.40340000  1.0 -0.4997606428
O  O37  1  0.55950000  0.22880000  0.06610000  1.0 -0.4468836798
O  O38  1  0.94050000  0.77120000  0.56610000  1.0 -0.4468836798
O  O39  1  0.05950000  0.27120000  0.93390000  1.0 -0.4468836798
O  O40  1  0.44050000  0.72880000  0.43390000  1.0 -0.4468836798
O  O41  1  0.22510000  0.08280000  0.97400000  1.0 -0.4468836798
O  O42  1  0.27490000  0.91720000  0.47400000  1.0 -0.4468836798
O  O43  1  0.72510000  0.41720000  0.02600000  1.0 -0.4468836798
O  O44  1  0.77490000  0.58280000  0.52600000  1.0 -0.4468836798
O  O45  1  0.51760000  0.34280000  0.04730000  1.0 -0.4468836798
O  O46  1  0.98240000  0.65720000  0.54730000  1.0 -0.4468836798
O  O47  1  0.01760000  0.15720000  0.95270000  1.0 -0.4468836798
O  O48  1  0.48240000  0.84280000  0.45270000  1.0 -0.4468836798
O  O49  1  0.60300000  0.29510000  0.06000000  1.0 -0.4468836798
O  O50  1  0.89700000  0.70490000  0.56000000  1.0 -0.4468836798
O  O51  1  0.10300000  0.20490000  0.94000000  1.0 -0.4468836798
O  O52  1  0.39700000  0.79510000  0.44000000  1.0 -0.4468836798
O  O53  1  0.59190000  0.36050000  0.13630000  1.0 -0.4087234364
O  O54  1  0.90810000  0.63950000  0.63630000  1.0 -0.4087234364
O  O55  1  0.09190000  0.13950000  0.86370000  1.0 -0.4087234364
O  O56  1  0.40810000  0.86050000  0.36370000  1.0 -0.4087234364
O  O57  1  0.56340000  0.43870000  0.09100000  1.0 -0.4406295643
O  O58  1  0.93660000  0.56130000  0.59100000  1.0 -0.4406295643
O  O59  1  0.06340000  0.06130000  0.90900000  1.0 -0.4406295643
O  O60  1  0.43660000  0.93870000  0.40900000  1.0 -0.4406295643
O  O61  1  0.60150000  0.39880000  0.00130000  1.0 -0.4219770321
O  O62  1  0.89850000  0.60120000  0.50130000  1.0 -0.4219770321
O  O63  1  0.10150000  0.10120000  0.99870000  1.0 -0.4219770321
O  O64  1  0.39850000  0.89880000  0.49870000  1.0 -0.4219770321
O  O65  1  0.66460000  0.38840000  0.06760000  1.0 -0.4406295643
O  O66  1  0.83540000  0.61160000  0.56760000  1.0 -0.4406295643
O  O67  1  0.16460000  0.11160000  0.93240000  1.0 -0.4406295643
O  O68  1  0.33540000  0.88840000  0.43240000  1.0 -0.4406295643
O  O69  1  0.58650000  0.40060000  0.19750000  1.0 -0.4689882409
O  O70  1  0.91350000  0.59940000  0.69750000  1.0 -0.4689882409
O  O71  1  0.08650000  0.09940000  0.80250000  1.0 -0.4689882409
O  O72  1  0.41350000  0.90060000  0.30250000  1.0 -0.4689882409
O  O73  1  0.68400000  0.99430000  0.80840000  1.0 -0.3988409987
O  O74  1  0.81600000  0.00570000  0.30840000  1.0 -0.3988409987
O  O75  1  0.18400000  0.50570000  0.19160000  1.0 -0.3988409987
O  O76  1  0.31600000  0.49430000  0.69160000  1.0 -0.3988409987
O  O77  1  0.67780000  0.93030000  0.84710000  1.0 -0.4406295643
O  O78  1  0.82220000  0.06970000  0.34710000  1.0 -0.4406295643
O  O79  1  0.17780000  0.56970000  0.15290000  1.0 -0.4406295643
O  O80  1  0.32220000  0.43030000  0.65290000  1.0 -0.4406295643
O  O81  1  0.69200000  0.87670000  0.77570000  1.0 -0.4406295643
O  O82  1  0.80800000  0.12330000  0.27570000  1.0 -0.4406295643
O  O83  1  0.19200000  0.62330000  0.22430000  1.0 -0.4406295643
O  O84  1  0.30800000  0.37670000  0.72430000  1.0 -0.4406295643
O  O85  1  0.52100000  0.82730000  0.83470000  1.0 -0.3229122014
O  O86  1  0.97900000  0.17270000  0.33470000  1.0 -0.3229122014
O  O87  1  0.02100000  0.67270000  0.16530000  1.0 -0.3229122014
O  O88  1  0.47900000  0.32730000  0.66530000  1.0 -0.3229122014
O  O89  1  0.58510000  0.86830000  0.82870000  1.0 -0.4299122809
O  O90  1  0.91490000  0.13170000  0.32870000  1.0 -0.4299122809
O  O91  1  0.08510000  0.63170000  0.17130000  1.0 -0.4299122809
O  O92  1  0.41490000  0.36830000  0.67130000  1.0 -0.4299122809
O  O93  1  0.63850000  0.78640000  0.81900000  1.0 -0.4406295643
O  O94  1  0.86150000  0.21360000  0.31900000  1.0 -0.4406295643
O  O95  1  0.13850000  0.71360000  0.18100000  1.0 -0.4406295643
O  O96  1  0.36150000  0.28640000  0.68100000  1.0 -0.4406295643
O  O97  1  0.73730000  0.83100000  0.86760000  1.0 -0.4406295643
O  O98  1  0.76270000  0.16900000  0.36760000  1.0 -0.4406295643
O  O99  1  0.23730000  0.66900000  0.13240000  1.0 -0.4406295643
O  O100  1  0.26270000  0.33100000  0.63240000  1.0 -0.4406295643
O  O101  1  0.64420000  0.84850000  0.90450000  1.0 -0.4773757707
O  O102  1  0.85580000  0.15150000  0.40450000  1.0 -0.4773757707
O  O103  1  0.14420000  0.65150000  0.09550000  1.0 -0.4773757707
O  O104  1  0.35580000  0.34850000  0.59550000  1.0 -0.4773757707
O  O105  1  0.68120000  0.82510000  0.96980000  1.0 -0.4468836798
O  O106  1  0.81880000  0.17490000  0.46980000  1.0 -0.4468836798
O  O107  1  0.18120000  0.67490000  0.03020000  1.0 -0.4468836798
O  O108  1  0.31880000  0.32510000  0.53020000  1.0 -0.4468836798
O  O109  1  0.80760000  0.81960000  0.02110000  1.0 -0.4689882409
O  O110  1  0.69240000  0.18040000  0.52110000  1.0 -0.4689882409
O  O111  1  0.30760000  0.68040000  0.97890000  1.0 -0.4689882409
O  O112  1  0.19240000  0.31960000  0.47890000  1.0 -0.4689882409
O  O113  1  0.84220000  0.82660000  0.08640000  1.0 -0.3441720085
O  O114  1  0.65780000  0.17340000  0.58640000  1.0 -0.3441720085
O  O115  1  0.34220000  0.67340000  0.91360000  1.0 -0.3441720085
O  O116  1  0.15780000  0.32660000  0.41360000  1.0 -0.3441720085
O  O117  1  0.75460000  0.80750000  0.12450000  1.0 -0.4219770321
O  O118  1  0.74540000  0.19250000  0.62450000  1.0 -0.4219770321
O  O119  1  0.25460000  0.69250000  0.87550000  1.0 -0.4219770321
O  O120  1  0.24540000  0.30750000  0.37550000  1.0 -0.4219770321
O  O121  1  0.79800000  0.85070000  0.21830000  1.0 -0.4689882409
O  O122  1  0.70200000  0.14930000  0.71830000  1.0 -0.4689882409
O  O123  1  0.29800000  0.64930000  0.78170000  1.0 -0.4689882409
O  O124  1  0.20200000  0.35070000  0.28170000  1.0 -0.4689882409
O  O125  1  0.81610000  0.90300000  0.14530000  1.0 -0.4299122809
O  O126  1  0.68390000  0.09700000  0.64530000  1.0 -0.4299122809
O  O127  1  0.31610000  0.59700000  0.85470000  1.0 -0.4299122809
O  O128  1  0.18390000  0.40300000  0.35470000  1.0 -0.4299122809
O  O129  1  0.81590000  0.96910000  0.18460000  1.0 -0.4565991015
O  O130  1  0.68410000  0.03090000  0.68460000  1.0 -0.4565991015
O  O131  1  0.31590000  0.53090000  0.81540000  1.0 -0.4565991015
O  O132  1  0.18410000  0.46910000  0.31540000  1.0 -0.4565991015
O  O133  1  0.85300000  0.76140000  0.17470000  1.0 -0.3888923676
O  O134  1  0.64700000  0.23860000  0.67470000  1.0 -0.3888923676
O  O135  1  0.35300000  0.73860000  0.82530000  1.0 -0.3888923676
O  O136  1  0.14700000  0.26140000  0.32530000  1.0 -0.3888923676
O  O137  1  0.90280000  0.84490000  0.16620000  1.0 -0.4299122809
O  O138  1  0.59720000  0.15510000  0.66620000  1.0 -0.4299122809
O  O139  1  0.40280000  0.65510000  0.83380000  1.0 -0.4299122809
O  O140  1  0.09720000  0.34490000  0.33380000  1.0 -0.4299122809
O  O141  1  0.97540000  0.80330000  0.16670000  1.0 -0.4689882409
O  O142  1  0.52460000  0.19670000  0.66666667  1.0 -0.4689882409
O  O143  1  0.47540000  0.69670000  0.83330000  1.0 -0.4689882409
O  O144  1  0.02460000  0.30330000  0.33333333  1.0 -0.4689882409
