# DDEC6 charges by PACMAN v1.1 (https://github.com/mtap-research/PACMAN-charge/)
data_QUSQIG_FSR_pacman
_symmetry_space_group_name_H-M   'P 1'
_cell_length_a   27.36560000
_cell_length_b   27.36560000
_cell_length_c   27.36560000
_cell_angle_alpha   143.49300000
_cell_angle_beta   143.49300000
_cell_angle_gamma   52.58610000
_symmetry_Int_Tables_number   1
_chemical_formula_structural   ZnH44Ir2C68(NO)8
_chemical_formula_sum   'Zn4 H176 Ir8 C272 N32 O32'
_cell_volume   7210.22279118
_cell_formula_units_Z   4
loop_
 _symmetry_equiv_pos_site_id
 _symmetry_equiv_pos_as_xyz
  1  'x, y, z'
loop_
 _atom_site_type_symbol
 _atom_site_label
 _atom_site_symmetry_multiplicity
 _atom_site_fract_x
 _atom_site_fract_y
 _atom_site_fract_z
 _atom_site_occupancy
 _atom_site_charge
Zn  Zn1  1  0.51488000  0.01488000  0.50000000  1.0 0.9502584779
Zn  Zn2  1  0.26488000  0.26488000  0.00000000  1.0 0.9502584779
Zn  Zn3  1  0.76488000  0.76488000  0.00000000  1.0 0.9502584779
Zn  Zn4  1  0.01488000  0.51488000  0.50000000  1.0 0.9502584779
H  H1  1  0.89010000  0.01480000  0.52830000  1.0 0.1022122533
H  H2  1  0.48650000  0.36180000  0.47170000  1.0 0.1022122533
H  H3  1  0.61180000  0.23650000  0.97170000  1.0 0.1022122533
H  H4  1  0.26480000  0.64010000  0.02830000  1.0 0.1022122533
H  H5  1  0.88540000  0.78630000  0.52270000  1.0 0.1190616808
H  H6  1  0.26360000  0.36270000  0.47730000  1.0 0.1190616808
H  H7  1  0.61270000  0.01360000  0.97730000  1.0 0.1190616808
H  H8  1  0.03630000  0.63540000  0.02270000  1.0 0.1190616808
H  H9  1  0.81900000  0.98690000  0.37750000  1.0 0.1380291016
H  H10  1  0.60940000  0.44150000  0.62250000  1.0 0.1380291016
H  H11  1  0.69150000  0.35940000  0.12250000  1.0 0.1380291016
H  H12  1  0.23690000  0.56900000  0.87750000  1.0 0.1380291016
H  H13  1  0.71590000  0.69140000  0.17890000  1.0 0.1118608684
H  H14  1  0.51250000  0.53700000  0.82110000  1.0 0.1118608684
H  H15  1  0.78700000  0.26250000  0.32110000  1.0 0.1118608684
H  H16  1  0.94140000  0.46590000  0.67890000  1.0 0.1118608684
H  H17  1  0.11920000  0.79290000  0.52110000  1.0 0.1118608684
H  H18  1  0.27180000  0.59810000  0.47890000  1.0 0.1118608684
H  H19  1  0.84810000  0.02180000  0.97890000  1.0 0.1118608684
H  H20  1  0.04290000  0.86920000  0.02110000  1.0 0.1118608684
H  H21  1  0.01970000  0.25860000  0.86130000  1.0 0.1380291016
H  H22  1  0.39730000  0.15840000  0.13870000  1.0 0.1380291016
H  H23  1  0.40840000  0.14730000  0.63870000  1.0 0.1380291016
H  H24  1  0.50860000  0.76970000  0.36130000  1.0 0.1380291016
H  H25  1  0.75590000  0.91440000  0.50210000  1.0 0.1118608684
H  H26  1  0.41230000  0.25380000  0.49790000  1.0 0.1118608684
H  H27  1  0.50380000  0.16230000  0.99790000  1.0 0.1118608684
H  H28  1  0.16440000  0.50590000  0.00210000  1.0 0.1118608684
H  H29  1  0.80000000  0.19220000  0.73080000  1.0 0.1307016959
H  H30  1  0.46140000  0.06920000  0.26920000  1.0 0.1307016959
H  H31  1  0.31920000  0.21140000  0.76920000  1.0 0.1307016959
H  H32  1  0.44220000  0.55000000  0.23080000  1.0 0.1307016959
H  H33  1  0.98920000  0.96770000  0.84630000  1.0 0.1307016959
H  H34  1  0.12140000  0.14290000  0.15370000  1.0 0.1307016959
H  H35  1  0.39290000  0.87140000  0.65370000  1.0 0.1307016959
H  H36  1  0.21770000  0.73920000  0.34630000  1.0 0.1307016959
H  H37  1  0.72390000  0.61400000  0.19270000  1.0 0.1022122533
H  H38  1  0.42130000  0.53120000  0.80730000  1.0 0.1022122533
H  H39  1  0.78120000  0.17130000  0.30730000  1.0 0.1022122533
H  H40  1  0.86400000  0.47390000  0.69270000  1.0 0.1022122533
H  H41  1  0.90440000  0.22880000  0.79240000  1.0 0.1190616808
H  H42  1  0.43640000  0.11200000  0.20760000  1.0 0.1190616808
H  H43  1  0.36200000  0.18640000  0.70760000  1.0 0.1190616808
H  H44  1  0.47880000  0.65440000  0.29240000  1.0 0.1190616808
H  H45  1  0.69380000  0.14290000  0.65450000  1.0 0.1380291016
H  H46  1  0.48840000  0.03930000  0.34550000  1.0 0.1380291016
H  H47  1  0.28930000  0.23840000  0.84550000  1.0 0.1380291016
H  H48  1  0.39290000  0.44380000  0.15450000  1.0 0.1380291016
H  H49  1  0.79660000  0.66460000  0.35920000  1.0 0.1307016959
H  H50  1  0.30540000  0.43740000  0.64080000  1.0 0.1307016959
H  H51  1  0.68740000  0.05540000  0.14080000  1.0 0.1307016959
H  H52  1  0.91460000  0.54660000  0.85920000  1.0 0.1307016959
H  H53  1  0.09380000  0.88260000  0.86120000  1.0 0.1307016959
H  H54  1  0.02140000  0.23260000  0.13880000  1.0 0.1307016959
H  H55  1  0.48260000  0.77140000  0.63880000  1.0 0.1307016959
H  H56  1  0.13260000  0.84380000  0.36120000  1.0 0.1307016959
H  H57  1  0.19080000  0.74740000  0.60860000  1.0 0.1118608684
H  H58  1  0.13880000  0.58220000  0.39140000  1.0 0.1118608684
H  H59  1  0.83220000  0.88880000  0.89140000  1.0 0.1118608684
H  H60  1  0.99740000  0.94080000  0.10860000  1.0 0.1118608684
H  H61  1  0.16540000  0.78540000  0.69400000  1.0 0.1190616808
H  H62  1  0.09140000  0.47140000  0.30600000  1.0 0.1190616808
H  H63  1  0.72140000  0.84140000  0.80600000  1.0 0.1190616808
H  H64  1  0.03540000  0.91540000  0.19400000  1.0 0.1190616808
H  H65  1  0.71540000  0.77740000  0.18300000  1.0 0.1307016959
H  H66  1  0.59440000  0.53240000  0.81700000  1.0 0.1307016959
H  H67  1  0.78240000  0.34440000  0.31700000  1.0 0.1307016959
H  H68  1  0.02740000  0.46540000  0.68300000  1.0 0.1307016959
H  H69  1  0.13050000  0.82700000  0.77490000  1.0 0.1380291016
H  H70  1  0.05210000  0.35560000  0.22510000  1.0 0.1380291016
H  H71  1  0.60560000  0.80210000  0.72510000  1.0 0.1380291016
H  H72  1  0.07700000  0.88050000  0.27490000  1.0 0.1380291016
H  H73  1  0.73340000  0.86560000  0.20300000  1.0 0.1380291016
H  H74  1  0.66260000  0.53040000  0.79700000  1.0 0.1380291016
H  H75  1  0.78040000  0.41260000  0.29700000  1.0 0.1380291016
H  H76  1  0.11560000  0.48340000  0.70300000  1.0 0.1380291016
H  H77  1  0.00410000  0.86720000  0.50330000  1.0 0.1190616808
H  H78  1  0.36390000  0.50080000  0.49670000  1.0 0.1190616808
H  H79  1  0.75080000  0.11390000  0.99670000  1.0 0.1190616808
H  H80  1  0.11720000  0.75410000  0.00330000  1.0 0.1190616808
H  H81  1  0.92250000  0.99210000  0.74200000  1.0 0.1118608684
H  H82  1  0.25010000  0.18050000  0.25800000  1.0 0.1118608684
H  H83  1  0.43050000  0.00010000  0.75800000  1.0 0.1118608684
H  H84  1  0.24210000  0.67250000  0.24200000  1.0 0.1118608684
H  H85  1  0.06720000  0.02700000  0.72540000  1.0 0.1118608684
H  H86  1  0.30160000  0.34180000  0.27460000  1.0 0.1118608684
H  H87  1  0.59180000  0.05160000  0.77460000  1.0 0.1118608684
H  H88  1  0.27700000  0.81720000  0.22540000  1.0 0.1118608684
H  H89  1  0.11180000  0.14010000  0.37530000  1.0 0.1022122533
H  H90  1  0.76480000  0.73650000  0.62470000  1.0 0.1022122533
H  H91  1  0.98650000  0.51480000  0.12470000  1.0 0.1022122533
H  H92  1  0.39010000  0.86180000  0.87530000  1.0 0.1022122533
H  H93  1  0.11270000  0.13540000  0.59910000  1.0 0.1190616808
H  H94  1  0.53630000  0.51360000  0.40090000  1.0 0.1190616808
H  H95  1  0.76360000  0.28630000  0.90090000  1.0 0.1190616808
H  H96  1  0.38540000  0.86270000  0.09910000  1.0 0.1190616808
H  H97  1  0.19150000  0.06900000  0.33210000  1.0 0.1380291016
H  H98  1  0.73690000  0.85940000  0.66790000  1.0 0.1380291016
H  H99  1  0.10940000  0.48690000  0.16790000  1.0 0.1380291016
H  H100  1  0.31900000  0.94150000  0.83210000  1.0 0.1380291016
H  H101  1  0.28700000  0.96590000  0.52450000  1.0 0.1118608684
H  H102  1  0.44140000  0.76250000  0.47550000  1.0 0.1118608684
H  H103  1  0.01250000  0.19140000  0.97550000  1.0 0.1118608684
H  H104  1  0.21590000  0.03700000  0.02450000  1.0 0.1118608684
H  H105  1  0.34810000  0.36920000  0.82630000  1.0 0.1118608684
H  H106  1  0.54290000  0.52180000  0.17370000  1.0 0.1118608684
H  H107  1  0.77180000  0.29290000  0.67370000  1.0 0.1118608684
H  H108  1  0.61920000  0.09810000  0.32630000  1.0 0.1118608684
H  H109  1  0.90840000  0.26970000  0.26110000  1.0 0.1380291016
H  H110  1  0.00860000  0.64730000  0.73890000  1.0 0.1380291016
H  H111  1  0.89730000  0.75860000  0.23890000  1.0 0.1380291016
H  H112  1  0.51970000  0.65840000  0.76110000  1.0 0.1380291016
H  H113  1  0.00380000  0.00590000  0.34150000  1.0 0.1118608684
H  H114  1  0.66440000  0.66230000  0.65850000  1.0 0.1118608684
H  H115  1  0.91230000  0.41440000  0.15850000  1.0 0.1118608684
H  H116  1  0.25590000  0.75380000  0.84150000  1.0 0.1118608684
H  H117  1  0.81920000  0.05000000  0.10780000  1.0 0.1307016959
H  H118  1  0.94220000  0.71140000  0.89220000  1.0 0.1307016959
H  H119  1  0.96140000  0.69220000  0.39220000  1.0 0.1307016959
H  H120  1  0.30000000  0.56920000  0.60780000  1.0 0.1307016959
H  H121  1  0.89290000  0.23920000  0.52150000  1.0 0.1307016959
H  H122  1  0.71770000  0.37140000  0.47850000  1.0 0.1307016959
H  H123  1  0.62140000  0.46770000  0.97850000  1.0 0.1307016959
H  H124  1  0.48920000  0.64290000  0.02150000  1.0 0.1307016959
H  H125  1  0.28120000  0.97390000  0.60990000  1.0 0.1022122533
H  H126  1  0.36400000  0.67130000  0.39010000  1.0 0.1022122533
H  H127  1  0.92130000  0.11400000  0.89010000  1.0 0.1022122533
H  H128  1  0.22390000  0.03120000  0.10990000  1.0 0.1022122533
H  H129  1  0.86200000  0.15440000  0.17560000  1.0 0.1190616808
H  H130  1  0.97880000  0.68640000  0.82440000  1.0 0.1190616808
H  H131  1  0.93640000  0.72880000  0.32440000  1.0 0.1190616808
H  H132  1  0.40440000  0.61200000  0.67560000  1.0 0.1190616808
H  H133  1  0.78930000  0.94380000  0.05090000  1.0 0.1380291016
H  H134  1  0.89290000  0.73840000  0.94910000  1.0 0.1380291016
H  H135  1  0.98840000  0.64290000  0.44910000  1.0 0.1380291016
H  H136  1  0.19380000  0.53930000  0.55090000  1.0 0.1380291016
H  H137  1  0.18740000  0.04660000  0.63200000  1.0 0.1307016959
H  H138  1  0.41460000  0.55540000  0.36800000  1.0 0.1307016959
H  H139  1  0.80540000  0.16460000  0.86800000  1.0 0.1307016959
H  H140  1  0.29660000  0.93740000  0.13200000  1.0 0.1307016959
H  H141  1  0.98260000  0.34380000  0.71120000  1.0 0.1307016959
H  H142  1  0.63260000  0.27140000  0.28880000  1.0 0.1307016959
H  H143  1  0.52140000  0.38260000  0.78880000  1.0 0.1307016959
H  H144  1  0.59380000  0.73260000  0.21120000  1.0 0.1307016959
H  H145  1  0.33220000  0.44080000  0.94340000  1.0 0.1118608684
H  H146  1  0.49740000  0.38880000  0.05660000  1.0 0.1118608684
H  H147  1  0.63880000  0.24740000  0.55660000  1.0 0.1118608684
H  H148  1  0.69080000  0.08220000  0.44340000  1.0 0.1118608684
H  H149  1  0.22140000  0.41540000  0.88000000  1.0 0.1190616808
H  H150  1  0.53540000  0.34140000  0.12000000  1.0 0.1190616808
H  H151  1  0.59140000  0.28540000  0.62000000  1.0 0.1190616808
H  H152  1  0.66540000  0.97140000  0.38000000  1.0 0.1190616808
H  H153  1  0.28240000  0.96540000  0.43800000  1.0 0.1307016959
H  H154  1  0.52740000  0.84440000  0.56200000  1.0 0.1307016959
H  H155  1  0.09440000  0.27740000  0.06200000  1.0 0.1307016959
H  H156  1  0.21540000  0.03240000  0.93800000  1.0 0.1307016959
H  H157  1  0.10560000  0.38050000  0.80350000  1.0 0.1380291016
H  H158  1  0.57700000  0.30210000  0.19650000  1.0 0.1380291016
H  H159  1  0.55210000  0.32700000  0.69650000  1.0 0.1380291016
H  H160  1  0.63050000  0.85560000  0.30350000  1.0 0.1380291016
H  H161  1  0.28040000  0.98340000  0.36780000  1.0 0.1380291016
H  H162  1  0.61560000  0.91260000  0.63220000  1.0 0.1380291016
H  H163  1  0.16260000  0.36560000  0.13220000  1.0 0.1380291016
H  H164  1  0.23340000  0.03040000  0.86780000  1.0 0.1380291016
H  H165  1  0.25080000  0.25410000  0.63690000  1.0 0.1190616808
H  H166  1  0.61720000  0.61390000  0.36310000  1.0 0.1190616808
H  H167  1  0.86390000  0.36720000  0.86310000  1.0 0.1190616808
H  H168  1  0.50410000  0.00080000  0.13690000  1.0 0.1190616808
H  H169  1  0.93050000  0.17250000  0.43040000  1.0 0.1118608684
H  H170  1  0.74210000  0.50010000  0.56960000  1.0 0.1118608684
H  H171  1  0.75010000  0.49210000  0.06960000  1.0 0.1118608684
H  H172  1  0.42250000  0.68050000  0.93040000  1.0 0.1118608684
H  H173  1  0.09180000  0.31720000  0.54020000  1.0 0.1118608684
H  H174  1  0.77700000  0.55160000  0.45980000  1.0 0.1118608684
H  H175  1  0.80160000  0.52700000  0.95980000  1.0 0.1118608684
H  H176  1  0.56720000  0.84180000  0.04020000  1.0 0.1118608684
Ir  Ir1  1  0.91737000  0.92589000  0.57710000  1.0 0.6133292311
Ir  Ir2  1  0.34879000  0.34027000  0.42290000  1.0 0.6162983343
Ir  Ir3  1  0.59027000  0.09879000  0.92290000  1.0 0.6162983343
Ir  Ir4  1  0.17589000  0.66737000  0.07710000  1.0 0.6162983343
Ir  Ir5  1  0.09027000  0.16737000  0.49148000  1.0 0.6162983343
Ir  Ir6  1  0.67589000  0.59879000  0.50852000  1.0 0.6162983343
Ir  Ir7  1  0.84879000  0.42589000  0.00852000  1.0 0.6162983343
Ir  Ir8  1  0.41737000  0.84027000  0.99148000  1.0 0.6162983343
C  C1  1  0.05617000  0.14717000  0.80340000  1.0 -0.0595095064
C  C2  1  0.34377000  0.25277000  0.19660000  1.0 -0.0595095064
C  C3  1  0.50277000  0.09377000  0.69660000  1.0 -0.0595095064
C  C4  1  0.39717000  0.80617000  0.30340000  1.0 -0.0595095064
C  C5  1  0.85680000  0.96500000  0.45840000  1.0 0.0098584769
C  C6  1  0.50660000  0.39840000  0.54160000  1.0 0.0098584769
C  C7  1  0.64840000  0.25660000  0.04160000  1.0 0.0098584769
C  C8  1  0.21500000  0.60680000  0.95840000  1.0 0.0098584769
C  C9  1  0.80010000  0.78480000  0.34350000  1.0 0.0098584769
C  C10  1  0.44130000  0.45660000  0.65650000  1.0 0.0098584769
C  C11  1  0.70660000  0.19130000  0.15650000  1.0 0.0098584769
C  C12  1  0.03480000  0.55010000  0.84350000  1.0 0.0098584769
C  C13  1  0.71371000  0.02391000  0.57180000  1.0 -0.0595095064
C  C14  1  0.45211000  0.14191000  0.42820000  1.0 -0.0595095064
C  C15  1  0.39191000  0.20211000  0.92820000  1.0 -0.0595095064
C  C16  1  0.27391000  0.46371000  0.07180000  1.0 -0.0595095064
C  C17  1  0.85210000  0.81450000  0.44860000  1.0 -0.1990705856
C  C18  1  0.36590000  0.40350000  0.55140000  1.0 -0.1990705856
C  C19  1  0.65350000  0.11590000  0.05140000  1.0 -0.1990705856
C  C20  1  0.06450000  0.60210000  0.94860000  1.0 -0.1990705856
C  C21  1  0.84352000  0.08222000  0.66510000  1.0 0.1481667844
C  C22  1  0.41712000  0.17842000  0.33490000  1.0 0.1481667844
C  C23  1  0.42842000  0.16712000  0.83490000  1.0 0.1481667844
C  C24  1  0.33222000  0.59352000  0.16510000  1.0 0.1481667844
C  C25  1  0.85180000  0.76800000  0.45480000  1.0 -0.1178639701
C  C26  1  0.31320000  0.39700000  0.54520000  1.0 -0.1178639701
C  C27  1  0.64700000  0.06320000  0.04520000  1.0 -0.1178639701
C  C28  1  0.01800000  0.60180000  0.95480000  1.0 -0.1178639701
C  C29  1  0.06560000  0.84410000  0.64450000  1.0 0.0191826298
C  C30  1  0.19960000  0.42110000  0.35550000  1.0 0.0191826298
C  C31  1  0.67110000  0.94960000  0.85550000  1.0 0.0191826298
C  C32  1  0.09410000  0.81560000  0.14450000  1.0 0.0191826298
C  C33  1  0.81330000  0.94910000  0.36800000  1.0 -0.1399504466
C  C34  1  0.58110000  0.44530000  0.63200000  1.0 -0.1399504466
C  C35  1  0.69530000  0.33110000  0.13200000  1.0 -0.1399504466
C  C36  1  0.19910000  0.56330000  0.86800000  1.0 -0.1399504466
C  C37  1  0.75050000  0.71050000  0.24760000  1.0 -0.1498668278
C  C38  1  0.46290000  0.50290000  0.75240000  1.0 -0.1498668278
C  C39  1  0.75290000  0.21290000  0.25240000  1.0 -0.1498668278
C  C40  1  0.96050000  0.50050000  0.74760000  1.0 -0.1399504466
C  C41  1  0.10390000  0.80490000  0.55020000  1.0 -0.1070908389
C  C42  1  0.25470000  0.55370000  0.44980000  1.0 -0.1070908389
C  C43  1  0.80370000  0.00470000  0.94980000  1.0 -0.1012000495
C  C44  1  0.05490000  0.85390000  0.05020000  1.0 -0.1070908389
C  C45  1  0.00683000  0.20543000  0.82040000  1.0 -0.0534460155
C  C46  1  0.38503000  0.18643000  0.17960000  1.0 -0.0534460155
C  C47  1  0.43643000  0.13503000  0.67960000  1.0 -0.0534460155
C  C48  1  0.45543000  0.75683000  0.32040000  1.0 -0.0534460155
C  C49  1  0.76542000  0.97092000  0.54930000  1.0 0.0098584769
C  C50  1  0.42162000  0.21612000  0.45070000  1.0 0.0098584769
C  C51  1  0.46612000  0.17162000  0.95070000  1.0 0.0098584769
C  C52  1  0.22092000  0.51542000  0.04930000  1.0 0.0098584769
C  C53  1  0.79110000  0.13590000  0.68540000  1.0 -0.1498668278
C  C54  1  0.45050000  0.10570000  0.31460000  1.0 -0.1498668278
C  C55  1  0.35570000  0.20050000  0.81460000  1.0 -0.1498668278
C  C56  1  0.38590000  0.54110000  0.18540000  1.0 -0.1498668278
C  C57  1  0.00390000  0.94340000  0.80950000  1.0 -0.1776594122
C  C58  1  0.13390000  0.19440000  0.19050000  1.0 -0.1776594122
C  C59  1  0.44440000  0.88390000  0.69050000  1.0 -0.1776594122
C  C60  1  0.19340000  0.75390000  0.30950000  1.0 -0.1776594122
C  C61  1  0.01268000  0.86628000  0.58200000  1.0 -0.1603777862
C  C62  1  0.28428000  0.43068000  0.41800000  1.0 -0.1603777862
C  C63  1  0.68068000  0.03428000  0.91800000  1.0 -0.1603777862
C  C64  1  0.11628000  0.76268000  0.08200000  1.0 -0.1603777862
C  C65  1  0.75400000  0.66590000  0.25670000  1.0 -0.1070908389
C  C66  1  0.40920000  0.49730000  0.74330000  1.0 -0.1070908389
C  C67  1  0.74730000  0.15920000  0.24330000  1.0 -0.1070908389
C  C68  1  0.91590000  0.50400000  0.75670000  1.0 -0.1070908389
C  C69  1  0.64573000  0.98823000  0.52210000  1.0 0.5542933339
C  C70  1  0.46613000  0.12363000  0.47790000  1.0 0.5542933339
C  C71  1  0.37363000  0.21613000  0.97790000  1.0 0.5542933339
C  C72  1  0.23823000  0.39573000  0.02210000  1.0 0.5542933339
C  C73  1  0.79910000  0.84190000  0.34560000  1.0 0.17002166
C  C74  1  0.49630000  0.45350000  0.65440000  1.0 0.17002166
C  C75  1  0.70350000  0.24630000  0.15440000  1.0 0.17002166
C  C76  1  0.09190000  0.54910000  0.84560000  1.0 0.17002166
C  C77  1  0.93735000  0.18745000  0.77810000  1.0 -0.1776594122
C  C78  1  0.40935000  0.15925000  0.22190000  1.0 -0.1776594122
C  C79  1  0.40925000  0.15935000  0.72190000  1.0 -0.1776594122
C  C80  1  0.43745000  0.68735000  0.27810000  1.0 -0.1776594122
C  C81  1  0.72824000  0.10674000  0.63990000  1.0 -0.0595095064
C  C82  1  0.46684000  0.08834000  0.36010000  1.0 -0.0595095064
C  C83  1  0.33834000  0.21684000  0.86010000  1.0 -0.0595095064
C  C84  1  0.35674000  0.47824000  0.13990000  1.0 -0.0595095064
C  C85  1  0.80020000  0.69470000  0.35730000  1.0 -0.0800733665
C  C86  1  0.33740000  0.44290000  0.64270000  1.0 -0.0800733665
C  C87  1  0.69290000  0.08740000  0.14270000  1.0 -0.0800733665
C  C88  1  0.94470000  0.55020000  0.85730000  1.0 -0.0800733665
C  C89  1  0.06640000  0.89320000  0.81900000  1.0 -0.0313340999
C  C90  1  0.07420000  0.24740000  0.18100000  1.0 -0.0313340999
C  C91  1  0.49740000  0.82420000  0.68100000  1.0 -0.0313340999
C  C92  1  0.14320000  0.81640000  0.31900000  1.0 -0.0313340999
C  C93  1  0.14820000  0.78000000  0.60600000  1.0 -0.1012000495
C  C94  1  0.17400000  0.54220000  0.39400000  1.0 -0.1012000495
C  C95  1  0.79220000  0.92400000  0.89400000  1.0 -0.1012000495
C  C96  1  0.03000000  0.89820000  0.10600000  1.0 -0.1012000495
C  C97  1  0.13240000  0.80010000  0.65370000  1.0 -0.1178639701
C  C98  1  0.14640000  0.47870000  0.34630000  1.0 -0.1178639701
C  C99  1  0.72870000  0.89640000  0.84630000  1.0 -0.1178639701
C  C100  1  0.05010000  0.88240000  0.15370000  1.0 -0.1178639701
C  C101  1  0.75260000  0.82480000  0.25280000  1.0 -0.1776594122
C  C102  1  0.57200000  0.49980000  0.74720000  1.0 -0.1776594122
C  C103  1  0.74980000  0.32200000  0.24720000  1.0 -0.1776594122
C  C104  1  0.07480000  0.50260000  0.75280000  1.0 -0.1776594122
C  C105  1  0.08750000  0.86010000  0.76740000  1.0 -0.1498668278
C  C106  1  0.09270000  0.32010000  0.23260000  1.0 -0.1498668278
C  C107  1  0.57010000  0.84270000  0.73260000  1.0 -0.1498668278
C  C108  1  0.11010000  0.83750000  0.26740000  1.0 -0.1498668278
C  C109  1  0.76190000  0.87780000  0.26470000  1.0 -0.0313340999
C  C110  1  0.61310000  0.49720000  0.73530000  1.0 -0.0313340999
C  C111  1  0.74720000  0.36310000  0.23530000  1.0 -0.0313340999
C  C112  1  0.12780000  0.51190000  0.76470000  1.0 -0.0313340999
C  C113  1  0.91656000  0.10896000  0.71500000  1.0 0.1380291016
C  C114  1  0.39396000  0.20156000  0.28500000  1.0 0.1380291016
C  C115  1  0.45156000  0.14396000  0.78500000  1.0 0.1380291016
C  C116  1  0.35896000  0.66656000  0.21500000  1.0 0.1380291016
C  C117  1  0.13165000  0.16235000  0.84510000  1.0 0.5603278273
C  C118  1  0.31725000  0.28655000  0.15490000  1.0 0.5603278273
C  C119  1  0.53655000  0.06725000  0.65490000  1.0 0.5603278273
C  C120  1  0.41235000  0.88165000  0.34510000  1.0 0.5603278273
C  C121  1  0.04580000  0.87440000  0.70240000  1.0 0.1610606716
C  C122  1  0.17200000  0.34340000  0.29760000  1.0 0.1610606716
C  C123  1  0.59340000  0.92200000  0.79760000  1.0 0.1610606716
C  C124  1  0.12440000  0.79580000  0.20240000  1.0 0.1610606716
C  C125  1  0.03450000  0.84950000  0.53960000  1.0 -0.1330092295
C  C126  1  0.30990000  0.49490000  0.46040000  1.0 -0.1330092295
C  C127  1  0.74490000  0.05990000  0.96040000  1.0 -0.1330092295
C  C128  1  0.09950000  0.78450000  0.03960000  1.0 -0.1330092295
C  C129  1  0.96389000  0.95699000  0.74630000  1.0 0.0284752509
C  C130  1  0.21069000  0.21759000  0.25370000  1.0 0.0284752509
C  C131  1  0.46759000  0.96069000  0.75370000  1.0 0.0284752509
C  C132  1  0.20699000  0.71389000  0.24630000  1.0 0.0284752509
C  C133  1  0.03399000  0.06829000  0.73950000  1.0 0.0191826298
C  C134  1  0.32879000  0.29449000  0.26050000  1.0 0.0191826298
C  C135  1  0.54449000  0.07879000  0.76050000  1.0 0.0191826298
C  C136  1  0.31829000  0.78399000  0.23950000  1.0 0.0191826298
C  C137  1  0.00277000  0.30617000  0.40900000  1.0 -0.0595095064
C  C138  1  0.89717000  0.59377000  0.59100000  1.0 -0.0595095064
C  C139  1  0.84377000  0.64717000  0.09100000  1.0 -0.0595095064
C  C140  1  0.55617000  0.75277000  0.90900000  1.0 -0.0595095064
C  C141  1  0.14840000  0.10680000  0.39180000  1.0 0.0098584769
C  C142  1  0.71500000  0.75660000  0.60820000  1.0 0.0098584769
C  C143  1  0.00660000  0.46500000  0.10820000  1.0 0.0098584769
C  C144  1  0.35680000  0.89840000  0.89180000  1.0 0.0098584769
C  C145  1  0.20660000  0.05010000  0.51530000  1.0 0.0098584769
C  C146  1  0.53480000  0.69130000  0.48470000  1.0 0.0098584769
C  C147  1  0.94130000  0.28480000  0.98470000  1.0 0.0098584769
C  C148  1  0.30010000  0.95660000  0.01530000  1.0 0.0098584769
C  C149  1  0.89191000  0.96371000  0.18980000  1.0 -0.0595095064
C  C150  1  0.77391000  0.70211000  0.81020000  1.0 -0.0595095064
C  C151  1  0.95211000  0.52391000  0.31020000  1.0 -0.0595095064
C  C152  1  0.21371000  0.64191000  0.68980000  1.0 -0.0595095064
C  C153  1  0.15350000  0.10210000  0.53760000  1.0 -0.1990705856
C  C154  1  0.56450000  0.61590000  0.46240000  1.0 -0.1990705856
C  C155  1  0.86590000  0.31450000  0.96240000  1.0 -0.1990705856
C  C156  1  0.35210000  0.90350000  0.03760000  1.0 -0.1990705856
C  C157  1  0.92842000  0.09352000  0.26130000  1.0 0.1481667844
C  C158  1  0.83222000  0.66712000  0.73870000  1.0 0.1481667844
C  C159  1  0.91712000  0.58222000  0.23870000  1.0 0.1481667844
C  C160  1  0.34352000  0.67842000  0.76130000  1.0 0.1481667844
C  C161  1  0.14700000  0.10180000  0.58380000  1.0 -0.1178639701
C  C162  1  0.51800000  0.56320000  0.41620000  1.0 -0.1178639701
C  C163  1  0.81320000  0.26800000  0.91620000  1.0 -0.1178639701
C  C164  1  0.35180000  0.89700000  0.08380000  1.0 -0.1178639701
C  C165  1  0.17110000  0.31560000  0.72150000  1.0 0.0191826298
C  C166  1  0.59410000  0.44960000  0.27850000  1.0 0.0191826298
C  C167  1  0.69960000  0.34410000  0.77850000  1.0 0.0191826298
C  C168  1  0.56560000  0.92110000  0.22150000  1.0 0.0191826298
C  C169  1  0.19530000  0.06330000  0.36420000  1.0 -0.1399504466
C  C170  1  0.69910000  0.83110000  0.63580000  1.0 -0.1399504466
C  C171  1  0.08110000  0.44910000  0.13580000  1.0 -0.1399504466
C  C172  1  0.31330000  0.94530000  0.86420000  1.0 -0.1399504466
C  C173  1  0.25290000  0.00050000  0.54000000  1.0 -0.1498668278
C  C174  1  0.46050000  0.71290000  0.46000000  1.0 -0.1498668278
C  C175  1  0.96290000  0.21050000  0.96000000  1.0 -0.1498668278
C  C176  1  0.25050000  0.00290000  0.04000000  1.0 -0.1498668278
C  C177  1  0.30370000  0.35390000  0.79900000  1.0 -0.1070908389
C  C178  1  0.55490000  0.50470000  0.20100000  1.0 -0.1070908389
C  C179  1  0.75470000  0.30490000  0.70100000  1.0 -0.1012000495
C  C180  1  0.60390000  0.05370000  0.29900000  1.0 -0.1012000495
C  C181  1  0.93643000  0.25683000  0.30140000  1.0 -0.0534460155
C  C182  1  0.95543000  0.63503000  0.69860000  1.0 -0.0534460155
C  C183  1  0.88503000  0.70543000  0.19860000  1.0 -0.0534460155
C  C184  1  0.50683000  0.68643000  0.80140000  1.0 -0.0534460155
C  C185  1  0.96612000  0.01542000  0.29450000  1.0 0.0098584769
C  C186  1  0.72092000  0.67162000  0.70550000  1.0 0.0098584769
C  C187  1  0.92162000  0.47092000  0.20550000  1.0 0.0098584769
C  C188  1  0.26542000  0.71612000  0.79450000  1.0 0.0098584769
C  C189  1  0.85570000  0.04110000  0.15520000  1.0 -0.1498668278
C  C190  1  0.88590000  0.70050000  0.84480000  1.0 -0.1498668278
C  C191  1  0.95050000  0.63590000  0.34480000  1.0 -0.1498668278
C  C192  1  0.29110000  0.60570000  0.65520000  1.0 -0.1498668278
C  C193  1  0.94440000  0.25390000  0.56050000  1.0 -0.1776594122
C  C194  1  0.69340000  0.38390000  0.43950000  1.0 -0.1776594122
C  C195  1  0.63390000  0.44340000  0.93950000  1.0 -0.1776594122
C  C196  1  0.50390000  0.69440000  0.06050000  1.0 -0.1776594122
C  C197  1  0.18068000  0.26268000  0.64640000  1.0 -0.1603777862
C  C198  1  0.61628000  0.53428000  0.35360000  1.0 -0.1603777862
C  C199  1  0.78428000  0.36628000  0.85360000  1.0 -0.1603777862
C  C200  1  0.51268000  0.93068000  0.14640000  1.0 -0.1603777862
C  C201  1  0.24730000  0.00400000  0.58810000  1.0 -0.1070908389
C  C202  1  0.41590000  0.65920000  0.41190000  1.0 -0.1070908389
C  C203  1  0.90920000  0.16590000  0.91190000  1.0 -0.1070908389
C  C204  1  0.25400000  0.99730000  0.08810000  1.0 -0.1070908389
C  C205  1  0.87363000  0.89573000  0.15750000  1.0 0.5542933339
C  C206  1  0.73823000  0.71613000  0.84250000  1.0 0.5542933339
C  C207  1  0.96613000  0.48823000  0.34250000  1.0 0.5542933339
C  C208  1  0.14573000  0.62363000  0.65750000  1.0 0.5542933339
C  C209  1  0.20350000  0.04910000  0.45720000  1.0 0.17002166
C  C210  1  0.59190000  0.74630000  0.54280000  1.0 0.17002166
C  C211  1  0.99630000  0.34190000  0.04280000  1.0 0.17002166
C  C212  1  0.29910000  0.95350000  0.95720000  1.0 0.17002166
C  C213  1  0.90925000  0.18735000  0.24990000  1.0 -0.1776594122
C  C214  1  0.93745000  0.65935000  0.75010000  1.0 -0.1776594122
C  C215  1  0.90935000  0.68745000  0.25010000  1.0 -0.1776594122
C  C216  1  0.43735000  0.65925000  0.74990000  1.0 -0.1776594122
C  C217  1  0.83834000  0.97824000  0.12150000  1.0 -0.0595095064
C  C218  1  0.85674000  0.71684000  0.87850000  1.0 -0.0595095064
C  C219  1  0.96684000  0.60674000  0.37850000  1.0 -0.0595095064
C  C220  1  0.22824000  0.58834000  0.62150000  1.0 -0.0595095064
C  C221  1  0.19290000  0.05020000  0.60550000  1.0 -0.0800733665
C  C222  1  0.44470000  0.58740000  0.39450000  1.0 -0.0800733665
C  C223  1  0.83740000  0.19470000  0.89450000  1.0 -0.0800733665
C  C224  1  0.30020000  0.94290000  0.10550000  1.0 -0.0800733665
C  C225  1  0.99740000  0.31640000  0.67320000  1.0 -0.0313340999
C  C226  1  0.64320000  0.32420000  0.32680000  1.0 -0.0313340999
C  C227  1  0.57420000  0.39320000  0.82680000  1.0 -0.0313340999
C  C228  1  0.56640000  0.74740000  0.17320000  1.0 -0.0313340999
C  C229  1  0.29220000  0.39820000  0.86820000  1.0 -0.1012000495
C  C230  1  0.53000000  0.42400000  0.13180000  1.0 -0.1012000495
C  C231  1  0.67400000  0.28000000  0.63180000  1.0 -0.1012000495
C  C232  1  0.64820000  0.04220000  0.36820000  1.0 -0.1012000495
C  C233  1  0.22870000  0.38240000  0.83230000  1.0 -0.1178639701
C  C234  1  0.55010000  0.39640000  0.16770000  1.0 -0.1178639701
C  C235  1  0.64640000  0.30010000  0.66770000  1.0 -0.1178639701
C  C236  1  0.63240000  0.97870000  0.33230000  1.0 -0.1178639701
C  C237  1  0.24980000  0.00260000  0.42780000  1.0 -0.1776594122
C  C238  1  0.57480000  0.82200000  0.57220000  1.0 -0.1776594122
C  C239  1  0.07200000  0.32480000  0.07220000  1.0 -0.1776594122
C  C240  1  0.25260000  0.99980000  0.92780000  1.0 -0.1776594122
C  C241  1  0.07010000  0.33750000  0.72740000  1.0 -0.1498668278
C  C242  1  0.61010000  0.34270000  0.27260000  1.0 -0.1498668278
C  C243  1  0.59270000  0.36010000  0.77260000  1.0 -0.1498668278
C  C244  1  0.58750000  0.82010000  0.22740000  1.0 -0.1498668278
C  C245  1  0.24720000  0.01190000  0.38410000  1.0 -0.0313340999
C  C246  1  0.62780000  0.86310000  0.61590000  1.0 -0.0313340999
C  C247  1  0.11310000  0.37780000  0.11590000  1.0 -0.0313340999
C  C248  1  0.26190000  0.99720000  0.88410000  1.0 -0.0313340999
C  C249  1  0.95156000  0.16656000  0.30760000  1.0 0.1380291016
C  C250  1  0.85896000  0.64396000  0.69240000  1.0 0.1380291016
C  C251  1  0.89396000  0.60896000  0.19240000  1.0 0.1380291016
C  C252  1  0.41656000  0.70156000  0.80760000  1.0 0.1380291016
C  C253  1  0.03655000  0.38165000  0.46930000  1.0 0.5603278273
C  C254  1  0.91235000  0.56725000  0.53070000  1.0 0.5603278273
C  C255  1  0.81725000  0.66235000  0.03070000  1.0 0.5603278273
C  C256  1  0.63165000  0.78655000  0.96930000  1.0 0.5603278273
C  C257  1  0.09340000  0.29580000  0.67140000  1.0 0.1610606716
C  C258  1  0.62440000  0.42200000  0.32860000  1.0 0.1610606716
C  C259  1  0.67200000  0.37440000  0.82860000  1.0 0.1610606716
C  C260  1  0.54580000  0.84340000  0.17140000  1.0 0.1610606716
C  C261  1  0.24490000  0.28450000  0.68500000  1.0 -0.1330092295
C  C262  1  0.59950000  0.55990000  0.31500000  1.0 -0.1330092295
C  C263  1  0.80990000  0.34950000  0.81500000  1.0 -0.1330092295
C  C264  1  0.53450000  0.99490000  0.18500000  1.0 -0.1330092295
C  C265  1  0.96759000  0.21389000  0.50690000  1.0 0.0284752509
C  C266  1  0.70699000  0.46069000  0.49310000  1.0 0.0284752509
C  C267  1  0.71069000  0.45699000  0.99310000  1.0 0.0284752509
C  C268  1  0.46389000  0.71759000  0.00690000  1.0 0.0284752509
C  C269  1  0.04449000  0.28399000  0.46570000  1.0 0.0191826298
C  C270  1  0.81829000  0.57879000  0.53430000  1.0 0.0191826298
C  C271  1  0.82879000  0.56829000  0.03430000  1.0 0.0191826298
C  C272  1  0.53399000  0.79449000  0.96570000  1.0 0.0191826298
N  N1  1  0.96690000  0.04900000  0.69730000  1.0 -0.2335210114
N  N2  1  0.35170000  0.26960000  0.30270000  1.0 -0.2335210114
N  N3  1  0.51960000  0.10170000  0.80270000  1.0 -0.2335210114
N  N4  1  0.29900000  0.71690000  0.19730000  1.0 -0.2335210114
N  N5  1  0.82831000  0.00021000  0.59450000  1.0 -0.2382923893
N  N6  1  0.40571000  0.23381000  0.40550000  1.0 -0.2382923893
N  N7  1  0.48381000  0.15571000  0.90550000  1.0 -0.2382923893
N  N8  1  0.25021000  0.57831000  0.09450000  1.0 -0.2382923893
N  N9  1  0.98096000  0.92266000  0.69030000  1.0 -0.1990705856
N  N10  1  0.23236000  0.29066000  0.30970000  1.0 -0.1990705856
N  N11  1  0.54066000  0.98236000  0.80970000  1.0 -0.1990705856
N  N12  1  0.17266000  0.73096000  0.19030000  1.0 -0.1990705856
N  N13  1  0.85276000  0.91086000  0.44910000  1.0 -0.2185699722
N  N14  1  0.46176000  0.40366000  0.55090000  1.0 -0.2185699722
N  N15  1  0.65366000  0.21176000  0.05090000  1.0 -0.2185699722
N  N16  1  0.16086000  0.60276000  0.94910000  1.0 -0.2185699722
N  N17  1  0.01960000  0.21690000  0.41790000  1.0 -0.2335210114
N  N18  1  0.79900000  0.60170000  0.58210000  1.0 -0.2335210114
N  N19  1  0.85170000  0.54900000  0.08210000  1.0 -0.2335210114
N  N20  1  0.46690000  0.76960000  0.91790000  1.0 -0.2335210114
N  N21  1  0.98381000  0.07831000  0.32810000  1.0 -0.2382923893
N  N22  1  0.75021000  0.65571000  0.67190000  1.0 -0.2382923893
N  N23  1  0.90571000  0.50021000  0.17190000  1.0 -0.2382923893
N  N24  1  0.32831000  0.73381000  0.82810000  1.0 -0.2382923893
N  N25  1  0.04066000  0.23096000  0.55830000  1.0 -0.1990705856
N  N26  1  0.67266000  0.48236000  0.44170000  1.0 -0.1990705856
N  N27  1  0.73236000  0.42266000  0.94170000  1.0 -0.1990705856
N  N28  1  0.48096000  0.79066000  0.05830000  1.0 -0.1990705856
N  N29  1  0.15366000  0.10276000  0.44190000  1.0 -0.2185699722
N  N30  1  0.66086000  0.71176000  0.55810000  1.0 -0.2185699722
N  N31  1  0.96176000  0.41086000  0.05810000  1.0 -0.2185699722
N  N32  1  0.35276000  0.90366000  0.94190000  1.0 -0.2185699722
O  O1  1  0.17132000  0.10562000  0.81970000  1.0 -0.5371059707
O  O2  1  0.28592000  0.35162000  0.18030000  1.0 -0.5371059707
O  O3  1  0.60162000  0.03592000  0.68030000  1.0 -0.5371059707
O  O4  1  0.35562000  0.92132000  0.31970000  1.0 -0.5371059707
O  O5  1  0.15180000  0.23990000  0.91230000  1.0 -0.5659045782
O  O6  1  0.32760000  0.23950000  0.08770000  1.0 -0.5659045782
O  O7  1  0.48950000  0.07760000  0.58770000  1.0 -0.5659045782
O  O8  1  0.48990000  0.90180000  0.41230000  1.0 -0.5637913352
O  O9  1  0.61720000  0.91730000  0.43390000  1.0 -0.5371059707
O  O10  1  0.48340000  0.18330000  0.56610000  1.0 -0.5371059707
O  O11  1  0.43330000  0.23340000  0.06610000  1.0 -0.5371059707
O  O12  1  0.16730000  0.36720000  0.93390000  1.0 -0.5371059707
O  O13  1  0.62462000  0.03612000  0.57670000  1.0 -0.5484560734
O  O14  1  0.45942000  0.04792000  0.42330000  1.0 -0.5484560734
O  O15  1  0.29792000  0.20942000  0.92330000  1.0 -0.5484560734
O  O16  1  0.28612000  0.37462000  0.07670000  1.0 -0.5484560734
O  O17  1  0.10162000  0.42132000  0.56570000  1.0 -0.5371059707
O  O18  1  0.85562000  0.53592000  0.43430000  1.0 -0.5371059707
O  O19  1  0.78592000  0.60562000  0.93430000  1.0 -0.5371059707
O  O20  1  0.67132000  0.85162000  0.06570000  1.0 -0.5371059707
O  O21  1  0.98950000  0.40180000  0.41190000  1.0 -0.5637913352
O  O22  1  0.98990000  0.57760000  0.58810000  1.0 -0.5659045782
O  O23  1  0.82760000  0.73990000  0.08810000  1.0 -0.5659045782
O  O24  1  0.65180000  0.73950000  0.91190000  1.0 -0.5659045782
O  O25  1  0.93330000  0.86720000  0.19990000  1.0 -0.5371059707
O  O26  1  0.66730000  0.73340000  0.80010000  1.0 -0.5371059707
O  O27  1  0.98340000  0.41730000  0.30010000  1.0 -0.5371059707
O  O28  1  0.11720000  0.68330000  0.69990000  1.0 -0.5371059707
O  O29  1  0.79792000  0.87462000  0.08850000  1.0 -0.5484560734
O  O30  1  0.78612000  0.70942000  0.91150000  1.0 -0.5484560734
O  O31  1  0.95942000  0.53612000  0.41150000  1.0 -0.5484560734
O  O32  1  0.12462000  0.54792000  0.58850000  1.0 -0.5484560734
