# DDEC6 charges by PACMAN v1.1 (https://github.com/mtap-research/PACMAN-charge/)
data_QUTYOU_ASR_pacman
_symmetry_space_group_name_H-M   'P 1'
_cell_length_a   33.35860000
_cell_length_b   33.35860000
_cell_length_c   67.83900000
_cell_angle_alpha   90.00000000
_cell_angle_beta   90.00000000
_cell_angle_gamma   120.00000000
_symmetry_Int_Tables_number   1
_chemical_formula_structural   Zn8H48C91SO27
_chemical_formula_sum   'Zn96 H576 C1092 S12 O324'
_cell_volume   65377.10730439
_cell_formula_units_Z   12
loop_
 _symmetry_equiv_pos_site_id
 _symmetry_equiv_pos_as_xyz
  1  'x, y, z'
loop_
 _atom_site_type_symbol
 _atom_site_label
 _atom_site_symmetry_multiplicity
 _atom_site_fract_x
 _atom_site_fract_y
 _atom_site_fract_z
 _atom_site_occupancy
 _atom_site_charge
Zn  Zn1  1  0.71427000  0.88991000  0.93723000  1.0 0.9333672149
Zn  Zn2  1  0.11009000  0.82436000  0.93723000  1.0 0.9333672149
Zn  Zn3  1  0.17564000  0.28573000  0.93723000  1.0 0.9333672149
Zn  Zn4  1  0.88991000  0.71427000  0.56277000  1.0 0.9333672149
Zn  Zn5  1  0.82436000  0.11009000  0.56277000  1.0 0.9333672149
Zn  Zn6  1  0.28573000  0.17564000  0.56277000  1.0 0.9333672149
Zn  Zn7  1  0.28573000  0.11009000  0.06277000  1.0 0.9333672149
Zn  Zn8  1  0.88991000  0.17564000  0.06277000  1.0 0.9333672149
Zn  Zn9  1  0.82436000  0.71427000  0.06277000  1.0 0.9333672149
Zn  Zn10  1  0.11009000  0.28573000  0.43723000  1.0 0.9333672149
Zn  Zn11  1  0.17564000  0.88991000  0.43723000  1.0 0.9333672149
Zn  Zn12  1  0.71427000  0.82436000  0.43723000  1.0 0.9333672149
Zn  Zn13  1  0.66915000  0.83283000  0.97741000  1.0 0.9585326357
Zn  Zn14  1  0.16717000  0.83632000  0.97741000  1.0 0.9585326357
Zn  Zn15  1  0.16368000  0.33085000  0.97741000  1.0 0.9585326357
Zn  Zn16  1  0.83283000  0.66915000  0.52259000  1.0 0.9585326357
Zn  Zn17  1  0.83632000  0.16717000  0.52259000  1.0 0.9585326357
Zn  Zn18  1  0.33085000  0.16368000  0.52259000  1.0 0.9585326357
Zn  Zn19  1  0.33085000  0.16717000  0.02259000  1.0 0.9585326357
Zn  Zn20  1  0.83283000  0.16368000  0.02259000  1.0 0.9585326357
Zn  Zn21  1  0.83632000  0.66915000  0.02259000  1.0 0.9585326357
Zn  Zn22  1  0.16717000  0.33085000  0.47741000  1.0 0.9585326357
Zn  Zn23  1  0.16368000  0.83283000  0.47741000  1.0 0.9585326357
Zn  Zn24  1  0.66915000  0.83632000  0.47741000  1.0 0.9585326357
Zn  Zn25  1  0.60770000  0.83789000  0.94312000  1.0 0.9490635915
Zn  Zn26  1  0.16211000  0.76981000  0.94312000  1.0 0.9490635915
Zn  Zn27  1  0.23019000  0.39230000  0.94312000  1.0 0.9490635915
Zn  Zn28  1  0.83789000  0.60770000  0.55688000  1.0 0.9490635915
Zn  Zn29  1  0.76981000  0.16211000  0.55688000  1.0 0.9490635915
Zn  Zn30  1  0.39230000  0.23019000  0.55688000  1.0 0.9490635915
Zn  Zn31  1  0.39230000  0.16211000  0.05688000  1.0 0.9490635915
Zn  Zn32  1  0.83789000  0.23019000  0.05688000  1.0 0.9490635915
Zn  Zn33  1  0.76981000  0.60770000  0.05688000  1.0 0.9490635915
Zn  Zn34  1  0.16211000  0.39230000  0.44312000  1.0 0.9490635915
Zn  Zn35  1  0.23019000  0.83789000  0.44312000  1.0 0.9490635915
Zn  Zn36  1  0.60770000  0.76981000  0.44312000  1.0 0.9490635915
Zn  Zn37  1  0.67146000  0.92931000  0.96789000  1.0 0.9817206883
Zn  Zn38  1  0.07069000  0.74215000  0.96789000  1.0 0.9817206883
Zn  Zn39  1  0.25785000  0.32854000  0.96789000  1.0 0.9817206883
Zn  Zn40  1  0.92931000  0.67146000  0.53211000  1.0 0.9817206883
Zn  Zn41  1  0.74215000  0.07069000  0.53211000  1.0 0.9817206883
Zn  Zn42  1  0.32854000  0.25785000  0.53211000  1.0 0.9817206883
Zn  Zn43  1  0.32854000  0.07069000  0.03211000  1.0 0.9817206883
Zn  Zn44  1  0.92931000  0.25785000  0.03211000  1.0 0.9817206883
Zn  Zn45  1  0.74215000  0.67146000  0.03211000  1.0 0.9817206883
Zn  Zn46  1  0.07069000  0.32854000  0.46789000  1.0 0.9817206883
Zn  Zn47  1  0.25785000  0.92931000  0.46789000  1.0 0.9817206883
Zn  Zn48  1  0.67146000  0.74215000  0.46789000  1.0 0.9817206883
Zn  Zn49  1  0.71320000  0.88291000  0.22744000  1.0 0.9585326357
Zn  Zn50  1  0.11709000  0.83029000  0.22744000  1.0 0.9585326357
Zn  Zn51  1  0.16971000  0.28680000  0.22744000  1.0 0.9585326357
Zn  Zn52  1  0.88291000  0.71320000  0.27256000  1.0 0.9585326357
Zn  Zn53  1  0.83029000  0.11709000  0.27256000  1.0 0.9585326357
Zn  Zn54  1  0.28680000  0.16971000  0.27256000  1.0 0.9585326357
Zn  Zn55  1  0.28680000  0.11709000  0.77256000  1.0 0.9585326357
Zn  Zn56  1  0.88291000  0.16971000  0.77256000  1.0 0.9585326357
Zn  Zn57  1  0.83029000  0.71320000  0.77256000  1.0 0.9585326357
Zn  Zn58  1  0.11709000  0.28680000  0.72744000  1.0 0.9585326357
Zn  Zn59  1  0.16971000  0.88291000  0.72744000  1.0 0.9585326357
Zn  Zn60  1  0.71320000  0.83029000  0.72744000  1.0 0.9585326357
Zn  Zn61  1  0.66893000  0.82717000  0.18736000  1.0 0.9490635915
Zn  Zn62  1  0.17283000  0.84176000  0.18736000  1.0 0.9490635915
Zn  Zn63  1  0.15824000  0.33107000  0.18736000  1.0 0.9490635915
Zn  Zn64  1  0.82717000  0.66893000  0.31264000  1.0 0.9490635915
Zn  Zn65  1  0.84176000  0.17283000  0.31264000  1.0 0.9490635915
Zn  Zn66  1  0.33107000  0.15824000  0.31264000  1.0 0.9490635915
Zn  Zn67  1  0.33107000  0.17283000  0.81264000  1.0 0.9490635915
Zn  Zn68  1  0.82717000  0.15824000  0.81264000  1.0 0.9490635915
Zn  Zn69  1  0.84176000  0.66893000  0.81264000  1.0 0.9490635915
Zn  Zn70  1  0.17283000  0.33107000  0.68736000  1.0 0.9490635915
Zn  Zn71  1  0.15824000  0.82717000  0.68736000  1.0 0.9490635915
Zn  Zn72  1  0.66893000  0.84176000  0.68736000  1.0 0.9490635915
Zn  Zn73  1  0.60494000  0.83007000  0.22122000  1.0 0.965648574
Zn  Zn74  1  0.16993000  0.77487000  0.22122000  1.0 0.9585326357
Zn  Zn75  1  0.22513000  0.39506000  0.22122000  1.0 0.9585326357
Zn  Zn76  1  0.83007000  0.60494000  0.27878000  1.0 0.965648574
Zn  Zn77  1  0.77487000  0.16993000  0.27878000  1.0 0.965648574
Zn  Zn78  1  0.39506000  0.22513000  0.27878000  1.0 0.965648574
Zn  Zn79  1  0.39506000  0.16993000  0.77878000  1.0 0.9585326357
Zn  Zn80  1  0.83007000  0.22513000  0.77878000  1.0 0.965648574
Zn  Zn81  1  0.77487000  0.60494000  0.77878000  1.0 0.965648574
Zn  Zn82  1  0.16993000  0.39506000  0.72122000  1.0 0.9585326357
Zn  Zn83  1  0.22513000  0.83007000  0.72122000  1.0 0.9585326357
Zn  Zn84  1  0.60494000  0.77487000  0.72122000  1.0 0.9585326357
Zn  Zn85  1  0.66824000  0.92105000  0.19648000  1.0 1.0030397664
Zn  Zn86  1  0.07895000  0.74719000  0.19648000  1.0 1.0030397664
Zn  Zn87  1  0.25281000  0.33176000  0.19648000  1.0 1.0054851595
Zn  Zn88  1  0.92105000  0.66824000  0.30352000  1.0 1.0030397664
Zn  Zn89  1  0.74719000  0.07895000  0.30352000  1.0 1.0054851595
Zn  Zn90  1  0.33176000  0.25281000  0.30352000  1.0 1.0030397664
Zn  Zn91  1  0.33176000  0.07895000  0.80352000  1.0 1.0030397664
Zn  Zn92  1  0.92105000  0.25281000  0.80352000  1.0 1.0030397664
Zn  Zn93  1  0.74719000  0.66824000  0.80352000  1.0 1.0030397664
Zn  Zn94  1  0.07895000  0.33176000  0.69648000  1.0 1.0030397664
Zn  Zn95  1  0.25281000  0.92105000  0.69648000  1.0 1.0030397664
Zn  Zn96  1  0.66824000  0.74719000  0.69648000  1.0 1.0054851595
H  H1  1  0.66330000  0.95160000  0.02920000  1.0 0.1294610356
H  H2  1  0.04840000  0.71170000  0.02920000  1.0 0.1294610356
H  H3  1  0.28830000  0.33670000  0.02920000  1.0 0.1294610356
H  H4  1  0.95160000  0.66330000  0.47080000  1.0 0.1294610356
H  H5  1  0.71170000  0.04840000  0.47080000  1.0 0.1294610356
H  H6  1  0.33670000  0.28830000  0.47080000  1.0 0.1294610356
H  H7  1  0.33670000  0.04840000  0.97080000  1.0 0.1294610356
H  H8  1  0.95160000  0.28830000  0.97080000  1.0 0.1294610356
H  H9  1  0.71170000  0.66330000  0.97080000  1.0 0.1294610356
H  H10  1  0.04840000  0.33670000  0.52920000  1.0 0.1294610356
H  H11  1  0.28830000  0.95160000  0.52920000  1.0 0.1294610356
H  H12  1  0.66330000  0.71170000  0.52920000  1.0 0.1294610356
H  H13  1  0.66450000  0.96560000  0.06270000  1.0 0.1294610356
H  H14  1  0.03440000  0.69890000  0.06270000  1.0 0.1294610356
H  H15  1  0.30110000  0.33550000  0.06270000  1.0 0.1294610356
H  H16  1  0.96560000  0.66450000  0.43730000  1.0 0.1294610356
H  H17  1  0.69890000  0.03440000  0.43730000  1.0 0.1294610356
H  H18  1  0.33550000  0.30110000  0.43730000  1.0 0.1294610356
H  H19  1  0.33550000  0.03440000  0.93730000  1.0 0.1294610356
H  H20  1  0.96560000  0.30110000  0.93730000  1.0 0.1294610356
H  H21  1  0.69890000  0.66450000  0.93730000  1.0 0.1294610356
H  H22  1  0.03440000  0.33550000  0.56270000  1.0 0.1294610356
H  H23  1  0.30110000  0.96560000  0.56270000  1.0 0.1294610356
H  H24  1  0.66450000  0.69890000  0.56270000  1.0 0.1294610356
H  H25  1  0.68330000  0.84460000  0.04030000  1.0 0.1294610356
H  H26  1  0.15540000  0.83870000  0.04030000  1.0 0.1294610356
H  H27  1  0.16130000  0.31670000  0.04030000  1.0 0.1294610356
H  H28  1  0.84460000  0.68330000  0.45970000  1.0 0.1294610356
H  H29  1  0.83870000  0.15540000  0.45970000  1.0 0.1294610356
H  H30  1  0.31670000  0.16130000  0.45970000  1.0 0.1294610356
H  H31  1  0.31670000  0.15540000  0.95970000  1.0 0.1294610356
H  H32  1  0.84460000  0.16130000  0.95970000  1.0 0.1294610356
H  H33  1  0.83870000  0.68330000  0.95970000  1.0 0.1294610356
H  H34  1  0.15540000  0.31670000  0.54030000  1.0 0.1294610356
H  H35  1  0.16130000  0.84460000  0.54030000  1.0 0.1294610356
H  H36  1  0.68330000  0.83870000  0.54030000  1.0 0.1294610356
H  H37  1  0.65930000  0.96180000  0.10290000  1.0 0.1212346142
H  H38  1  0.03820000  0.69750000  0.10290000  1.0 0.1212346142
H  H39  1  0.30250000  0.34070000  0.10290000  1.0 0.1212346142
H  H40  1  0.96180000  0.65930000  0.39710000  1.0 0.1212346142
H  H41  1  0.69750000  0.03820000  0.39710000  1.0 0.1212346142
H  H42  1  0.34070000  0.30250000  0.39710000  1.0 0.1212346142
H  H43  1  0.34070000  0.03820000  0.89710000  1.0 0.1212346142
H  H44  1  0.96180000  0.30250000  0.89710000  1.0 0.1212346142
H  H45  1  0.69750000  0.65930000  0.89710000  1.0 0.1212346142
H  H46  1  0.03820000  0.34070000  0.60290000  1.0 0.1212346142
H  H47  1  0.30250000  0.96180000  0.60290000  1.0 0.1212346142
H  H48  1  0.65930000  0.69750000  0.60290000  1.0 0.1212346142
H  H49  1  0.65890000  0.94800000  0.13640000  1.0 0.1294610356
H  H50  1  0.05200000  0.71090000  0.13640000  1.0 0.1294610356
H  H51  1  0.28910000  0.34110000  0.13640000  1.0 0.1294610356
H  H52  1  0.94800000  0.65890000  0.36360000  1.0 0.1294610356
H  H53  1  0.71090000  0.05200000  0.36360000  1.0 0.1294610356
H  H54  1  0.34110000  0.28910000  0.36360000  1.0 0.1294610356
H  H55  1  0.34110000  0.05200000  0.86360000  1.0 0.1294610356
H  H56  1  0.94800000  0.28910000  0.86360000  1.0 0.1294610356
H  H57  1  0.71090000  0.65890000  0.86360000  1.0 0.1294610356
H  H58  1  0.05200000  0.34110000  0.63640000  1.0 0.1294610356
H  H59  1  0.28910000  0.94800000  0.63640000  1.0 0.1294610356
H  H60  1  0.65890000  0.71090000  0.63640000  1.0 0.1294610356
H  H61  1  0.68210000  0.84310000  0.12500000  1.0 0.1393101593
H  H62  1  0.15690000  0.83900000  0.12500000  1.0 0.1393101593
H  H63  1  0.16100000  0.31790000  0.12500000  1.0 0.1393101593
H  H64  1  0.84310000  0.68210000  0.37500000  1.0 0.1393101593
H  H65  1  0.83900000  0.15690000  0.37500000  1.0 0.1393101593
H  H66  1  0.31790000  0.16100000  0.37500000  1.0 0.1393101593
H  H67  1  0.31790000  0.15690000  0.87500000  1.0 0.1393101593
H  H68  1  0.84310000  0.16100000  0.87500000  1.0 0.1393101593
H  H69  1  0.83900000  0.68210000  0.87500000  1.0 0.1393101593
H  H70  1  0.15690000  0.31790000  0.62500000  1.0 0.1393101593
H  H71  1  0.16100000  0.84310000  0.62500000  1.0 0.1393101593
H  H72  1  0.68210000  0.83900000  0.62500000  1.0 0.1393101593
H  H73  1  0.71430000  0.84850000  0.08220000  1.0 0.1393101593
H  H74  1  0.15150000  0.86580000  0.08220000  1.0 0.1393101593
H  H75  1  0.13420000  0.28570000  0.08220000  1.0 0.1393101593
H  H76  1  0.84850000  0.71430000  0.41780000  1.0 0.1393101593
H  H77  1  0.86580000  0.15150000  0.41780000  1.0 0.1393101593
H  H78  1  0.28570000  0.13420000  0.41780000  1.0 0.1393101593
H  H79  1  0.28570000  0.15150000  0.91780000  1.0 0.1393101593
H  H80  1  0.84850000  0.13420000  0.91780000  1.0 0.1393101593
H  H81  1  0.86580000  0.71430000  0.91780000  1.0 0.1393101593
H  H82  1  0.15150000  0.28570000  0.58220000  1.0 0.1393101593
H  H83  1  0.13420000  0.84850000  0.58220000  1.0 0.1393101593
H  H84  1  0.71430000  0.86580000  0.58220000  1.0 0.1393101593
H  H85  1  0.65990000  0.81460000  0.08150000  1.0 0.1393101593
H  H86  1  0.18540000  0.84530000  0.08150000  1.0 0.1393101593
H  H87  1  0.15470000  0.34010000  0.08150000  1.0 0.1393101593
H  H88  1  0.81460000  0.65990000  0.41850000  1.0 0.1393101593
H  H89  1  0.84530000  0.18540000  0.41850000  1.0 0.1393101593
H  H90  1  0.34010000  0.15470000  0.41850000  1.0 0.1393101593
H  H91  1  0.34010000  0.18540000  0.91850000  1.0 0.1393101593
H  H92  1  0.81460000  0.15470000  0.91850000  1.0 0.1393101593
H  H93  1  0.84530000  0.65990000  0.91850000  1.0 0.1393101593
H  H94  1  0.18540000  0.34010000  0.58150000  1.0 0.1393101593
H  H95  1  0.15470000  0.81460000  0.58150000  1.0 0.1393101593
H  H96  1  0.65990000  0.84530000  0.58150000  1.0 0.1393101593
H  H97  1  0.56980000  0.79570000  0.88440000  1.0 0.1294610356
H  H98  1  0.20430000  0.77410000  0.88440000  1.0 0.1294610356
H  H99  1  0.22590000  0.43020000  0.88440000  1.0 0.1294610356
H  H100  1  0.79570000  0.56980000  0.61560000  1.0 0.1212346142
H  H101  1  0.77410000  0.20430000  0.61560000  1.0 0.1294610356
H  H102  1  0.43020000  0.22590000  0.61560000  1.0 0.1294610356
H  H103  1  0.43020000  0.20430000  0.11560000  1.0 0.1294610356
H  H104  1  0.79570000  0.22590000  0.11560000  1.0 0.1294610356
H  H105  1  0.77410000  0.56980000  0.11560000  1.0 0.1212346142
H  H106  1  0.20430000  0.43020000  0.38440000  1.0 0.1294610356
H  H107  1  0.22590000  0.79570000  0.38440000  1.0 0.1294610356
H  H108  1  0.56980000  0.77410000  0.38440000  1.0 0.1294610356
H  H109  1  0.55760000  0.76530000  0.85240000  1.0 0.1212346142
H  H110  1  0.23470000  0.79230000  0.85240000  1.0 0.1212346142
H  H111  1  0.20770000  0.44240000  0.85240000  1.0 0.1212346142
H  H112  1  0.76530000  0.55760000  0.64760000  1.0 0.1212346142
H  H113  1  0.79230000  0.23470000  0.64760000  1.0 0.1212346142
H  H114  1  0.44240000  0.20770000  0.64760000  1.0 0.1212346142
H  H115  1  0.44240000  0.23470000  0.14760000  1.0 0.1212346142
H  H116  1  0.76530000  0.20770000  0.14760000  1.0 0.1212346142
H  H117  1  0.79230000  0.55760000  0.14760000  1.0 0.1212346142
H  H118  1  0.23470000  0.44240000  0.35240000  1.0 0.1212346142
H  H119  1  0.20770000  0.76530000  0.35240000  1.0 0.1212346142
H  H120  1  0.55760000  0.79230000  0.35240000  1.0 0.1212346142
H  H121  1  0.55650000  0.75470000  0.81420000  1.0 0.1212346142
H  H122  1  0.24530000  0.80180000  0.81420000  1.0 0.1212346142
H  H123  1  0.19820000  0.44350000  0.81420000  1.0 0.1212346142
H  H124  1  0.75470000  0.55650000  0.68580000  1.0 0.1212346142
H  H125  1  0.80180000  0.24530000  0.68580000  1.0 0.1212346142
H  H126  1  0.44350000  0.19820000  0.68580000  1.0 0.1212346142
H  H127  1  0.44350000  0.24530000  0.18580000  1.0 0.1212346142
H  H128  1  0.75470000  0.19820000  0.18580000  1.0 0.1212346142
H  H129  1  0.80180000  0.55650000  0.18580000  1.0 0.1212346142
H  H130  1  0.24530000  0.44350000  0.31420000  1.0 0.1212346142
H  H131  1  0.19820000  0.75470000  0.31420000  1.0 0.1212346142
H  H132  1  0.55650000  0.80180000  0.31420000  1.0 0.1212346142
H  H133  1  0.57370000  0.77170000  0.77930000  1.0 0.1212346142
H  H134  1  0.22830000  0.80200000  0.77930000  1.0 0.1212346142
H  H135  1  0.19800000  0.42630000  0.77930000  1.0 0.1212346142
H  H136  1  0.77170000  0.57370000  0.72070000  1.0 0.1212346142
H  H137  1  0.80200000  0.22830000  0.72070000  1.0 0.1212346142
H  H138  1  0.42630000  0.19800000  0.72070000  1.0 0.1212346142
H  H139  1  0.42630000  0.22830000  0.22070000  1.0 0.1212346142
H  H140  1  0.77170000  0.19800000  0.22070000  1.0 0.1212346142
H  H141  1  0.80200000  0.57370000  0.22070000  1.0 0.1212346142
H  H142  1  0.22830000  0.42630000  0.27930000  1.0 0.1212346142
H  H143  1  0.19800000  0.77170000  0.27930000  1.0 0.1212346142
H  H144  1  0.57370000  0.80200000  0.27930000  1.0 0.1212346142
H  H145  1  0.70890000  0.84670000  0.79060000  1.0 0.1294610356
H  H146  1  0.15330000  0.86220000  0.79060000  1.0 0.1294610356
H  H147  1  0.13780000  0.29110000  0.79060000  1.0 0.1294610356
H  H148  1  0.84670000  0.70890000  0.70940000  1.0 0.1294610356
H  H149  1  0.86220000  0.15330000  0.70940000  1.0 0.1294610356
H  H150  1  0.29110000  0.13780000  0.70940000  1.0 0.1294610356
H  H151  1  0.29110000  0.15330000  0.20940000  1.0 0.1294610356
H  H152  1  0.84670000  0.13780000  0.20940000  1.0 0.1294610356
H  H153  1  0.86220000  0.70890000  0.20940000  1.0 0.1294610356
H  H154  1  0.15330000  0.29110000  0.29060000  1.0 0.1294610356
H  H155  1  0.13780000  0.84670000  0.29060000  1.0 0.1294610356
H  H156  1  0.70890000  0.86220000  0.29060000  1.0 0.1294610356
H  H157  1  0.72520000  0.84820000  0.83490000  1.0 0.1294610356
H  H158  1  0.15180000  0.87700000  0.83490000  1.0 0.1294610356
H  H159  1  0.12300000  0.27480000  0.83490000  1.0 0.1294610356
H  H160  1  0.84820000  0.72520000  0.66510000  1.0 0.1294610356
H  H161  1  0.87700000  0.15180000  0.66510000  1.0 0.1294610356
H  H162  1  0.27480000  0.12300000  0.66510000  1.0 0.1294610356
H  H163  1  0.27480000  0.15180000  0.16510000  1.0 0.1294610356
H  H164  1  0.84820000  0.12300000  0.16510000  1.0 0.1294610356
H  H165  1  0.87700000  0.72520000  0.16510000  1.0 0.1294610356
H  H166  1  0.15180000  0.27480000  0.33490000  1.0 0.1294610356
H  H167  1  0.12300000  0.84820000  0.33490000  1.0 0.1294610356
H  H168  1  0.72520000  0.87700000  0.33490000  1.0 0.1294610356
H  H169  1  0.71570000  0.88940000  0.83080000  1.0 0.1294610356
H  H170  1  0.11060000  0.82630000  0.83080000  1.0 0.1294610356
H  H171  1  0.17370000  0.28430000  0.83080000  1.0 0.1294610356
H  H172  1  0.88940000  0.71570000  0.66920000  1.0 0.1294610356
H  H173  1  0.82630000  0.11060000  0.66920000  1.0 0.1294610356
H  H174  1  0.28430000  0.17370000  0.66920000  1.0 0.1294610356
H  H175  1  0.28430000  0.11060000  0.16920000  1.0 0.1294610356
H  H176  1  0.88940000  0.17370000  0.16920000  1.0 0.1294610356
H  H177  1  0.82630000  0.71570000  0.16920000  1.0 0.1294610356
H  H178  1  0.11060000  0.28430000  0.33080000  1.0 0.1294610356
H  H179  1  0.17370000  0.88940000  0.33080000  1.0 0.1294610356
H  H180  1  0.71570000  0.82630000  0.33080000  1.0 0.1294610356
H  H181  1  0.70870000  0.87290000  0.87340000  1.0 0.1294610356
H  H182  1  0.12710000  0.83580000  0.87340000  1.0 0.1294610356
H  H183  1  0.16420000  0.29130000  0.87340000  1.0 0.1294610356
H  H184  1  0.87290000  0.70870000  0.62660000  1.0 0.1294610356
H  H185  1  0.83580000  0.12710000  0.62660000  1.0 0.1294610356
H  H186  1  0.29130000  0.16420000  0.62660000  1.0 0.1294610356
H  H187  1  0.29130000  0.12710000  0.12660000  1.0 0.1294610356
H  H188  1  0.87290000  0.16420000  0.12660000  1.0 0.1294610356
H  H189  1  0.83580000  0.70870000  0.12660000  1.0 0.1294610356
H  H190  1  0.12710000  0.29130000  0.37340000  1.0 0.1294610356
H  H191  1  0.16420000  0.87290000  0.37340000  1.0 0.1294610356
H  H192  1  0.70870000  0.83580000  0.37340000  1.0 0.1294610356
H  H193  1  0.55940000  0.69390000  0.99980000  1.0 0.1294610356
H  H194  1  0.30610000  0.86550000  0.99980000  1.0 0.1294610356
H  H195  1  0.13450000  0.44060000  0.99980000  1.0 0.1294610356
H  H196  1  0.69390000  0.55940000  0.50020000  1.0 0.1294610356
H  H197  1  0.86550000  0.30610000  0.50020000  1.0 0.1294610356
H  H198  1  0.44060000  0.13450000  0.50020000  1.0 0.1294610356
H  H199  1  0.44060000  0.30610000  0.00020000  1.0 0.1294610356
H  H200  1  0.69390000  0.13450000  0.00020000  1.0 0.1294610356
H  H201  1  0.86550000  0.55940000  0.00020000  1.0 0.1294610356
H  H202  1  0.30610000  0.44060000  0.49980000  1.0 0.1294610356
H  H203  1  0.13450000  0.69390000  0.49980000  1.0 0.1294610356
H  H204  1  0.55940000  0.86550000  0.49980000  1.0 0.1294610356
H  H205  1  0.50200000  0.62100000  0.00390000  1.0 0.1294610356
H  H206  1  0.37900000  0.88100000  0.00390000  1.0 0.1294610356
H  H207  1  0.11900000  0.49800000  0.00390000  1.0 0.1294610356
H  H208  1  0.62100000  0.50200000  0.49610000  1.0 0.1294610356
H  H209  1  0.88100000  0.37900000  0.49610000  1.0 0.1294610356
H  H210  1  0.49800000  0.11900000  0.49610000  1.0 0.1294610356
H  H211  1  0.49800000  0.37900000  0.99610000  1.0 0.1294610356
H  H212  1  0.62100000  0.11900000  0.99610000  1.0 0.1294610356
H  H213  1  0.88100000  0.50200000  0.99610000  1.0 0.1294610356
H  H214  1  0.37900000  0.49800000  0.50390000  1.0 0.1294610356
H  H215  1  0.11900000  0.62100000  0.50390000  1.0 0.1294610356
H  H216  1  0.50200000  0.88100000  0.50390000  1.0 0.1294610356
H  H217  1  0.43430000  0.53120000  0.00340000  1.0 0.1294610356
H  H218  1  0.46880000  0.90310000  0.00340000  1.0 0.1294610356
H  H219  1  0.09690000  0.56570000  0.00340000  1.0 0.1294610356
H  H220  1  0.53120000  0.43430000  0.49660000  1.0 0.1294610356
H  H221  1  0.90310000  0.46880000  0.49660000  1.0 0.1294610356
H  H222  1  0.56570000  0.09690000  0.49660000  1.0 0.1294610356
H  H223  1  0.56570000  0.46880000  0.99660000  1.0 0.1294610356
H  H224  1  0.53120000  0.09690000  0.99660000  1.0 0.1294610356
H  H225  1  0.90310000  0.43430000  0.99660000  1.0 0.1294610356
H  H226  1  0.46880000  0.56570000  0.50340000  1.0 0.1294610356
H  H227  1  0.09690000  0.53120000  0.50340000  1.0 0.1294610356
H  H228  1  0.43430000  0.90310000  0.50340000  1.0 0.1294610356
H  H229  1  0.37700000  0.46190000  0.99230000  1.0 0.1393101593
H  H230  1  0.53810000  0.91510000  0.99230000  1.0 0.1393101593
H  H231  1  0.08490000  0.62300000  0.99230000  1.0 0.1393101593
H  H232  1  0.46190000  0.37700000  0.50770000  1.0 0.1393101593
H  H233  1  0.91510000  0.53810000  0.50770000  1.0 0.1393101593
H  H234  1  0.62300000  0.08490000  0.50770000  1.0 0.1393101593
H  H235  1  0.62300000  0.53810000  0.00770000  1.0 0.1393101593
H  H236  1  0.46190000  0.08490000  0.00770000  1.0 0.1393101593
H  H237  1  0.91510000  0.37700000  0.00770000  1.0 0.1393101593
H  H238  1  0.53810000  0.62300000  0.49230000  1.0 0.1393101593
H  H239  1  0.08490000  0.46190000  0.49230000  1.0 0.1393101593
H  H240  1  0.37700000  0.91510000  0.49230000  1.0 0.1393101593
H  H241  1  0.36030000  0.51270000  0.94080000  1.0 0.1294610356
H  H242  1  0.48730000  0.84760000  0.94080000  1.0 0.1294610356
H  H243  1  0.15240000  0.63970000  0.94080000  1.0 0.1294610356
H  H244  1  0.51270000  0.36030000  0.55920000  1.0 0.1294610356
H  H245  1  0.84760000  0.48730000  0.55920000  1.0 0.1294610356
H  H246  1  0.63970000  0.15240000  0.55920000  1.0 0.1294610356
H  H247  1  0.63970000  0.48730000  0.05920000  1.0 0.1294610356
H  H248  1  0.51270000  0.15240000  0.05920000  1.0 0.1294610356
H  H249  1  0.84760000  0.36030000  0.05920000  1.0 0.1294610356
H  H250  1  0.48730000  0.63970000  0.44080000  1.0 0.1294610356
H  H251  1  0.15240000  0.51270000  0.44080000  1.0 0.1294610356
H  H252  1  0.36030000  0.84760000  0.44080000  1.0 0.1294610356
H  H253  1  0.45130000  0.60160000  0.93100000  1.0 0.1393101593
H  H254  1  0.39840000  0.84970000  0.93100000  1.0 0.1393101593
H  H255  1  0.15030000  0.54870000  0.93100000  1.0 0.1393101593
H  H256  1  0.60160000  0.45130000  0.56900000  1.0 0.1393101593
H  H257  1  0.84970000  0.39840000  0.56900000  1.0 0.1393101593
H  H258  1  0.54870000  0.15030000  0.56900000  1.0 0.1393101593
H  H259  1  0.54870000  0.39840000  0.06900000  1.0 0.1393101593
H  H260  1  0.60160000  0.15030000  0.06900000  1.0 0.1393101593
H  H261  1  0.84970000  0.45130000  0.06900000  1.0 0.1393101593
H  H262  1  0.39840000  0.54870000  0.43100000  1.0 0.1393101593
H  H263  1  0.15030000  0.60160000  0.43100000  1.0 0.1393101593
H  H264  1  0.45130000  0.84970000  0.43100000  1.0 0.1393101593
H  H265  1  0.41760000  0.61600000  0.94100000  1.0 0.1393101593
H  H266  1  0.38400000  0.80160000  0.94100000  1.0 0.1393101593
H  H267  1  0.19840000  0.58240000  0.94100000  1.0 0.1393101593
H  H268  1  0.61600000  0.41760000  0.55900000  1.0 0.1393101593
H  H269  1  0.80160000  0.38400000  0.55900000  1.0 0.1393101593
H  H270  1  0.58240000  0.19840000  0.55900000  1.0 0.1393101593
H  H271  1  0.58240000  0.38400000  0.05900000  1.0 0.1393101593
H  H272  1  0.61600000  0.19840000  0.05900000  1.0 0.1393101593
H  H273  1  0.80160000  0.41760000  0.05900000  1.0 0.1393101593
H  H274  1  0.38400000  0.58240000  0.44100000  1.0 0.1393101593
H  H275  1  0.19840000  0.61600000  0.44100000  1.0 0.1393101593
H  H276  1  0.41760000  0.80160000  0.44100000  1.0 0.1393101593
H  H277  1  0.51330000  0.69530000  0.94370000  1.0 0.1294610356
H  H278  1  0.30470000  0.81800000  0.94370000  1.0 0.1294610356
H  H279  1  0.18200000  0.48670000  0.94370000  1.0 0.1294610356
H  H280  1  0.69530000  0.51330000  0.55630000  1.0 0.1294610356
H  H281  1  0.81800000  0.30470000  0.55630000  1.0 0.1294610356
H  H282  1  0.48670000  0.18200000  0.55630000  1.0 0.1294610356
H  H283  1  0.48670000  0.30470000  0.05630000  1.0 0.1294610356
H  H284  1  0.69530000  0.18200000  0.05630000  1.0 0.1294610356
H  H285  1  0.81800000  0.51330000  0.05630000  1.0 0.1294610356
H  H286  1  0.30470000  0.48670000  0.44370000  1.0 0.1294610356
H  H287  1  0.18200000  0.69530000  0.44370000  1.0 0.1294610356
H  H288  1  0.51330000  0.81800000  0.44370000  1.0 0.1294610356
H  H289  1  0.76500000  0.78730000  0.98570000  1.0 0.1212346142
H  H290  1  0.21270000  0.97770000  0.98570000  1.0 0.1212346142
H  H291  1  0.02230000  0.23500000  0.98570000  1.0 0.1212346142
H  H292  1  0.78730000  0.76500000  0.51430000  1.0 0.1212346142
H  H293  1  0.97770000  0.21270000  0.51430000  1.0 0.1212346142
H  H294  1  0.23500000  0.02230000  0.51430000  1.0 0.1212346142
H  H295  1  0.23500000  0.21270000  0.01430000  1.0 0.1212346142
H  H296  1  0.78730000  0.02230000  0.01430000  1.0 0.1212346142
H  H297  1  0.97770000  0.76500000  0.01430000  1.0 0.1212346142
H  H298  1  0.21270000  0.23500000  0.48570000  1.0 0.1212346142
H  H299  1  0.02230000  0.78730000  0.48570000  1.0 0.1212346142
H  H300  1  0.76500000  0.97770000  0.48570000  1.0 0.1212346142
H  H301  1  0.82140000  0.76770000  0.98930000  1.0 0.1294610356
H  H302  1  0.23230000  0.05370000  0.98930000  1.0 0.1294610356
H  H303  1  0.94630000  0.17860000  0.98930000  1.0 0.1294610356
H  H304  1  0.76770000  0.82140000  0.51070000  1.0 0.1294610356
H  H305  1  0.05370000  0.23230000  0.51070000  1.0 0.1294610356
H  H306  1  0.17860000  0.94630000  0.51070000  1.0 0.1294610356
H  H307  1  0.17860000  0.23230000  0.01070000  1.0 0.1294610356
H  H308  1  0.76770000  0.94630000  0.01070000  1.0 0.1294610356
H  H309  1  0.05370000  0.82140000  0.01070000  1.0 0.1294610356
H  H310  1  0.23230000  0.17860000  0.48930000  1.0 0.1294610356
H  H311  1  0.94630000  0.76770000  0.48930000  1.0 0.1294610356
H  H312  1  0.82140000  0.05370000  0.48930000  1.0 0.1294610356
H  H313  1  0.89920000  0.76170000  0.98790000  1.0 0.1294610356
H  H314  1  0.23830000  0.13750000  0.98790000  1.0 0.1294610356
H  H315  1  0.86250000  0.10080000  0.98790000  1.0 0.1294610356
H  H316  1  0.76170000  0.89920000  0.51210000  1.0 0.1294610356
H  H317  1  0.13750000  0.23830000  0.51210000  1.0 0.1294610356
H  H318  1  0.10080000  0.86250000  0.51210000  1.0 0.1294610356
H  H319  1  0.10080000  0.23830000  0.01210000  1.0 0.1294610356
H  H320  1  0.76170000  0.86250000  0.01210000  1.0 0.1294610356
H  H321  1  0.13750000  0.89920000  0.01210000  1.0 0.1294610356
H  H322  1  0.23830000  0.10080000  0.48790000  1.0 0.1294610356
H  H323  1  0.86250000  0.76170000  0.48790000  1.0 0.1294610356
H  H324  1  0.89920000  0.13750000  0.48790000  1.0 0.1294610356
H  H325  1  0.96930000  0.76650000  0.98230000  1.0 0.1212346142
H  H326  1  0.23350000  0.20280000  0.98230000  1.0 0.1212346142
H  H327  1  0.79720000  0.03070000  0.98230000  1.0 0.1212346142
H  H328  1  0.76650000  0.96930000  0.51770000  1.0 0.1212346142
H  H329  1  0.20280000  0.23350000  0.51770000  1.0 0.1212346142
H  H330  1  0.03070000  0.79720000  0.51770000  1.0 0.1212346142
H  H331  1  0.03070000  0.23350000  0.01770000  1.0 0.1212346142
H  H332  1  0.76650000  0.79720000  0.01770000  1.0 0.1212346142
H  H333  1  0.20280000  0.96930000  0.01770000  1.0 0.1212346142
H  H334  1  0.23350000  0.03070000  0.48230000  1.0 0.1212346142
H  H335  1  0.79720000  0.76650000  0.48230000  1.0 0.1212346142
H  H336  1  0.96930000  0.20280000  0.48230000  1.0 0.1212346142
H  H337  1  0.97720000  0.82750000  0.92960000  1.0 0.1294610356
H  H338  1  0.17250000  0.14970000  0.92960000  1.0 0.1294610356
H  H339  1  0.85030000  0.02280000  0.92960000  1.0 0.1294610356
H  H340  1  0.82750000  0.97720000  0.57040000  1.0 0.1294610356
H  H341  1  0.14970000  0.17250000  0.57040000  1.0 0.1393101593
H  H342  1  0.02280000  0.85030000  0.57040000  1.0 0.1294610356
H  H343  1  0.02280000  0.17250000  0.07040000  1.0 0.1393101593
H  H344  1  0.82750000  0.85030000  0.07040000  1.0 0.1294610356
H  H345  1  0.14970000  0.97720000  0.07040000  1.0 0.1294610356
H  H346  1  0.17250000  0.02280000  0.42960000  1.0 0.1294610356
H  H347  1  0.85030000  0.82750000  0.42960000  1.0 0.1294610356
H  H348  1  0.97720000  0.14970000  0.42960000  1.0 0.1294610356
H  H349  1  0.91090000  0.86470000  0.92920000  1.0 0.1393101593
H  H350  1  0.13530000  0.04620000  0.92920000  1.0 0.1393101593
H  H351  1  0.95380000  0.08910000  0.92920000  1.0 0.1393101593
H  H352  1  0.86470000  0.91090000  0.57080000  1.0 0.1393101593
H  H353  1  0.04620000  0.13530000  0.57080000  1.0 0.1393101593
H  H354  1  0.08910000  0.95380000  0.57080000  1.0 0.1393101593
H  H355  1  0.08910000  0.13530000  0.07080000  1.0 0.1393101593
H  H356  1  0.86470000  0.95380000  0.07080000  1.0 0.1393101593
H  H357  1  0.04620000  0.91090000  0.07080000  1.0 0.1393101593
H  H358  1  0.13530000  0.08910000  0.42920000  1.0 0.1393101593
H  H359  1  0.95380000  0.86470000  0.42920000  1.0 0.1393101593
H  H360  1  0.91090000  0.04620000  0.42920000  1.0 0.1393101593
H  H361  1  0.88230000  0.81400000  0.92040000  1.0 0.1294610356
H  H362  1  0.18600000  0.06830000  0.92040000  1.0 0.1294610356
H  H363  1  0.93170000  0.11770000  0.92040000  1.0 0.1294610356
H  H364  1  0.81400000  0.88230000  0.57960000  1.0 0.1294610356
H  H365  1  0.06830000  0.18600000  0.57960000  1.0 0.1294610356
H  H366  1  0.11770000  0.93170000  0.57960000  1.0 0.1294610356
H  H367  1  0.11770000  0.18600000  0.07960000  1.0 0.1294610356
H  H368  1  0.81400000  0.93170000  0.07960000  1.0 0.1294610356
H  H369  1  0.06830000  0.88230000  0.07960000  1.0 0.1294610356
H  H370  1  0.18600000  0.11770000  0.42040000  1.0 0.1294610356
H  H371  1  0.93170000  0.81400000  0.42040000  1.0 0.1294610356
H  H372  1  0.88230000  0.06830000  0.42040000  1.0 0.1294610356
H  H373  1  0.81590000  0.84310000  0.93170000  1.0 0.1294610356
H  H374  1  0.15690000  0.97280000  0.93170000  1.0 0.1294610356
H  H375  1  0.02720000  0.18410000  0.93170000  1.0 0.1294610356
H  H376  1  0.84310000  0.81590000  0.56830000  1.0 0.1294610356
H  H377  1  0.97280000  0.15690000  0.56830000  1.0 0.1294610356
H  H378  1  0.18410000  0.02720000  0.56830000  1.0 0.1294610356
H  H379  1  0.18410000  0.15690000  0.06830000  1.0 0.1294610356
H  H380  1  0.84310000  0.02720000  0.06830000  1.0 0.1294610356
H  H381  1  0.97280000  0.81590000  0.06830000  1.0 0.1294610356
H  H382  1  0.15690000  0.18410000  0.43170000  1.0 0.1294610356
H  H383  1  0.02720000  0.84310000  0.43170000  1.0 0.1294610356
H  H384  1  0.81590000  0.97280000  0.43170000  1.0 0.1294610356
H  H385  1  0.58660000  0.68400000  0.17760000  1.0 0.112245403
H  H386  1  0.31600000  0.90260000  0.17760000  1.0 0.112245403
H  H387  1  0.09740000  0.41340000  0.17760000  1.0 0.112245403
H  H388  1  0.68400000  0.58660000  0.32240000  1.0 0.112245403
H  H389  1  0.90260000  0.31600000  0.32240000  1.0 0.112245403
H  H390  1  0.41340000  0.09740000  0.32240000  1.0 0.112245403
H  H391  1  0.41340000  0.31600000  0.82240000  1.0 0.112245403
H  H392  1  0.68400000  0.09740000  0.82240000  1.0 0.112245403
H  H393  1  0.90260000  0.58660000  0.82240000  1.0 0.112245403
H  H394  1  0.31600000  0.41340000  0.67760000  1.0 0.112245403
H  H395  1  0.09740000  0.68400000  0.67760000  1.0 0.112245403
H  H396  1  0.58660000  0.90260000  0.67760000  1.0 0.112245403
H  H397  1  0.53690000  0.60480000  0.17430000  1.0 0.1212346142
H  H398  1  0.39520000  0.93210000  0.17430000  1.0 0.1212346142
H  H399  1  0.06790000  0.46310000  0.17430000  1.0 0.1212346142
H  H400  1  0.60480000  0.53690000  0.32570000  1.0 0.1212346142
H  H401  1  0.93210000  0.39520000  0.32570000  1.0 0.1212346142
H  H402  1  0.46310000  0.06790000  0.32570000  1.0 0.1212346142
H  H403  1  0.46310000  0.39520000  0.82570000  1.0 0.1212346142
H  H404  1  0.60480000  0.06790000  0.82570000  1.0 0.1212346142
H  H405  1  0.93210000  0.53690000  0.82570000  1.0 0.1212346142
H  H406  1  0.39520000  0.46310000  0.67430000  1.0 0.1212346142
H  H407  1  0.06790000  0.60480000  0.67430000  1.0 0.1212346142
H  H408  1  0.53690000  0.93210000  0.67430000  1.0 0.1212346142
H  H409  1  0.50220000  0.68940000  0.21850000  1.0 0.1212346142
H  H410  1  0.31060000  0.81280000  0.21850000  1.0 0.1212346142
H  H411  1  0.18720000  0.49780000  0.21850000  1.0 0.1212346142
H  H412  1  0.68940000  0.50220000  0.28150000  1.0 0.1212346142
H  H413  1  0.81280000  0.31060000  0.28150000  1.0 0.1212346142
H  H414  1  0.49780000  0.18720000  0.28150000  1.0 0.1212346142
H  H415  1  0.49780000  0.31060000  0.78150000  1.0 0.1212346142
H  H416  1  0.68940000  0.18720000  0.78150000  1.0 0.1212346142
H  H417  1  0.81280000  0.50220000  0.78150000  1.0 0.1212346142
H  H418  1  0.31060000  0.49780000  0.71850000  1.0 0.1212346142
H  H419  1  0.18720000  0.68940000  0.71850000  1.0 0.1212346142
H  H420  1  0.50220000  0.81280000  0.71850000  1.0 0.1212346142
H  H421  1  0.45740000  0.51360000  0.17710000  1.0 0.1212346142
H  H422  1  0.48640000  0.94380000  0.17710000  1.0 0.1212346142
H  H423  1  0.05620000  0.54260000  0.17710000  1.0 0.1212346142
H  H424  1  0.51360000  0.45740000  0.32290000  1.0 0.1212346142
H  H425  1  0.94380000  0.48640000  0.32290000  1.0 0.1212346142
H  H426  1  0.54260000  0.05620000  0.32290000  1.0 0.1212346142
H  H427  1  0.54260000  0.48640000  0.82290000  1.0 0.1212346142
H  H428  1  0.51360000  0.05620000  0.82290000  1.0 0.1212346142
H  H429  1  0.94380000  0.45740000  0.82290000  1.0 0.1212346142
H  H430  1  0.48640000  0.54260000  0.67710000  1.0 0.1212346142
H  H431  1  0.05620000  0.51360000  0.67710000  1.0 0.1212346142
H  H432  1  0.45740000  0.94380000  0.67710000  1.0 0.1212346142
H  H433  1  0.38450000  0.44930000  0.18120000  1.0 0.1294610356
H  H434  1  0.55070000  0.93520000  0.18120000  1.0 0.1294610356
H  H435  1  0.06480000  0.61550000  0.18120000  1.0 0.1294610356
H  H436  1  0.44930000  0.38450000  0.31880000  1.0 0.1294610356
H  H437  1  0.93520000  0.55070000  0.31880000  1.0 0.1294610356
H  H438  1  0.61550000  0.06480000  0.31880000  1.0 0.1294610356
H  H439  1  0.61550000  0.55070000  0.81880000  1.0 0.1294610356
H  H440  1  0.44930000  0.06480000  0.81880000  1.0 0.1294610356
H  H441  1  0.93520000  0.38450000  0.81880000  1.0 0.1294610356
H  H442  1  0.55070000  0.61550000  0.68120000  1.0 0.1294610356
H  H443  1  0.06480000  0.44930000  0.68120000  1.0 0.1294610356
H  H444  1  0.38450000  0.93520000  0.68120000  1.0 0.1294610356
H  H445  1  0.35690000  0.51590000  0.22380000  1.0 0.1212346142
H  H446  1  0.48410000  0.84100000  0.22380000  1.0 0.1212346142
H  H447  1  0.15900000  0.64310000  0.22380000  1.0 0.1212346142
H  H448  1  0.51590000  0.35690000  0.27620000  1.0 0.1212346142
H  H449  1  0.84100000  0.48410000  0.27620000  1.0 0.1212346142
H  H450  1  0.64310000  0.15900000  0.27620000  1.0 0.1212346142
H  H451  1  0.64310000  0.48410000  0.77620000  1.0 0.1212346142
H  H452  1  0.51590000  0.15900000  0.77620000  1.0 0.1212346142
H  H453  1  0.84100000  0.35690000  0.77620000  1.0 0.1212346142
H  H454  1  0.48410000  0.64310000  0.72380000  1.0 0.1212346142
H  H455  1  0.15900000  0.51590000  0.72380000  1.0 0.1212346142
H  H456  1  0.35690000  0.84100000  0.72380000  1.0 0.1212346142
H  H457  1  0.44290000  0.59680000  0.23610000  1.0 0.1294610356
H  H458  1  0.40320000  0.84610000  0.23610000  1.0 0.1294610356
H  H459  1  0.15390000  0.55710000  0.23610000  1.0 0.1294610356
H  H460  1  0.59680000  0.44290000  0.26390000  1.0 0.1294610356
H  H461  1  0.84610000  0.40320000  0.26390000  1.0 0.1294610356
H  H462  1  0.55710000  0.15390000  0.26390000  1.0 0.1294610356
H  H463  1  0.55710000  0.40320000  0.76390000  1.0 0.1294610356
H  H464  1  0.59680000  0.15390000  0.76390000  1.0 0.1294610356
H  H465  1  0.84610000  0.44290000  0.76390000  1.0 0.1294610356
H  H466  1  0.40320000  0.55710000  0.73610000  1.0 0.1294610356
H  H467  1  0.15390000  0.59680000  0.73610000  1.0 0.1294610356
H  H468  1  0.44290000  0.84610000  0.73610000  1.0 0.1294610356
H  H469  1  0.41210000  0.60770000  0.22140000  1.0 0.1294610356
H  H470  1  0.39230000  0.80440000  0.22140000  1.0 0.1294610356
H  H471  1  0.19560000  0.58790000  0.22140000  1.0 0.1294610356
H  H472  1  0.60770000  0.41210000  0.27860000  1.0 0.1294610356
H  H473  1  0.80440000  0.39230000  0.27860000  1.0 0.1294610356
H  H474  1  0.58790000  0.19560000  0.27860000  1.0 0.1294610356
H  H475  1  0.58790000  0.39230000  0.77860000  1.0 0.1294610356
H  H476  1  0.60770000  0.19560000  0.77860000  1.0 0.1294610356
H  H477  1  0.80440000  0.41210000  0.77860000  1.0 0.1294610356
H  H478  1  0.39230000  0.58790000  0.72140000  1.0 0.1294610356
H  H479  1  0.19560000  0.60770000  0.72140000  1.0 0.1294610356
H  H480  1  0.41210000  0.80440000  0.72140000  1.0 0.1294610356
H  H481  1  0.78980000  0.82300000  0.17280000  1.0 0.1212346142
H  H482  1  0.17700000  0.96680000  0.17280000  1.0 0.1212346142
H  H483  1  0.03320000  0.21020000  0.17280000  1.0 0.1212346142
H  H484  1  0.82300000  0.78980000  0.32720000  1.0 0.1212346142
H  H485  1  0.96680000  0.17700000  0.32720000  1.0 0.1212346142
H  H486  1  0.21020000  0.03320000  0.32720000  1.0 0.1212346142
H  H487  1  0.21020000  0.17700000  0.82720000  1.0 0.1212346142
H  H488  1  0.82300000  0.03320000  0.82720000  1.0 0.1212346142
H  H489  1  0.96680000  0.78980000  0.82720000  1.0 0.1212346142
H  H490  1  0.17700000  0.21020000  0.67280000  1.0 0.1212346142
H  H491  1  0.03320000  0.82300000  0.67280000  1.0 0.1212346142
H  H492  1  0.78980000  0.96680000  0.67280000  1.0 0.1212346142
H  H493  1  0.84940000  0.80920000  0.16780000  1.0 0.1212346142
H  H494  1  0.19080000  0.04020000  0.16780000  1.0 0.1212346142
H  H495  1  0.95980000  0.15060000  0.16780000  1.0 0.1212346142
H  H496  1  0.80920000  0.84940000  0.33220000  1.0 0.1212346142
H  H497  1  0.04020000  0.19080000  0.33220000  1.0 0.1212346142
H  H498  1  0.15060000  0.95980000  0.33220000  1.0 0.1212346142
H  H499  1  0.15060000  0.19080000  0.83220000  1.0 0.1212346142
H  H500  1  0.80920000  0.95980000  0.83220000  1.0 0.1212346142
H  H501  1  0.04020000  0.84940000  0.83220000  1.0 0.1212346142
H  H502  1  0.19080000  0.15060000  0.66780000  1.0 0.1212346142
H  H503  1  0.95980000  0.80920000  0.66780000  1.0 0.1212346142
H  H504  1  0.84940000  0.04020000  0.66780000  1.0 0.1212346142
H  H505  1  0.93210000  0.81070000  0.16920000  1.0 0.1212346142
H  H506  1  0.18930000  0.12140000  0.16920000  1.0 0.1212346142
H  H507  1  0.87860000  0.06790000  0.16920000  1.0 0.1212346142
H  H508  1  0.81070000  0.93210000  0.33080000  1.0 0.1212346142
H  H509  1  0.12140000  0.18930000  0.33080000  1.0 0.1212346142
H  H510  1  0.06790000  0.87860000  0.33080000  1.0 0.1212346142
H  H511  1  0.06790000  0.18930000  0.83080000  1.0 0.1212346142
H  H512  1  0.81070000  0.87860000  0.83080000  1.0 0.1212346142
H  H513  1  0.12140000  0.93210000  0.83080000  1.0 0.1212346142
H  H514  1  0.18930000  0.06790000  0.66920000  1.0 0.1212346142
H  H515  1  0.87860000  0.81070000  0.66920000  1.0 0.1212346142
H  H516  1  0.93210000  0.12140000  0.66920000  1.0 0.1212346142
H  H517  1  0.98970000  0.79890000  0.17730000  1.0 0.1294610356
H  H518  1  0.20110000  0.19080000  0.17730000  1.0 0.1294610356
H  H519  1  0.80920000  0.01030000  0.17730000  1.0 0.1294610356
H  H520  1  0.79890000  0.98970000  0.32270000  1.0 0.1294610356
H  H521  1  0.19080000  0.20110000  0.32270000  1.0 0.1294610356
H  H522  1  0.01030000  0.80920000  0.32270000  1.0 0.1294610356
H  H523  1  0.01030000  0.20110000  0.82270000  1.0 0.1294610356
H  H524  1  0.79890000  0.80920000  0.82270000  1.0 0.1294610356
H  H525  1  0.19080000  0.98970000  0.82270000  1.0 0.1294610356
H  H526  1  0.20110000  0.01030000  0.67730000  1.0 0.1294610356
H  H527  1  0.80920000  0.79890000  0.67730000  1.0 0.1294610356
H  H528  1  0.98970000  0.19080000  0.67730000  1.0 0.1294610356
H  H529  1  0.97070000  0.80910000  0.23570000  1.0 0.1393101593
H  H530  1  0.19090000  0.16160000  0.23570000  1.0 0.1393101593
H  H531  1  0.83840000  0.02930000  0.23570000  1.0 0.1393101593
H  H532  1  0.80910000  0.97070000  0.26430000  1.0 0.1393101593
H  H533  1  0.16160000  0.19090000  0.26430000  1.0 0.1393101593
H  H534  1  0.02930000  0.83840000  0.26430000  1.0 0.1393101593
H  H535  1  0.02930000  0.19090000  0.76430000  1.0 0.1393101593
H  H536  1  0.80910000  0.83840000  0.76430000  1.0 0.1393101593
H  H537  1  0.16160000  0.97070000  0.76430000  1.0 0.1393101593
H  H538  1  0.19090000  0.02930000  0.73570000  1.0 0.1393101593
H  H539  1  0.83840000  0.80910000  0.73570000  1.0 0.1393101593
H  H540  1  0.97070000  0.16160000  0.73570000  1.0 0.1393101593
H  H541  1  0.90740000  0.84520000  0.23920000  1.0 0.1393101593
H  H542  1  0.15480000  0.06220000  0.23920000  1.0 0.1393101593
H  H543  1  0.93780000  0.09260000  0.23920000  1.0 0.1393101593
H  H544  1  0.84520000  0.90740000  0.26080000  1.0 0.1393101593
H  H545  1  0.06220000  0.15480000  0.26080000  1.0 0.1393101593
H  H546  1  0.09260000  0.93780000  0.26080000  1.0 0.1393101593
H  H547  1  0.09260000  0.15480000  0.76080000  1.0 0.1393101593
H  H548  1  0.84520000  0.93780000  0.76080000  1.0 0.1393101593
H  H549  1  0.06220000  0.90740000  0.76080000  1.0 0.1393101593
H  H550  1  0.15480000  0.09260000  0.73920000  1.0 0.1393101593
H  H551  1  0.93780000  0.84520000  0.73920000  1.0 0.1393101593
H  H552  1  0.90740000  0.06220000  0.73920000  1.0 0.1393101593
H  H553  1  0.87530000  0.79060000  0.23990000  1.0 0.152455367
H  H554  1  0.20940000  0.08470000  0.23990000  1.0 0.152455367
H  H555  1  0.91530000  0.12470000  0.23990000  1.0 0.152455367
H  H556  1  0.79060000  0.87530000  0.26010000  1.0 0.152455367
H  H557  1  0.08470000  0.20940000  0.26010000  1.0 0.152455367
H  H558  1  0.12470000  0.91530000  0.26010000  1.0 0.152455367
H  H559  1  0.12470000  0.20940000  0.76010000  1.0 0.152455367
H  H560  1  0.79060000  0.91530000  0.76010000  1.0 0.152455367
H  H561  1  0.08470000  0.87530000  0.76010000  1.0 0.152455367
H  H562  1  0.20940000  0.12470000  0.73990000  1.0 0.152455367
H  H563  1  0.91530000  0.79060000  0.73990000  1.0 0.152455367
H  H564  1  0.87530000  0.08470000  0.73990000  1.0 0.152455367
H  H565  1  0.81390000  0.83190000  0.23200000  1.0 0.1294610356
H  H566  1  0.16810000  0.98200000  0.23200000  1.0 0.1294610356
H  H567  1  0.01800000  0.18610000  0.23200000  1.0 0.1294610356
H  H568  1  0.83190000  0.81390000  0.26800000  1.0 0.1294610356
H  H569  1  0.98200000  0.16810000  0.26800000  1.0 0.1294610356
H  H570  1  0.18610000  0.01800000  0.26800000  1.0 0.1294610356
H  H571  1  0.18610000  0.16810000  0.76800000  1.0 0.1294610356
H  H572  1  0.83190000  0.01800000  0.76800000  1.0 0.1294610356
H  H573  1  0.98200000  0.81390000  0.76800000  1.0 0.1294610356
H  H574  1  0.16810000  0.18610000  0.73200000  1.0 0.1294610356
H  H575  1  0.01800000  0.83190000  0.73200000  1.0 0.1294610356
H  H576  1  0.81390000  0.98200000  0.73200000  1.0 0.1294610356
C  C1  1  0.67460000  0.89110000  0.00975000  1.0 0.5894205145
C  C2  1  0.10890000  0.78350000  0.00975000  1.0 0.5894205145
C  C3  1  0.21650000  0.32540000  0.00975000  1.0 0.5894205145
C  C4  1  0.89110000  0.67460000  0.49025000  1.0 0.5894205145
C  C5  1  0.78350000  0.10890000  0.49025000  1.0 0.5894205145
C  C6  1  0.32540000  0.21650000  0.49025000  1.0 0.5894205145
C  C7  1  0.32540000  0.10890000  0.99025000  1.0 0.5894205145
C  C8  1  0.89110000  0.21650000  0.99025000  1.0 0.5894205145
C  C9  1  0.78350000  0.67460000  0.99025000  1.0 0.5894205145
C  C10  1  0.10890000  0.32540000  0.50975000  1.0 0.5894205145
C  C11  1  0.21650000  0.89110000  0.50975000  1.0 0.5894205145
C  C12  1  0.67460000  0.78350000  0.50975000  1.0 0.5894205145
C  C13  1  0.67100000  0.88370000  0.15553000  1.0 0.5992838343
C  C14  1  0.11630000  0.78730000  0.15553000  1.0 0.5992838343
C  C15  1  0.21270000  0.32900000  0.15553000  1.0 0.5992838343
C  C16  1  0.88370000  0.67100000  0.34447000  1.0 0.5992838343
C  C17  1  0.78730000  0.11630000  0.34447000  1.0 0.5992838343
C  C18  1  0.32900000  0.21270000  0.34447000  1.0 0.5992838343
C  C19  1  0.32900000  0.11630000  0.84447000  1.0 0.5992838343
C  C20  1  0.88370000  0.21270000  0.84447000  1.0 0.5992838343
C  C21  1  0.78730000  0.67100000  0.84447000  1.0 0.5992838343
C  C22  1  0.11630000  0.32900000  0.65553000  1.0 0.5992838343
C  C23  1  0.21270000  0.88370000  0.65553000  1.0 0.5992838343
C  C24  1  0.67100000  0.78730000  0.65553000  1.0 0.5992838343
C  C25  1  0.67320000  0.89670000  0.03142000  1.0 -0.0323224422
C  C26  1  0.10330000  0.77650000  0.03142000  1.0 -0.0323224422
C  C27  1  0.22350000  0.32680000  0.03142000  1.0 -0.0323224422
C  C28  1  0.89670000  0.67320000  0.46858000  1.0 -0.0323224422
C  C29  1  0.77650000  0.10330000  0.46858000  1.0 -0.0323224422
C  C30  1  0.32680000  0.22350000  0.46858000  1.0 -0.0323224422
C  C31  1  0.32680000  0.10330000  0.96858000  1.0 -0.0323224422
C  C32  1  0.89670000  0.22350000  0.96858000  1.0 -0.0323224422
C  C33  1  0.77650000  0.67320000  0.96858000  1.0 -0.0323224422
C  C34  1  0.10330000  0.32680000  0.53142000  1.0 -0.0323224422
C  C35  1  0.22350000  0.89670000  0.53142000  1.0 -0.0323224422
C  C36  1  0.67320000  0.77650000  0.53142000  1.0 -0.0323224422
C  C37  1  0.66760000  0.93300000  0.03814000  1.0 -0.1009565707
C  C38  1  0.06700000  0.73460000  0.03814000  1.0 -0.1009565707
C  C39  1  0.26540000  0.33240000  0.03814000  1.0 -0.1009565707
C  C40  1  0.93300000  0.66760000  0.46186000  1.0 -0.1009565707
C  C41  1  0.73460000  0.06700000  0.46186000  1.0 -0.1009565707
C  C42  1  0.33240000  0.26540000  0.46186000  1.0 -0.1009565707
C  C43  1  0.33240000  0.06700000  0.96186000  1.0 -0.1009565707
C  C44  1  0.93300000  0.26540000  0.96186000  1.0 -0.1009565707
C  C45  1  0.73460000  0.66760000  0.96186000  1.0 -0.1009565707
C  C46  1  0.06700000  0.33240000  0.53814000  1.0 -0.1009565707
C  C47  1  0.26540000  0.93300000  0.53814000  1.0 -0.1009565707
C  C48  1  0.66760000  0.73460000  0.53814000  1.0 -0.1009565707
C  C49  1  0.66830000  0.94140000  0.05825000  1.0 -0.1490667699
C  C50  1  0.05860000  0.72690000  0.05825000  1.0 -0.1490667699
C  C51  1  0.27310000  0.33170000  0.05825000  1.0 -0.1490667699
C  C52  1  0.94140000  0.66830000  0.44175000  1.0 -0.1490667699
C  C53  1  0.72690000  0.05860000  0.44175000  1.0 -0.1490667699
C  C54  1  0.33170000  0.27310000  0.44175000  1.0 -0.1490667699
C  C55  1  0.33170000  0.05860000  0.94175000  1.0 -0.1490667699
C  C56  1  0.94140000  0.27310000  0.94175000  1.0 -0.1490667699
C  C57  1  0.72690000  0.66830000  0.94175000  1.0 -0.1490667699
C  C58  1  0.05860000  0.33170000  0.55825000  1.0 -0.1490667699
C  C59  1  0.27310000  0.94140000  0.55825000  1.0 -0.1490667699
C  C60  1  0.66830000  0.72690000  0.55825000  1.0 -0.1490667699
C  C61  1  0.67470000  0.91350000  0.07164000  1.0 0.02247376
C  C62  1  0.08650000  0.76120000  0.07164000  1.0 0.02247376
C  C63  1  0.23880000  0.32530000  0.07164000  1.0 0.02247376
C  C64  1  0.91350000  0.67470000  0.42836000  1.0 0.02247376
C  C65  1  0.76120000  0.08650000  0.42836000  1.0 0.02247376
C  C66  1  0.32530000  0.23880000  0.42836000  1.0 0.02247376
C  C67  1  0.32530000  0.08650000  0.92836000  1.0 0.02247376
C  C68  1  0.91350000  0.23880000  0.92836000  1.0 0.02247376
C  C69  1  0.76120000  0.67470000  0.92836000  1.0 0.02247376
C  C70  1  0.08650000  0.32530000  0.57164000  1.0 0.02247376
C  C71  1  0.23880000  0.91350000  0.57164000  1.0 0.02247376
C  C72  1  0.67470000  0.76120000  0.57164000  1.0 0.02247376
C  C73  1  0.68030000  0.87720000  0.06492000  1.0 0.0803103229
C  C74  1  0.12280000  0.80310000  0.06492000  1.0 0.0803103229
C  C75  1  0.19690000  0.31970000  0.06492000  1.0 0.0803103229
C  C76  1  0.87720000  0.68030000  0.43508000  1.0 0.0803103229
C  C77  1  0.80310000  0.12280000  0.43508000  1.0 0.0803103229
C  C78  1  0.31970000  0.19690000  0.43508000  1.0 0.0803103229
C  C79  1  0.31970000  0.12280000  0.93508000  1.0 0.0803103229
C  C80  1  0.87720000  0.19690000  0.93508000  1.0 0.0803103229
C  C81  1  0.80310000  0.68030000  0.93508000  1.0 0.0803103229
C  C82  1  0.12280000  0.31970000  0.56492000  1.0 0.0803103229
C  C83  1  0.19690000  0.87720000  0.56492000  1.0 0.0803103229
C  C84  1  0.68030000  0.80310000  0.56492000  1.0 0.0803103229
C  C85  1  0.67960000  0.86890000  0.04481000  1.0 -0.1585573078
C  C86  1  0.13110000  0.81070000  0.04481000  1.0 -0.1585573078
C  C87  1  0.18930000  0.32040000  0.04481000  1.0 -0.1585573078
C  C88  1  0.86890000  0.67960000  0.45519000  1.0 -0.1585573078
C  C89  1  0.81070000  0.13110000  0.45519000  1.0 -0.1585573078
C  C90  1  0.32040000  0.18930000  0.45519000  1.0 -0.1585573078
C  C91  1  0.32040000  0.13110000  0.95519000  1.0 -0.1585573078
C  C92  1  0.86890000  0.18930000  0.95519000  1.0 -0.1585573078
C  C93  1  0.81070000  0.67960000  0.95519000  1.0 -0.1585573078
C  C94  1  0.13110000  0.32040000  0.54481000  1.0 -0.1585573078
C  C95  1  0.18930000  0.86890000  0.54481000  1.0 -0.1585573078
C  C96  1  0.67960000  0.81070000  0.54481000  1.0 -0.1585573078
C  C97  1  0.67090000  0.91080000  0.09384000  1.0 0.02247376
C  C98  1  0.08920000  0.76010000  0.09384000  1.0 0.02247376
C  C99  1  0.23990000  0.32910000  0.09384000  1.0 0.02247376
C  C100  1  0.91080000  0.67090000  0.40616000  1.0 0.02247376
C  C101  1  0.76010000  0.08920000  0.40616000  1.0 0.02247376
C  C102  1  0.32910000  0.23990000  0.40616000  1.0 0.02247376
C  C103  1  0.32910000  0.08920000  0.90616000  1.0 0.02247376
C  C104  1  0.91080000  0.23990000  0.90616000  1.0 0.02247376
C  C105  1  0.76010000  0.67090000  0.90616000  1.0 0.02247376
C  C106  1  0.08920000  0.32910000  0.59384000  1.0 0.02247376
C  C107  1  0.23990000  0.91080000  0.59384000  1.0 0.02247376
C  C108  1  0.67090000  0.76010000  0.59384000  1.0 0.02247376
C  C109  1  0.66390000  0.93810000  0.10731000  1.0 -0.1490667699
C  C110  1  0.06190000  0.72580000  0.10731000  1.0 -0.1490667699
C  C111  1  0.27420000  0.33610000  0.10731000  1.0 -0.1490667699
C  C112  1  0.93810000  0.66390000  0.39269000  1.0 -0.1490667699
C  C113  1  0.72580000  0.06190000  0.39269000  1.0 -0.1490667699
C  C114  1  0.33610000  0.27420000  0.39269000  1.0 -0.1490667699
C  C115  1  0.33610000  0.06190000  0.89269000  1.0 -0.1490667699
C  C116  1  0.93810000  0.27420000  0.89269000  1.0 -0.1490667699
C  C117  1  0.72580000  0.66390000  0.89269000  1.0 -0.1490667699
C  C118  1  0.06190000  0.33610000  0.60731000  1.0 -0.1490667699
C  C119  1  0.27420000  0.93810000  0.60731000  1.0 -0.1490667699
C  C120  1  0.66390000  0.72580000  0.60731000  1.0 -0.1490667699
C  C121  1  0.66360000  0.92970000  0.12740000  1.0 -0.1009565707
C  C122  1  0.07030000  0.73390000  0.12740000  1.0 -0.1009565707
C  C123  1  0.26610000  0.33640000  0.12740000  1.0 -0.1009565707
C  C124  1  0.92970000  0.66360000  0.37260000  1.0 -0.1009565707
C  C125  1  0.73390000  0.07030000  0.37260000  1.0 -0.0906671657
C  C126  1  0.33640000  0.26610000  0.37260000  1.0 -0.0906671657
C  C127  1  0.33640000  0.07030000  0.87260000  1.0 -0.1009565707
C  C128  1  0.92970000  0.26610000  0.87260000  1.0 -0.1009565707
C  C129  1  0.73390000  0.66360000  0.87260000  1.0 -0.1009565707
C  C130  1  0.07030000  0.33640000  0.62740000  1.0 -0.0906671657
C  C131  1  0.26610000  0.92970000  0.62740000  1.0 -0.1009565707
C  C132  1  0.66360000  0.73390000  0.62740000  1.0 -0.1009565707
C  C133  1  0.67040000  0.89410000  0.13402000  1.0 -0.0323224422
C  C134  1  0.10590000  0.77630000  0.13402000  1.0 -0.0323224422
C  C135  1  0.22370000  0.32960000  0.13402000  1.0 -0.0323224422
C  C136  1  0.89410000  0.67040000  0.36598000  1.0 -0.0323224422
C  C137  1  0.77630000  0.10590000  0.36598000  1.0 -0.0323224422
C  C138  1  0.32960000  0.22370000  0.36598000  1.0 -0.0323224422
C  C139  1  0.32960000  0.10590000  0.86598000  1.0 -0.0323224422
C  C140  1  0.89410000  0.22370000  0.86598000  1.0 -0.0323224422
C  C141  1  0.77630000  0.67040000  0.86598000  1.0 -0.0323224422
C  C142  1  0.10590000  0.32960000  0.63402000  1.0 -0.0323224422
C  C143  1  0.22370000  0.89410000  0.63402000  1.0 -0.0323224422
C  C144  1  0.67040000  0.77630000  0.63402000  1.0 -0.0323224422
C  C145  1  0.67750000  0.86690000  0.12055000  1.0 -0.1490667699
C  C146  1  0.13310000  0.81060000  0.12055000  1.0 -0.1490667699
C  C147  1  0.18940000  0.32250000  0.12055000  1.0 -0.1490667699
C  C148  1  0.86690000  0.67750000  0.37945000  1.0 -0.1490667699
C  C149  1  0.81060000  0.13310000  0.37945000  1.0 -0.1490667699
C  C150  1  0.32250000  0.18940000  0.37945000  1.0 -0.1490667699
C  C151  1  0.32250000  0.13310000  0.87945000  1.0 -0.1490667699
C  C152  1  0.86690000  0.18940000  0.87945000  1.0 -0.1490667699
C  C153  1  0.81060000  0.67750000  0.87945000  1.0 -0.1490667699
C  C154  1  0.13310000  0.32250000  0.62055000  1.0 -0.1490667699
C  C155  1  0.18940000  0.86690000  0.62055000  1.0 -0.1490667699
C  C156  1  0.67750000  0.81060000  0.62055000  1.0 -0.1490667699
C  C157  1  0.67770000  0.87520000  0.10046000  1.0 0.0665516448
C  C158  1  0.12480000  0.80250000  0.10046000  1.0 0.0665516448
C  C159  1  0.19750000  0.32230000  0.10046000  1.0 0.0665516448
C  C160  1  0.87520000  0.67770000  0.39954000  1.0 0.0665516448
C  C161  1  0.80250000  0.12480000  0.39954000  1.0 0.0665516448
C  C162  1  0.32230000  0.19750000  0.39954000  1.0 0.0665516448
C  C163  1  0.32230000  0.12480000  0.89954000  1.0 0.0665516448
C  C164  1  0.87520000  0.19750000  0.89954000  1.0 0.0665516448
C  C165  1  0.80250000  0.67770000  0.89954000  1.0 0.0665516448
C  C166  1  0.12480000  0.32230000  0.60046000  1.0 0.0665516448
C  C167  1  0.19750000  0.87520000  0.60046000  1.0 0.0665516448
C  C168  1  0.67770000  0.80250000  0.60046000  1.0 0.0665516448
C  C169  1  0.68440000  0.84670000  0.08203000  1.0 -0.2795161428
C  C170  1  0.15330000  0.83770000  0.08203000  1.0 -0.2795161428
C  C171  1  0.16230000  0.31560000  0.08203000  1.0 -0.2795161428
C  C172  1  0.84670000  0.68440000  0.41797000  1.0 -0.2795161428
C  C173  1  0.83770000  0.15330000  0.41797000  1.0 -0.2795161428
C  C174  1  0.31560000  0.16230000  0.41797000  1.0 -0.2795161428
C  C175  1  0.31560000  0.15330000  0.91797000  1.0 -0.2795161428
C  C176  1  0.84670000  0.16230000  0.91797000  1.0 -0.2795161428
C  C177  1  0.83770000  0.68440000  0.91797000  1.0 -0.2795161428
C  C178  1  0.15330000  0.31560000  0.58203000  1.0 -0.2795161428
C  C179  1  0.16230000  0.84670000  0.58203000  1.0 -0.2795161428
C  C180  1  0.68440000  0.83770000  0.58203000  1.0 -0.2795161428
C  C181  1  0.64920000  0.84720000  0.90412000  1.0 0.5992838343
C  C182  1  0.15280000  0.80200000  0.90412000  1.0 0.5894205145
C  C183  1  0.19800000  0.35080000  0.90412000  1.0 0.5894205145
C  C184  1  0.84720000  0.64920000  0.59588000  1.0 0.5992838343
C  C185  1  0.80200000  0.15280000  0.59588000  1.0 0.5992838343
C  C186  1  0.35080000  0.19800000  0.59588000  1.0 0.5992838343
C  C187  1  0.35080000  0.15280000  0.09588000  1.0 0.5894205145
C  C188  1  0.84720000  0.19800000  0.09588000  1.0 0.5992838343
C  C189  1  0.80200000  0.64920000  0.09588000  1.0 0.5992838343
C  C190  1  0.15280000  0.35080000  0.40412000  1.0 0.5894205145
C  C191  1  0.19800000  0.84720000  0.40412000  1.0 0.5894205145
C  C192  1  0.64920000  0.80200000  0.40412000  1.0 0.5992838343
C  C193  1  0.65220000  0.80520000  0.76018000  1.0 0.5992838343
C  C194  1  0.19480000  0.84700000  0.76018000  1.0 0.5992838343
C  C195  1  0.15300000  0.34780000  0.76018000  1.0 0.5992838343
C  C196  1  0.80520000  0.65220000  0.73982000  1.0 0.5992838343
C  C197  1  0.84700000  0.19480000  0.73982000  1.0 0.5992838343
C  C198  1  0.34780000  0.15300000  0.73982000  1.0 0.5992838343
C  C199  1  0.34780000  0.19480000  0.23982000  1.0 0.5992838343
C  C200  1  0.80520000  0.15300000  0.23982000  1.0 0.5992838343
C  C201  1  0.84700000  0.65220000  0.23982000  1.0 0.5992838343
C  C202  1  0.19480000  0.34780000  0.26018000  1.0 0.5992838343
C  C203  1  0.15300000  0.80520000  0.26018000  1.0 0.5992838343
C  C204  1  0.65220000  0.84700000  0.26018000  1.0 0.5992838343
C  C205  1  0.64260000  0.83680000  0.88286000  1.0 -0.0515420525
C  C206  1  0.16320000  0.80580000  0.88286000  1.0 -0.0515420525
C  C207  1  0.19420000  0.35740000  0.88286000  1.0 -0.0515420525
C  C208  1  0.83680000  0.64260000  0.61714000  1.0 -0.0515420525
C  C209  1  0.80580000  0.16320000  0.61714000  1.0 -0.0515420525
C  C210  1  0.35740000  0.19420000  0.61714000  1.0 -0.0515420525
C  C211  1  0.35740000  0.16320000  0.11714000  1.0 -0.0515420525
C  C212  1  0.83680000  0.19420000  0.11714000  1.0 -0.0515420525
C  C213  1  0.80580000  0.64260000  0.11714000  1.0 -0.0515420525
C  C214  1  0.16320000  0.35740000  0.38286000  1.0 -0.0515420525
C  C215  1  0.19420000  0.83680000  0.38286000  1.0 -0.0515420525
C  C216  1  0.64260000  0.80580000  0.38286000  1.0 -0.0515420525
C  C217  1  0.59460000  0.80510000  0.87580000  1.0 -0.0906671657
C  C218  1  0.19490000  0.78950000  0.87580000  1.0 -0.0906671657
C  C219  1  0.21050000  0.40540000  0.87580000  1.0 -0.0906671657
C  C220  1  0.80510000  0.59460000  0.62420000  1.0 -0.0906671657
C  C221  1  0.78950000  0.19490000  0.62420000  1.0 -0.0906671657
C  C222  1  0.40540000  0.21050000  0.62420000  1.0 -0.0906671657
C  C223  1  0.40540000  0.19490000  0.12420000  1.0 -0.0906671657
C  C224  1  0.80510000  0.21050000  0.12420000  1.0 -0.0906671657
C  C225  1  0.78950000  0.59460000  0.12420000  1.0 -0.0906671657
C  C226  1  0.19490000  0.40540000  0.37580000  1.0 -0.0906671657
C  C227  1  0.21050000  0.80510000  0.37580000  1.0 -0.0906671657
C  C228  1  0.59460000  0.78950000  0.37580000  1.0 -0.0906671657
C  C229  1  0.58650000  0.78940000  0.85620000  1.0 -0.1490667699
C  C230  1  0.21060000  0.79710000  0.85620000  1.0 -0.1396080528
C  C231  1  0.20290000  0.41350000  0.85620000  1.0 -0.1490667699
C  C232  1  0.78940000  0.58650000  0.64380000  1.0 -0.1490667699
C  C233  1  0.79710000  0.21060000  0.64380000  1.0 -0.1490667699
C  C234  1  0.41350000  0.20290000  0.64380000  1.0 -0.1490667699
C  C235  1  0.41350000  0.21060000  0.14380000  1.0 -0.1490667699
C  C236  1  0.78940000  0.20290000  0.14380000  1.0 -0.1396080528
C  C237  1  0.79710000  0.58650000  0.14380000  1.0 -0.1490667699
C  C238  1  0.21060000  0.41350000  0.35620000  1.0 -0.1490667699
C  C239  1  0.20290000  0.78940000  0.35620000  1.0 -0.1490667699
C  C240  1  0.58650000  0.79710000  0.35620000  1.0 -0.1490667699
C  C241  1  0.62160000  0.80990000  0.84291000  1.0 0.0302553499
C  C242  1  0.19010000  0.81170000  0.84291000  1.0 0.0302553499
C  C243  1  0.18830000  0.37840000  0.84291000  1.0 0.0302553499
C  C244  1  0.80990000  0.62160000  0.65709000  1.0 0.0302553499
C  C245  1  0.81170000  0.19010000  0.65709000  1.0 0.0302553499
C  C246  1  0.37840000  0.18830000  0.65709000  1.0 0.0302553499
C  C247  1  0.37840000  0.19010000  0.15709000  1.0 0.0302553499
C  C248  1  0.80990000  0.18830000  0.15709000  1.0 0.0302553499
C  C249  1  0.81170000  0.62160000  0.15709000  1.0 0.0302553499
C  C250  1  0.19010000  0.37840000  0.34291000  1.0 0.0302553499
C  C251  1  0.18830000  0.80990000  0.34291000  1.0 0.0302553499
C  C252  1  0.62160000  0.81170000  0.34291000  1.0 0.0302553499
C  C253  1  0.62380000  0.80610000  0.82161000  1.0 0.02247376
C  C254  1  0.19390000  0.81770000  0.82161000  1.0 0.02247376
C  C255  1  0.18230000  0.37620000  0.82161000  1.0 0.02247376
C  C256  1  0.80610000  0.62380000  0.67839000  1.0 0.02247376
C  C257  1  0.81770000  0.19390000  0.67839000  1.0 0.02247376
C  C258  1  0.37620000  0.18230000  0.67839000  1.0 0.02247376
C  C259  1  0.37620000  0.19390000  0.17839000  1.0 0.02247376
C  C260  1  0.80610000  0.18230000  0.17839000  1.0 0.02247376
C  C261  1  0.81770000  0.62380000  0.17839000  1.0 0.02247376
C  C262  1  0.19390000  0.37620000  0.32161000  1.0 0.02247376
C  C263  1  0.18230000  0.80610000  0.32161000  1.0 0.02247376
C  C264  1  0.62380000  0.81770000  0.32161000  1.0 0.02247376
C  C265  1  0.58560000  0.77600000  0.80940000  1.0 -0.1585573078
C  C266  1  0.22400000  0.80960000  0.80940000  1.0 -0.1585573078
C  C267  1  0.19040000  0.41440000  0.80940000  1.0 -0.1585573078
C  C268  1  0.77600000  0.58560000  0.69060000  1.0 -0.1585573078
C  C269  1  0.80960000  0.22400000  0.69060000  1.0 -0.1585573078
C  C270  1  0.41440000  0.19040000  0.69060000  1.0 -0.1585573078
C  C271  1  0.41440000  0.22400000  0.19060000  1.0 -0.1585573078
C  C272  1  0.77600000  0.19040000  0.19060000  1.0 -0.1585573078
C  C273  1  0.80960000  0.58560000  0.19060000  1.0 -0.1585573078
C  C274  1  0.22400000  0.41440000  0.30940000  1.0 -0.1585573078
C  C275  1  0.19040000  0.77600000  0.30940000  1.0 -0.1585573078
C  C276  1  0.58560000  0.80960000  0.30940000  1.0 -0.1585573078
C  C277  1  0.59720000  0.78240000  0.78864000  1.0 -0.1083157944
C  C278  1  0.21760000  0.81480000  0.78864000  1.0 -0.1083157944
C  C279  1  0.18520000  0.40280000  0.78864000  1.0 -0.1083157944
C  C280  1  0.78240000  0.59720000  0.71136000  1.0 -0.1009565707
C  C281  1  0.81480000  0.21760000  0.71136000  1.0 -0.1083157944
C  C282  1  0.40280000  0.18520000  0.71136000  1.0 -0.1083157944
C  C283  1  0.40280000  0.21760000  0.21136000  1.0 -0.1083157944
C  C284  1  0.78240000  0.18520000  0.21136000  1.0 -0.1083157944
C  C285  1  0.81480000  0.59720000  0.21136000  1.0 -0.1083157944
C  C286  1  0.21760000  0.40280000  0.28864000  1.0 -0.1083157944
C  C287  1  0.18520000  0.78240000  0.28864000  1.0 -0.1083157944
C  C288  1  0.59720000  0.81480000  0.28864000  1.0 -0.1083157944
C  C289  1  0.64400000  0.80450000  0.78252000  1.0 -0.0126844089
C  C290  1  0.19550000  0.83950000  0.78252000  1.0 -0.0126844089
C  C291  1  0.16050000  0.35600000  0.78252000  1.0 -0.0126844089
C  C292  1  0.80450000  0.64400000  0.71748000  1.0 -0.0126844089
C  C293  1  0.83950000  0.19550000  0.71748000  1.0 -0.0126844089
C  C294  1  0.35600000  0.16050000  0.71748000  1.0 -0.0126844089
C  C295  1  0.35600000  0.19550000  0.21748000  1.0 -0.0126844089
C  C296  1  0.80450000  0.16050000  0.21748000  1.0 -0.0126844089
C  C297  1  0.83950000  0.64400000  0.21748000  1.0 -0.0126844089
C  C298  1  0.19550000  0.35600000  0.28252000  1.0 -0.0126844089
C  C299  1  0.16050000  0.80450000  0.28252000  1.0 -0.0126844089
C  C300  1  0.64400000  0.83950000  0.28252000  1.0 -0.0126844089
C  C301  1  0.67870000  0.82930000  0.79526000  1.0 -0.1585573078
C  C302  1  0.17070000  0.84940000  0.79526000  1.0 -0.1585573078
C  C303  1  0.15060000  0.32130000  0.79526000  1.0 -0.1585573078
C  C304  1  0.82930000  0.67870000  0.70474000  1.0 -0.1585573078
C  C305  1  0.84940000  0.17070000  0.70474000  1.0 -0.1585573078
C  C306  1  0.32130000  0.15060000  0.70474000  1.0 -0.1585573078
C  C307  1  0.32130000  0.17070000  0.20474000  1.0 -0.1585573078
C  C308  1  0.82930000  0.15060000  0.20474000  1.0 -0.1585573078
C  C309  1  0.84940000  0.67870000  0.20474000  1.0 -0.1585573078
C  C310  1  0.17070000  0.32130000  0.29526000  1.0 -0.1585573078
C  C311  1  0.15060000  0.82930000  0.29526000  1.0 -0.1585573078
C  C312  1  0.67870000  0.84940000  0.29526000  1.0 -0.1585573078
C  C313  1  0.66940000  0.82900000  0.81558000  1.0 0.0803103229
C  C314  1  0.17100000  0.84040000  0.81558000  1.0 0.0803103229
C  C315  1  0.15960000  0.33060000  0.81558000  1.0 0.0803103229
C  C316  1  0.82900000  0.66940000  0.68442000  1.0 0.0803103229
C  C317  1  0.84040000  0.17100000  0.68442000  1.0 0.0803103229
C  C318  1  0.33060000  0.15960000  0.68442000  1.0 0.0803103229
C  C319  1  0.33060000  0.17100000  0.18442000  1.0 0.0803103229
C  C320  1  0.82900000  0.15960000  0.18442000  1.0 0.0803103229
C  C321  1  0.84040000  0.66940000  0.18442000  1.0 0.0803103229
C  C322  1  0.17100000  0.33060000  0.31558000  1.0 0.0803103229
C  C323  1  0.15960000  0.82900000  0.31558000  1.0 0.0803103229
C  C324  1  0.66940000  0.84040000  0.31558000  1.0 0.0803103229
C  C325  1  0.70130000  0.85630000  0.83287000  1.0 -0.2795161428
C  C326  1  0.14370000  0.84500000  0.83287000  1.0 -0.2795161428
C  C327  1  0.15500000  0.29870000  0.83287000  1.0 -0.2795161428
C  C328  1  0.85630000  0.70130000  0.66713000  1.0 -0.2684397337
C  C329  1  0.84500000  0.14370000  0.66713000  1.0 -0.2684397337
C  C330  1  0.29870000  0.15500000  0.66713000  1.0 -0.2795161428
C  C331  1  0.29870000  0.14370000  0.16713000  1.0 -0.2795161428
C  C332  1  0.85630000  0.15500000  0.16713000  1.0 -0.2795161428
C  C333  1  0.84500000  0.70130000  0.16713000  1.0 -0.2684397337
C  C334  1  0.14370000  0.29870000  0.33287000  1.0 -0.2795161428
C  C335  1  0.15500000  0.85630000  0.33287000  1.0 -0.2795161428
C  C336  1  0.70130000  0.84500000  0.33287000  1.0 -0.2795161428
C  C337  1  0.66780000  0.84080000  0.85002000  1.0 0.0803103229
C  C338  1  0.15920000  0.82700000  0.85002000  1.0 0.0803103229
C  C339  1  0.17300000  0.33220000  0.85002000  1.0 0.0803103229
C  C340  1  0.84080000  0.66780000  0.64998000  1.0 0.0803103229
C  C341  1  0.82700000  0.15920000  0.64998000  1.0 0.0803103229
C  C342  1  0.33220000  0.17300000  0.64998000  1.0 0.0803103229
C  C343  1  0.33220000  0.15920000  0.14998000  1.0 0.0803103229
C  C344  1  0.84080000  0.17300000  0.14998000  1.0 0.0803103229
C  C345  1  0.82700000  0.66780000  0.14998000  1.0 0.0803103229
C  C346  1  0.15920000  0.33220000  0.35002000  1.0 0.0803103229
C  C347  1  0.17300000  0.84080000  0.35002000  1.0 0.0803103229
C  C348  1  0.66780000  0.82700000  0.35002000  1.0 0.0803103229
C  C349  1  0.67830000  0.85350000  0.86946000  1.0 -0.1490667699
C  C350  1  0.14650000  0.82480000  0.86946000  1.0 -0.1490667699
C  C351  1  0.17520000  0.32170000  0.86946000  1.0 -0.1490667699
C  C352  1  0.85350000  0.67830000  0.63054000  1.0 -0.1490667699
C  C353  1  0.82480000  0.14650000  0.63054000  1.0 -0.1490667699
C  C354  1  0.32170000  0.17520000  0.63054000  1.0 -0.1490667699
C  C355  1  0.32170000  0.14650000  0.13054000  1.0 -0.1490667699
C  C356  1  0.85350000  0.17520000  0.13054000  1.0 -0.1490667699
C  C357  1  0.82480000  0.67830000  0.13054000  1.0 -0.1490667699
C  C358  1  0.14650000  0.32170000  0.36946000  1.0 -0.1490667699
C  C359  1  0.17520000  0.85350000  0.36946000  1.0 -0.1490667699
C  C360  1  0.67830000  0.82480000  0.36946000  1.0 -0.1490667699
C  C361  1  0.57690000  0.75400000  0.96890000  1.0 0.5894205145
C  C362  1  0.24600000  0.82290000  0.96890000  1.0 0.5894205145
C  C363  1  0.17710000  0.42310000  0.96890000  1.0 0.5894205145
C  C364  1  0.75400000  0.57690000  0.53110000  1.0 0.5894205145
C  C365  1  0.82290000  0.24600000  0.53110000  1.0 0.5894205145
C  C366  1  0.42310000  0.17710000  0.53110000  1.0 0.5894205145
C  C367  1  0.42310000  0.24600000  0.03110000  1.0 0.5894205145
C  C368  1  0.75400000  0.17710000  0.03110000  1.0 0.5894205145
C  C369  1  0.82290000  0.57690000  0.03110000  1.0 0.5894205145
C  C370  1  0.24600000  0.42310000  0.46890000  1.0 0.5894205145
C  C371  1  0.17710000  0.75400000  0.46890000  1.0 0.5894205145
C  C372  1  0.57690000  0.82290000  0.46890000  1.0 0.5894205145
C  C373  1  0.31920000  0.43270000  0.96200000  1.0 0.5613667094
C  C374  1  0.56730000  0.88650000  0.96200000  1.0 0.5613667094
C  C375  1  0.11350000  0.68080000  0.96200000  1.0 0.5613667094
C  C376  1  0.43270000  0.31920000  0.53800000  1.0 0.5613667094
C  C377  1  0.88650000  0.56730000  0.53800000  1.0 0.5613667094
C  C378  1  0.68080000  0.11350000  0.53800000  1.0 0.5613667094
C  C379  1  0.68080000  0.56730000  0.03800000  1.0 0.5613667094
C  C380  1  0.43270000  0.11350000  0.03800000  1.0 0.5613667094
C  C381  1  0.88650000  0.31920000  0.03800000  1.0 0.5613667094
C  C382  1  0.56730000  0.68080000  0.46200000  1.0 0.5613667094
C  C383  1  0.11350000  0.43270000  0.46200000  1.0 0.5613667094
C  C384  1  0.31920000  0.88650000  0.46200000  1.0 0.5613667094
C  C385  1  0.54150000  0.70350000  0.97090000  1.0 -0.0182563186
C  C386  1  0.29650000  0.83800000  0.97090000  1.0 -0.0182563186
C  C387  1  0.16200000  0.45850000  0.97090000  1.0 -0.0182563186
C  C388  1  0.70350000  0.54150000  0.52910000  1.0 -0.0182563186
C  C389  1  0.83800000  0.29650000  0.52910000  1.0 -0.0182563186
C  C390  1  0.45850000  0.16200000  0.52910000  1.0 -0.0182563186
C  C391  1  0.45850000  0.29650000  0.02910000  1.0 -0.0182563186
C  C392  1  0.70350000  0.16200000  0.02910000  1.0 -0.0182563186
C  C393  1  0.83800000  0.54150000  0.02910000  1.0 -0.0182563186
C  C394  1  0.29650000  0.45850000  0.47090000  1.0 -0.0182563186
C  C395  1  0.16200000  0.70350000  0.47090000  1.0 -0.0182563186
C  C396  1  0.54150000  0.83800000  0.47090000  1.0 -0.0182563186
C  C397  1  0.53820000  0.67870000  0.98970000  1.0 -0.1202890974
C  C398  1  0.32130000  0.85950000  0.98970000  1.0 -0.1202890974
C  C399  1  0.14050000  0.46180000  0.98970000  1.0 -0.1202890974
C  C400  1  0.67870000  0.53820000  0.51030000  1.0 -0.1202890974
C  C401  1  0.85950000  0.32130000  0.51030000  1.0 -0.1202890974
C  C402  1  0.46180000  0.14050000  0.51030000  1.0 -0.1202890974
C  C403  1  0.46180000  0.32130000  0.01030000  1.0 -0.1202890974
C  C404  1  0.67870000  0.14050000  0.01030000  1.0 -0.1202890974
C  C405  1  0.85950000  0.53820000  0.01030000  1.0 -0.1290162427
C  C406  1  0.32130000  0.46180000  0.48970000  1.0 -0.1202890974
C  C407  1  0.14050000  0.67870000  0.48970000  1.0 -0.1202890974
C  C408  1  0.53820000  0.85950000  0.48970000  1.0 -0.1202890974
C  C409  1  0.50570000  0.63580000  0.99190000  1.0 -0.1396080528
C  C410  1  0.36420000  0.86990000  0.99190000  1.0 -0.1396080528
C  C411  1  0.13010000  0.49430000  0.99190000  1.0 -0.1396080528
C  C412  1  0.63580000  0.50570000  0.50810000  1.0 -0.1396080528
C  C413  1  0.86990000  0.36420000  0.50810000  1.0 -0.1396080528
C  C414  1  0.49430000  0.13010000  0.50810000  1.0 -0.1396080528
C  C415  1  0.49430000  0.36420000  0.00810000  1.0 -0.1396080528
C  C416  1  0.63580000  0.13010000  0.00810000  1.0 -0.1396080528
C  C417  1  0.86990000  0.50570000  0.00810000  1.0 -0.1396080528
C  C418  1  0.36420000  0.49430000  0.49190000  1.0 -0.1396080528
C  C419  1  0.13010000  0.63580000  0.49190000  1.0 -0.1396080528
C  C420  1  0.50570000  0.86990000  0.49190000  1.0 -0.1396080528
C  C421  1  0.47650000  0.61220000  0.97630000  1.0 0.0302553499
C  C422  1  0.38780000  0.86430000  0.97630000  1.0 0.0388897439
C  C423  1  0.13570000  0.52350000  0.97630000  1.0 0.0302553499
C  C424  1  0.61220000  0.47650000  0.52370000  1.0 0.0388897439
C  C425  1  0.86430000  0.38780000  0.52370000  1.0 0.0302553499
C  C426  1  0.52350000  0.13570000  0.52370000  1.0 0.0388897439
C  C427  1  0.52350000  0.38780000  0.02370000  1.0 0.0302553499
C  C428  1  0.61220000  0.13570000  0.02370000  1.0 0.0388897439
C  C429  1  0.86430000  0.47650000  0.02370000  1.0 0.0302553499
C  C430  1  0.38780000  0.52350000  0.47630000  1.0 0.0302553499
C  C431  1  0.13570000  0.61220000  0.47630000  1.0 0.0302553499
C  C432  1  0.47650000  0.86430000  0.47630000  1.0 0.0388897439
C  C433  1  0.43590000  0.56270000  0.97620000  1.0 0.0302553499
C  C434  1  0.43730000  0.87320000  0.97620000  1.0 0.0302553499
C  C435  1  0.12680000  0.56410000  0.97620000  1.0 0.0302553499
C  C436  1  0.56270000  0.43590000  0.52380000  1.0 0.0302553499
C  C437  1  0.87320000  0.43730000  0.52380000  1.0 0.0302553499
C  C438  1  0.56410000  0.12680000  0.52380000  1.0 0.02247376
C  C439  1  0.56410000  0.43730000  0.02380000  1.0 0.0302553499
C  C440  1  0.56270000  0.12680000  0.02380000  1.0 0.0302553499
C  C441  1  0.87320000  0.43590000  0.02380000  1.0 0.0302553499
C  C442  1  0.43730000  0.56410000  0.47620000  1.0 0.0302553499
C  C443  1  0.12680000  0.56270000  0.47620000  1.0 0.0302553499
C  C444  1  0.43590000  0.87320000  0.47620000  1.0 0.0302553499
C  C445  1  0.42110000  0.52710000  0.99090000  1.0 -0.1702109809
C  C446  1  0.47290000  0.89400000  0.99090000  1.0 -0.1702109809
C  C447  1  0.10600000  0.57890000  0.99090000  1.0 -0.1702109809
C  C448  1  0.52710000  0.42110000  0.50910000  1.0 -0.1585573078
C  C449  1  0.89400000  0.47290000  0.50910000  1.0 -0.1702109809
C  C450  1  0.57890000  0.10600000  0.50910000  1.0 -0.1585573078
C  C451  1  0.57890000  0.47290000  0.00910000  1.0 -0.1702109809
C  C452  1  0.52710000  0.10600000  0.00910000  1.0 -0.1702109809
C  C453  1  0.89400000  0.42110000  0.00910000  1.0 -0.1702109809
C  C454  1  0.47290000  0.57890000  0.49090000  1.0 -0.1702109809
C  C455  1  0.10600000  0.52710000  0.49090000  1.0 -0.1585573078
C  C456  1  0.42110000  0.89400000  0.49090000  1.0 -0.1702109809
C  C457  1  0.38620000  0.48780000  0.98440000  1.0 -0.1396080528
C  C458  1  0.51220000  0.89840000  0.98440000  1.0 -0.1290162427
C  C459  1  0.10160000  0.61380000  0.98440000  1.0 -0.1396080528
C  C460  1  0.48780000  0.38620000  0.51560000  1.0 -0.1396080528
C  C461  1  0.89840000  0.51220000  0.51560000  1.0 -0.1396080528
C  C462  1  0.61380000  0.10160000  0.51560000  1.0 -0.1396080528
C  C463  1  0.61380000  0.51220000  0.01560000  1.0 -0.1396080528
C  C464  1  0.48780000  0.10160000  0.01560000  1.0 -0.1396080528
C  C465  1  0.89840000  0.38620000  0.01560000  1.0 -0.1396080528
C  C466  1  0.51220000  0.61380000  0.48440000  1.0 -0.1396080528
C  C467  1  0.10160000  0.48780000  0.48440000  1.0 -0.1396080528
C  C468  1  0.38620000  0.89840000  0.48440000  1.0 -0.1396080528
C  C469  1  0.36050000  0.48100000  0.96600000  1.0 0.0033791495
C  C470  1  0.51900000  0.87950000  0.96600000  1.0 0.0033791495
C  C471  1  0.12050000  0.63950000  0.96600000  1.0 0.0033791495
C  C472  1  0.48100000  0.36050000  0.53400000  1.0 0.0033791495
C  C473  1  0.87950000  0.51900000  0.53400000  1.0 0.0033791495
C  C474  1  0.63950000  0.12050000  0.53400000  1.0 0.0033791495
C  C475  1  0.63950000  0.51900000  0.03400000  1.0 0.0033791495
C  C476  1  0.48100000  0.12050000  0.03400000  1.0 0.0033791495
C  C477  1  0.87950000  0.36050000  0.03400000  1.0 0.0033791495
C  C478  1  0.51900000  0.63950000  0.46600000  1.0 0.0033791495
C  C479  1  0.12050000  0.48100000  0.46600000  1.0 0.0033791495
C  C480  1  0.36050000  0.87950000  0.46600000  1.0 0.0033791495
C  C481  1  0.37660000  0.51680000  0.95240000  1.0 -0.1702109809
C  C482  1  0.48320000  0.85980000  0.95240000  1.0 -0.1702109809
C  C483  1  0.14020000  0.62340000  0.95240000  1.0 -0.1702109809
C  C484  1  0.51680000  0.37660000  0.54760000  1.0 -0.1702109809
C  C485  1  0.85980000  0.48320000  0.54760000  1.0 -0.1702109809
C  C486  1  0.62340000  0.14020000  0.54760000  1.0 -0.1702109809
C  C487  1  0.62340000  0.48320000  0.04760000  1.0 -0.1702109809
C  C488  1  0.51680000  0.14020000  0.04760000  1.0 -0.1702109809
C  C489  1  0.85980000  0.37660000  0.04760000  1.0 -0.1814128159
C  C490  1  0.48320000  0.62340000  0.45240000  1.0 -0.1702109809
C  C491  1  0.14020000  0.51680000  0.45240000  1.0 -0.1814128159
C  C492  1  0.37660000  0.85980000  0.45240000  1.0 -0.1702109809
C  C493  1  0.41450000  0.55650000  0.95580000  1.0 0.0904252979
C  C494  1  0.44350000  0.85800000  0.95580000  1.0 0.0904252979
C  C495  1  0.14200000  0.58550000  0.95580000  1.0 0.0904252979
C  C496  1  0.55650000  0.41450000  0.54420000  1.0 0.0904252979
C  C497  1  0.85800000  0.44350000  0.54420000  1.0 0.0904252979
C  C498  1  0.58550000  0.14200000  0.54420000  1.0 0.0974291648
C  C499  1  0.58550000  0.44350000  0.04420000  1.0 0.0974291648
C  C500  1  0.55650000  0.14200000  0.04420000  1.0 0.0974291648
C  C501  1  0.85800000  0.41450000  0.04420000  1.0 0.0974291648
C  C502  1  0.44350000  0.58550000  0.45580000  1.0 0.0904252979
C  C503  1  0.14200000  0.55650000  0.45580000  1.0 0.0904252979
C  C504  1  0.41450000  0.85800000  0.45580000  1.0 0.0904252979
C  C505  1  0.43900000  0.60490000  0.94350000  1.0 -0.2795161428
C  C506  1  0.39510000  0.83410000  0.94350000  1.0 -0.2795161428
C  C507  1  0.16590000  0.56100000  0.94350000  1.0 -0.2795161428
C  C508  1  0.60490000  0.43900000  0.55650000  1.0 -0.2795161428
C  C509  1  0.83410000  0.39510000  0.55650000  1.0 -0.2795161428
C  C510  1  0.56100000  0.16590000  0.55650000  1.0 -0.2795161428
C  C511  1  0.56100000  0.39510000  0.05650000  1.0 -0.2795161428
C  C512  1  0.60490000  0.16590000  0.05650000  1.0 -0.2795161428
C  C513  1  0.83410000  0.43900000  0.05650000  1.0 -0.2795161428
C  C514  1  0.39510000  0.56100000  0.44350000  1.0 -0.2795161428
C  C515  1  0.16590000  0.60490000  0.44350000  1.0 -0.2795161428
C  C516  1  0.43900000  0.83410000  0.44350000  1.0 -0.2795161428
C  C517  1  0.47930000  0.63810000  0.95820000  1.0 0.0803103229
C  C518  1  0.36190000  0.84120000  0.95820000  1.0 0.0803103229
C  C519  1  0.15880000  0.52070000  0.95820000  1.0 0.0803103229
C  C520  1  0.63810000  0.47930000  0.54180000  1.0 0.0803103229
C  C521  1  0.84120000  0.36190000  0.54180000  1.0 0.0803103229
C  C522  1  0.52070000  0.15880000  0.54180000  1.0 0.0803103229
C  C523  1  0.52070000  0.36190000  0.04180000  1.0 0.0803103229
C  C524  1  0.63810000  0.15880000  0.04180000  1.0 0.0803103229
C  C525  1  0.84120000  0.47930000  0.04180000  1.0 0.0803103229
C  C526  1  0.36190000  0.52070000  0.45820000  1.0 0.0803103229
C  C527  1  0.15880000  0.63810000  0.45820000  1.0 0.0803103229
C  C528  1  0.47930000  0.84120000  0.45820000  1.0 0.0803103229
C  C529  1  0.51090000  0.68040000  0.95560000  1.0 -0.1585573078
C  C530  1  0.31960000  0.83050000  0.95560000  1.0 -0.1585573078
C  C531  1  0.16950000  0.48910000  0.95560000  1.0 -0.1585573078
C  C532  1  0.68040000  0.51090000  0.54440000  1.0 -0.1585573078
C  C533  1  0.83050000  0.31960000  0.54440000  1.0 -0.1585573078
C  C534  1  0.48910000  0.16950000  0.54440000  1.0 -0.1585573078
C  C535  1  0.48910000  0.31960000  0.04440000  1.0 -0.1585573078
C  C536  1  0.68040000  0.16950000  0.04440000  1.0 -0.1585573078
C  C537  1  0.83050000  0.51090000  0.04440000  1.0 -0.1585573078
C  C538  1  0.31960000  0.48910000  0.45560000  1.0 -0.1585573078
C  C539  1  0.16950000  0.68040000  0.45560000  1.0 -0.1585573078
C  C540  1  0.51090000  0.83050000  0.45560000  1.0 -0.1585573078
C  C541  1  0.74400000  0.82980000  0.95790000  1.0 0.5894205145
C  C542  1  0.17020000  0.91420000  0.95790000  1.0 0.5894205145
C  C543  1  0.08580000  0.25600000  0.95790000  1.0 0.5894205145
C  C544  1  0.82980000  0.74400000  0.54210000  1.0 0.5894205145
C  C545  1  0.91420000  0.17020000  0.54210000  1.0 0.5894205145
C  C546  1  0.25600000  0.08580000  0.54210000  1.0 0.5894205145
C  C547  1  0.25600000  0.17020000  0.04210000  1.0 0.5894205145
C  C548  1  0.82980000  0.08580000  0.04210000  1.0 0.5894205145
C  C549  1  0.91420000  0.74400000  0.04210000  1.0 0.5894205145
C  C550  1  0.17020000  0.25600000  0.45790000  1.0 0.5894205145
C  C551  1  0.08580000  0.82980000  0.45790000  1.0 0.5894205145
C  C552  1  0.74400000  0.91420000  0.45790000  1.0 0.5894205145
C  C553  1  0.02750000  0.80270000  0.95190000  1.0 0.5694547517
C  C554  1  0.19730000  0.22480000  0.95190000  1.0 0.5694547517
C  C555  1  0.77520000  0.97250000  0.95190000  1.0 0.5694547517
C  C556  1  0.80270000  0.02750000  0.54810000  1.0 0.5694547517
C  C557  1  0.22480000  0.19730000  0.54810000  1.0 0.5694547517
C  C558  1  0.97250000  0.77520000  0.54810000  1.0 0.5694547517
C  C559  1  0.97250000  0.19730000  0.04810000  1.0 0.5694547517
C  C560  1  0.80270000  0.77520000  0.04810000  1.0 0.5694547517
C  C561  1  0.22480000  0.02750000  0.04810000  1.0 0.5694547517
C  C562  1  0.19730000  0.97250000  0.45190000  1.0 0.5694547517
C  C563  1  0.77520000  0.80270000  0.45190000  1.0 0.5694547517
C  C564  1  0.02750000  0.22480000  0.45190000  1.0 0.5694547517
C  C565  1  0.78480000  0.81930000  0.95840000  1.0 -0.0019233184
C  C566  1  0.18070000  0.96550000  0.95840000  1.0 -0.0019233184
C  C567  1  0.03450000  0.21520000  0.95840000  1.0 -0.0019233184
C  C568  1  0.81930000  0.78480000  0.54160000  1.0 -0.0019233184
C  C569  1  0.96550000  0.18070000  0.54160000  1.0 -0.0019233184
C  C570  1  0.21520000  0.03450000  0.54160000  1.0 -0.0019233184
C  C571  1  0.21520000  0.18070000  0.04160000  1.0 -0.0019233184
C  C572  1  0.81930000  0.03450000  0.04160000  1.0 -0.0019233184
C  C573  1  0.96550000  0.78480000  0.04160000  1.0 -0.0019233184
C  C574  1  0.18070000  0.21520000  0.45840000  1.0 -0.0019233184
C  C575  1  0.03450000  0.81930000  0.45840000  1.0 -0.0019233184
C  C576  1  0.78480000  0.96550000  0.45840000  1.0 -0.0019233184
C  C577  1  0.78730000  0.79540000  0.97600000  1.0 -0.1083157944
C  C578  1  0.20460000  0.99190000  0.97600000  1.0 -0.1083157944
C  C579  1  0.00810000  0.21270000  0.97600000  1.0 -0.1083157944
C  C580  1  0.79540000  0.78730000  0.52400000  1.0 -0.1083157944
C  C581  1  0.99190000  0.20460000  0.52400000  1.0 -0.1083157944
C  C582  1  0.21270000  0.00810000  0.52400000  1.0 -0.1083157944
C  C583  1  0.21270000  0.20460000  0.02400000  1.0 -0.1083157944
C  C584  1  0.79540000  0.00810000  0.02400000  1.0 -0.1083157944
C  C585  1  0.99190000  0.78730000  0.02400000  1.0 -0.1083157944
C  C586  1  0.20460000  0.21270000  0.47600000  1.0 -0.1083157944
C  C587  1  0.00810000  0.79540000  0.47600000  1.0 -0.1083157944
C  C588  1  0.78730000  0.99190000  0.47600000  1.0 -0.1083157944
C  C589  1  0.82110000  0.78470000  0.97852000  1.0 -0.1290162427
C  C590  1  0.21530000  0.03640000  0.97852000  1.0 -0.1290162427
C  C591  1  0.96360000  0.17890000  0.97852000  1.0 -0.1290162427
C  C592  1  0.78470000  0.82110000  0.52148000  1.0 -0.1290162427
C  C593  1  0.03640000  0.21530000  0.52148000  1.0 -0.1290162427
C  C594  1  0.17890000  0.96360000  0.52148000  1.0 -0.1290162427
C  C595  1  0.17890000  0.21530000  0.02148000  1.0 -0.1290162427
C  C596  1  0.78470000  0.96360000  0.02148000  1.0 -0.1290162427
C  C597  1  0.03640000  0.82110000  0.02148000  1.0 -0.1290162427
C  C598  1  0.21530000  0.17890000  0.47852000  1.0 -0.1290162427
C  C599  1  0.96360000  0.78470000  0.47852000  1.0 -0.1290162427
C  C600  1  0.82110000  0.03640000  0.47852000  1.0 -0.1290162427
C  C601  1  0.85640000  0.80090000  0.96387000  1.0 0.0129164582
C  C602  1  0.19910000  0.05550000  0.96387000  1.0 0.0129164582
C  C603  1  0.94450000  0.14360000  0.96387000  1.0 0.0129164582
C  C604  1  0.80090000  0.85640000  0.53613000  1.0 0.0129164582
C  C605  1  0.05550000  0.19910000  0.53613000  1.0 0.0129164582
C  C606  1  0.14360000  0.94450000  0.53613000  1.0 0.0129164582
C  C607  1  0.14360000  0.19910000  0.03613000  1.0 0.0129164582
C  C608  1  0.80090000  0.94450000  0.03613000  1.0 0.0129164582
C  C609  1  0.05550000  0.85640000  0.03613000  1.0 0.0129164582
C  C610  1  0.19910000  0.14360000  0.46387000  1.0 0.0129164582
C  C611  1  0.94450000  0.80090000  0.46387000  1.0 0.0129164582
C  C612  1  0.85640000  0.05550000  0.46387000  1.0 0.0129164582
C  C613  1  0.89700000  0.79620000  0.96350000  1.0 0.0033791495
C  C614  1  0.20380000  0.10080000  0.96350000  1.0 0.0033791495
C  C615  1  0.89920000  0.10300000  0.96350000  1.0 0.0033791495
C  C616  1  0.79620000  0.89700000  0.53650000  1.0 0.0033791495
C  C617  1  0.10080000  0.20380000  0.53650000  1.0 0.0033791495
C  C618  1  0.10300000  0.89920000  0.53650000  1.0 0.0033791495
C  C619  1  0.10300000  0.20380000  0.03650000  1.0 0.0033791495
C  C620  1  0.79620000  0.89920000  0.03650000  1.0 0.0033791495
C  C621  1  0.10080000  0.89700000  0.03650000  1.0 0.0033791495
C  C622  1  0.20380000  0.10300000  0.46350000  1.0 0.0033791495
C  C623  1  0.89920000  0.79620000  0.46350000  1.0 0.0033791495
C  C624  1  0.89700000  0.10080000  0.46350000  1.0 0.0033791495
C  C625  1  0.91580000  0.77660000  0.97660000  1.0 -0.1396080528
C  C626  1  0.22340000  0.13920000  0.97660000  1.0 -0.1396080528
C  C627  1  0.86080000  0.08420000  0.97660000  1.0 -0.1396080528
C  C628  1  0.77660000  0.91580000  0.52340000  1.0 -0.1396080528
C  C629  1  0.13920000  0.22340000  0.52340000  1.0 -0.1396080528
C  C630  1  0.08420000  0.86080000  0.52340000  1.0 -0.1396080528
C  C631  1  0.08420000  0.22340000  0.02340000  1.0 -0.1396080528
C  C632  1  0.77660000  0.86080000  0.02340000  1.0 -0.1396080528
C  C633  1  0.13920000  0.91580000  0.02340000  1.0 -0.1396080528
C  C634  1  0.22340000  0.08420000  0.47660000  1.0 -0.1396080528
C  C635  1  0.86080000  0.77660000  0.47660000  1.0 -0.1396080528
C  C636  1  0.91580000  0.13920000  0.47660000  1.0 -0.1396080528
C  C637  1  0.95760000  0.77900000  0.97320000  1.0 -0.1083157944
C  C638  1  0.22100000  0.17860000  0.97320000  1.0 -0.1083157944
C  C639  1  0.82140000  0.04240000  0.97320000  1.0 -0.1083157944
C  C640  1  0.77900000  0.95760000  0.52680000  1.0 -0.1083157944
C  C641  1  0.17860000  0.22100000  0.52680000  1.0 -0.1083157944
C  C642  1  0.04240000  0.82140000  0.52680000  1.0 -0.1083157944
C  C643  1  0.04240000  0.22100000  0.02680000  1.0 -0.1083157944
C  C644  1  0.77900000  0.82140000  0.02680000  1.0 -0.1083157944
C  C645  1  0.17860000  0.95760000  0.02680000  1.0 -0.1083157944
C  C646  1  0.22100000  0.04240000  0.47320000  1.0 -0.1083157944
C  C647  1  0.82140000  0.77900000  0.47320000  1.0 -0.1083157944
C  C648  1  0.95760000  0.17860000  0.47320000  1.0 -0.1083157944
C  C649  1  0.98260000  0.80050000  0.95587000  1.0 -0.0182563186
C  C650  1  0.19950000  0.18210000  0.95587000  1.0 -0.0182563186
C  C651  1  0.81790000  0.01740000  0.95587000  1.0 -0.0182563186
C  C652  1  0.80050000  0.98260000  0.54413000  1.0 -0.0182563186
C  C653  1  0.18210000  0.19950000  0.54413000  1.0 -0.0182563186
C  C654  1  0.01740000  0.81790000  0.54413000  1.0 -0.0182563186
C  C655  1  0.01740000  0.19950000  0.04413000  1.0 -0.0182563186
C  C656  1  0.80050000  0.81790000  0.04413000  1.0 -0.0182563186
C  C657  1  0.18210000  0.98260000  0.04413000  1.0 -0.0182563186
C  C658  1  0.19950000  0.01740000  0.45587000  1.0 -0.0182563186
C  C659  1  0.81790000  0.80050000  0.45587000  1.0 -0.0182563186
C  C660  1  0.98260000  0.18210000  0.45587000  1.0 -0.0182563186
C  C661  1  0.96290000  0.81660000  0.94170000  1.0 -0.1814128159
C  C662  1  0.18340000  0.14630000  0.94170000  1.0 -0.1814128159
C  C663  1  0.85370000  0.03710000  0.94170000  1.0 -0.1814128159
C  C664  1  0.81660000  0.96290000  0.55830000  1.0 -0.1814128159
C  C665  1  0.14630000  0.18340000  0.55830000  1.0 -0.1814128159
C  C666  1  0.03710000  0.85370000  0.55830000  1.0 -0.1814128159
C  C667  1  0.03710000  0.18340000  0.05830000  1.0 -0.1814128159
C  C668  1  0.81660000  0.85370000  0.05830000  1.0 -0.1814128159
C  C669  1  0.14630000  0.96290000  0.05830000  1.0 -0.1814128159
C  C670  1  0.18340000  0.03710000  0.44170000  1.0 -0.1814128159
C  C671  1  0.85370000  0.81660000  0.44170000  1.0 -0.1814128159
C  C672  1  0.96290000  0.14630000  0.44170000  1.0 -0.1814128159
C  C673  1  0.92230000  0.81580000  0.94597000  1.0 0.0803103229
C  C674  1  0.18420000  0.10650000  0.94597000  1.0 0.0803103229
C  C675  1  0.89350000  0.07770000  0.94597000  1.0 0.0803103229
C  C676  1  0.81580000  0.92230000  0.55403000  1.0 0.0803103229
C  C677  1  0.10650000  0.18420000  0.55403000  1.0 0.0803103229
C  C678  1  0.07770000  0.89350000  0.55403000  1.0 0.0803103229
C  C679  1  0.07770000  0.18420000  0.05403000  1.0 0.0803103229
C  C680  1  0.81580000  0.89350000  0.05403000  1.0 0.0803103229
C  C681  1  0.10650000  0.92230000  0.05403000  1.0 0.0803103229
C  C682  1  0.18420000  0.07770000  0.44597000  1.0 0.0803103229
C  C683  1  0.89350000  0.81580000  0.44597000  1.0 0.0803103229
C  C684  1  0.92230000  0.10650000  0.44597000  1.0 0.0803103229
C  C685  1  0.89330000  0.83200000  0.93240000  1.0 -0.2684397337
C  C686  1  0.16800000  0.06130000  0.93240000  1.0 -0.2684397337
C  C687  1  0.93870000  0.10670000  0.93240000  1.0 -0.2645877232
C  C688  1  0.83200000  0.89330000  0.56760000  1.0 -0.2645877232
C  C689  1  0.06130000  0.16800000  0.56760000  1.0 -0.2684397337
C  C690  1  0.10670000  0.93870000  0.56760000  1.0 -0.2684397337
C  C691  1  0.10670000  0.16800000  0.06760000  1.0 -0.2684397337
C  C692  1  0.83200000  0.93870000  0.06760000  1.0 -0.2645877232
C  C693  1  0.06130000  0.89330000  0.06760000  1.0 -0.2684397337
C  C694  1  0.16800000  0.10670000  0.43240000  1.0 -0.2684397337
C  C695  1  0.93870000  0.83200000  0.43240000  1.0 -0.2645877232
C  C696  1  0.89330000  0.06130000  0.43240000  1.0 -0.2645877232
C  C697  1  0.85490000  0.82120000  0.94660000  1.0 0.0637503935
C  C698  1  0.17880000  0.03370000  0.94660000  1.0 0.0637503935
C  C699  1  0.96630000  0.14510000  0.94660000  1.0 0.0637503935
C  C700  1  0.82120000  0.85490000  0.55340000  1.0 0.0637503935
C  C701  1  0.03370000  0.17880000  0.55340000  1.0 0.0637503935
C  C702  1  0.14510000  0.96630000  0.55340000  1.0 0.0637503935
C  C703  1  0.14510000  0.17880000  0.05340000  1.0 0.0637503935
C  C704  1  0.82120000  0.96630000  0.05340000  1.0 0.0637503935
C  C705  1  0.03370000  0.85490000  0.05340000  1.0 0.0637503935
C  C706  1  0.17880000  0.14510000  0.44660000  1.0 0.0637503935
C  C707  1  0.96630000  0.82120000  0.44660000  1.0 0.0637503935
C  C708  1  0.85490000  0.03370000  0.44660000  1.0 0.0637503935
C  C709  1  0.81810000  0.83020000  0.94348000  1.0 -0.1814128159
C  C710  1  0.16980000  0.98790000  0.94348000  1.0 -0.1814128159
C  C711  1  0.01210000  0.18190000  0.94348000  1.0 -0.1814128159
C  C712  1  0.83020000  0.81810000  0.55652000  1.0 -0.1814128159
C  C713  1  0.98790000  0.16980000  0.55652000  1.0 -0.1814128159
C  C714  1  0.18190000  0.01210000  0.55652000  1.0 -0.1814128159
C  C715  1  0.18190000  0.16980000  0.05652000  1.0 -0.1814128159
C  C716  1  0.83020000  0.01210000  0.05652000  1.0 -0.1814128159
C  C717  1  0.98790000  0.81810000  0.05652000  1.0 -0.1814128159
C  C718  1  0.16980000  0.18190000  0.44348000  1.0 -0.1814128159
C  C719  1  0.01210000  0.83020000  0.44348000  1.0 -0.1814128159
C  C720  1  0.81810000  0.98790000  0.44348000  1.0 -0.1814128159
C  C721  1  0.58730000  0.73910000  0.19810000  1.0 0.5282980773
C  C722  1  0.26090000  0.84820000  0.19810000  1.0 0.5282980773
C  C723  1  0.15180000  0.41270000  0.19810000  1.0 0.5282980773
C  C724  1  0.73910000  0.58730000  0.30190000  1.0 0.5282980773
C  C725  1  0.84820000  0.26090000  0.30190000  1.0 0.5282980773
C  C726  1  0.41270000  0.15180000  0.30190000  1.0 0.5282980773
C  C727  1  0.41270000  0.26090000  0.80190000  1.0 0.5282980773
C  C728  1  0.73910000  0.15180000  0.80190000  1.0 0.5282980773
C  C729  1  0.84820000  0.58730000  0.80190000  1.0 0.5282980773
C  C730  1  0.26090000  0.41270000  0.69810000  1.0 0.5282980773
C  C731  1  0.15180000  0.73910000  0.69810000  1.0 0.5282980773
C  C732  1  0.58730000  0.84820000  0.69810000  1.0 0.5282980773
C  C733  1  0.31640000  0.43650000  0.20550000  1.0 0.5992838343
C  C734  1  0.56350000  0.87990000  0.20550000  1.0 0.5992838343
C  C735  1  0.12010000  0.68360000  0.20550000  1.0 0.5992838343
C  C736  1  0.43650000  0.31640000  0.29450000  1.0 0.5992838343
C  C737  1  0.87990000  0.56350000  0.29450000  1.0 0.5992838343
C  C738  1  0.68360000  0.12010000  0.29450000  1.0 0.5992838343
C  C739  1  0.68360000  0.56350000  0.79450000  1.0 0.5992838343
C  C740  1  0.43650000  0.12010000  0.79450000  1.0 0.5992838343
C  C741  1  0.87990000  0.31640000  0.79450000  1.0 0.5992838343
C  C742  1  0.56350000  0.68360000  0.70550000  1.0 0.5992838343
C  C743  1  0.12010000  0.43650000  0.70550000  1.0 0.5992838343
C  C744  1  0.31640000  0.87990000  0.70550000  1.0 0.5992838343
C  C745  1  0.54930000  0.69450000  0.19837000  1.0 -0.1009565707
C  C746  1  0.30550000  0.85480000  0.19837000  1.0 -0.1009565707
C  C747  1  0.14520000  0.45070000  0.19837000  1.0 -0.1009565707
C  C748  1  0.69450000  0.54930000  0.30163000  1.0 -0.1009565707
C  C749  1  0.85480000  0.30550000  0.30163000  1.0 -0.1009565707
C  C750  1  0.45070000  0.14520000  0.30163000  1.0 -0.1009565707
C  C751  1  0.45070000  0.30550000  0.80163000  1.0 -0.1009565707
C  C752  1  0.69450000  0.14520000  0.80163000  1.0 -0.1009565707
C  C753  1  0.85480000  0.54930000  0.80163000  1.0 -0.1009565707
C  C754  1  0.30550000  0.45070000  0.69837000  1.0 -0.1009565707
C  C755  1  0.14520000  0.69450000  0.69837000  1.0 -0.1009565707
C  C756  1  0.54930000  0.85480000  0.69837000  1.0 -0.1009565707
C  C757  1  0.55970000  0.66920000  0.18510000  1.0 -0.0906671657
C  C758  1  0.33080000  0.89050000  0.18510000  1.0 -0.0906671657
C  C759  1  0.10950000  0.44030000  0.18510000  1.0 -0.0906671657
C  C760  1  0.66920000  0.55970000  0.31490000  1.0 -0.0906671657
C  C761  1  0.89050000  0.33080000  0.31490000  1.0 -0.0906671657
C  C762  1  0.44030000  0.10950000  0.31490000  1.0 -0.0906671657
C  C763  1  0.44030000  0.33080000  0.81490000  1.0 -0.0906671657
C  C764  1  0.66920000  0.10950000  0.81490000  1.0 -0.0906671657
C  C765  1  0.89050000  0.55970000  0.81490000  1.0 -0.0906671657
C  C766  1  0.33080000  0.44030000  0.68510000  1.0 -0.0906671657
C  C767  1  0.10950000  0.66920000  0.68510000  1.0 -0.0906671657
C  C768  1  0.55970000  0.89050000  0.68510000  1.0 -0.0906671657
C  C769  1  0.53000000  0.62180000  0.18320000  1.0 -0.1490667699
C  C770  1  0.37820000  0.90820000  0.18320000  1.0 -0.1490667699
C  C771  1  0.09180000  0.47000000  0.18320000  1.0 -0.1396080528
C  C772  1  0.62180000  0.53000000  0.31680000  1.0 -0.1396080528
C  C773  1  0.90820000  0.37820000  0.31680000  1.0 -0.1490667699
C  C774  1  0.47000000  0.09180000  0.31680000  1.0 -0.1490667699
C  C775  1  0.47000000  0.37820000  0.81680000  1.0 -0.1490667699
C  C776  1  0.62180000  0.09180000  0.81680000  1.0 -0.1490667699
C  C777  1  0.90820000  0.53000000  0.81680000  1.0 -0.1490667699
C  C778  1  0.37820000  0.47000000  0.68320000  1.0 -0.1490667699
C  C779  1  0.09180000  0.62180000  0.68320000  1.0 -0.1490667699
C  C780  1  0.53000000  0.90820000  0.68320000  1.0 -0.1490667699
C  C781  1  0.48980000  0.59970000  0.19440000  1.0 0.02247376
C  C782  1  0.40030000  0.89010000  0.19440000  1.0 0.02247376
C  C783  1  0.10990000  0.51020000  0.19440000  1.0 0.02247376
C  C784  1  0.59970000  0.48980000  0.30560000  1.0 0.02247376
C  C785  1  0.89010000  0.40030000  0.30560000  1.0 0.02247376
C  C786  1  0.51020000  0.10990000  0.30560000  1.0 0.02247376
C  C787  1  0.51020000  0.40030000  0.80560000  1.0 0.02247376
C  C788  1  0.59970000  0.10990000  0.80560000  1.0 0.02247376
C  C789  1  0.89010000  0.48980000  0.80560000  1.0 0.02247376
C  C790  1  0.40030000  0.51020000  0.69440000  1.0 0.02247376
C  C791  1  0.10990000  0.59970000  0.69440000  1.0 0.02247376
C  C792  1  0.48980000  0.89010000  0.69440000  1.0 0.02247376
C  C793  1  0.47940000  0.62500000  0.20770000  1.0 0.0302553499
C  C794  1  0.37500000  0.85440000  0.20770000  1.0 0.0302553499
C  C795  1  0.14560000  0.52060000  0.20770000  1.0 0.0302553499
C  C796  1  0.62500000  0.47940000  0.29230000  1.0 0.0302553499
C  C797  1  0.85440000  0.37500000  0.29230000  1.0 0.0302553499
C  C798  1  0.52060000  0.14560000  0.29230000  1.0 0.0302553499
C  C799  1  0.52060000  0.37500000  0.79230000  1.0 0.0302553499
C  C800  1  0.62500000  0.14560000  0.79230000  1.0 0.0302553499
C  C801  1  0.85440000  0.47940000  0.79230000  1.0 0.0302553499
C  C802  1  0.37500000  0.52060000  0.70770000  1.0 0.0302553499
C  C803  1  0.14560000  0.62500000  0.70770000  1.0 0.0302553499
C  C804  1  0.47940000  0.85440000  0.70770000  1.0 0.0302553499
C  C805  1  0.50910000  0.67240000  0.20960000  1.0 -0.1202890974
C  C806  1  0.32760000  0.83670000  0.20960000  1.0 -0.1202890974
C  C807  1  0.16330000  0.49090000  0.20960000  1.0 -0.1202890974
C  C808  1  0.67240000  0.50910000  0.29040000  1.0 -0.1202890974
C  C809  1  0.83670000  0.32760000  0.29040000  1.0 -0.1202890974
C  C810  1  0.49090000  0.16330000  0.29040000  1.0 -0.1202890974
C  C811  1  0.49090000  0.32760000  0.79040000  1.0 -0.1202890974
C  C812  1  0.67240000  0.16330000  0.79040000  1.0 -0.1202890974
C  C813  1  0.83670000  0.50910000  0.79040000  1.0 -0.1202890974
C  C814  1  0.32760000  0.49090000  0.70960000  1.0 -0.1202890974
C  C815  1  0.16330000  0.67240000  0.70960000  1.0 -0.1202890974
C  C816  1  0.50910000  0.83670000  0.70960000  1.0 -0.1202890974
C  C817  1  0.45090000  0.55340000  0.19790000  1.0 -0.0126844089
C  C818  1  0.44660000  0.89750000  0.19790000  1.0 -0.0126844089
C  C819  1  0.10250000  0.54910000  0.19790000  1.0 -0.0126844089
C  C820  1  0.55340000  0.45090000  0.30210000  1.0 -0.0126844089
C  C821  1  0.89750000  0.44660000  0.30210000  1.0 -0.0126844089
C  C822  1  0.54910000  0.10250000  0.30210000  1.0 -0.0126844089
C  C823  1  0.54910000  0.44660000  0.80210000  1.0 -0.0126844089
C  C824  1  0.55340000  0.10250000  0.80210000  1.0 -0.0126844089
C  C825  1  0.89750000  0.45090000  0.80210000  1.0 -0.0126844089
C  C826  1  0.44660000  0.54910000  0.69790000  1.0 -0.0126844089
C  C827  1  0.10250000  0.55340000  0.69790000  1.0 -0.0126844089
C  C828  1  0.45090000  0.89750000  0.69790000  1.0 -0.0126844089
C  C829  1  0.43730000  0.51410000  0.18640000  1.0 -0.1396080528
C  C830  1  0.48590000  0.92320000  0.18640000  1.0 -0.1396080528
C  C831  1  0.07680000  0.56270000  0.18640000  1.0 -0.1396080528
C  C832  1  0.51410000  0.43730000  0.31360000  1.0 -0.1396080528
C  C833  1  0.92320000  0.48590000  0.31360000  1.0 -0.1396080528
C  C834  1  0.56270000  0.07680000  0.31360000  1.0 -0.1396080528
C  C835  1  0.56270000  0.48590000  0.81360000  1.0 -0.1396080528
C  C836  1  0.51410000  0.07680000  0.81360000  1.0 -0.1396080528
C  C837  1  0.92320000  0.43730000  0.81360000  1.0 -0.1396080528
C  C838  1  0.48590000  0.56270000  0.68640000  1.0 -0.1396080528
C  C839  1  0.07680000  0.51410000  0.68640000  1.0 -0.1396080528
C  C840  1  0.43730000  0.92320000  0.68640000  1.0 -0.1396080528
C  C841  1  0.39360000  0.47560000  0.18890000  1.0 -0.1009565707
C  C842  1  0.52440000  0.91800000  0.18890000  1.0 -0.1009565707
C  C843  1  0.08200000  0.60640000  0.18890000  1.0 -0.1009565707
C  C844  1  0.47560000  0.39360000  0.31110000  1.0 -0.1009565707
C  C845  1  0.91800000  0.52440000  0.31110000  1.0 -0.1009565707
C  C846  1  0.60640000  0.08200000  0.31110000  1.0 -0.1009565707
C  C847  1  0.60640000  0.52440000  0.81110000  1.0 -0.1009565707
C  C848  1  0.47560000  0.08200000  0.81110000  1.0 -0.1009565707
C  C849  1  0.91800000  0.39360000  0.81110000  1.0 -0.1009565707
C  C850  1  0.52440000  0.60640000  0.68890000  1.0 -0.1009565707
C  C851  1  0.08200000  0.47560000  0.68890000  1.0 -0.1009565707
C  C852  1  0.39360000  0.91800000  0.68890000  1.0 -0.1009565707
C  C853  1  0.36350000  0.47620000  0.20290000  1.0 -0.0655966428
C  C854  1  0.52380000  0.88730000  0.20290000  1.0 -0.0639760882
C  C855  1  0.11270000  0.63650000  0.20290000  1.0 -0.0639760882
C  C856  1  0.47620000  0.36350000  0.29710000  1.0 -0.0655966428
C  C857  1  0.88730000  0.52380000  0.29710000  1.0 -0.0639760882
C  C858  1  0.63650000  0.11270000  0.29710000  1.0 -0.0655966428
C  C859  1  0.63650000  0.52380000  0.79710000  1.0 -0.0639760882
C  C860  1  0.47620000  0.11270000  0.79710000  1.0 -0.0639760882
C  C861  1  0.88730000  0.36350000  0.79710000  1.0 -0.0655966428
C  C862  1  0.52380000  0.63650000  0.70290000  1.0 -0.0639760882
C  C863  1  0.11270000  0.47620000  0.70290000  1.0 -0.0639760882
C  C864  1  0.36350000  0.88730000  0.70290000  1.0 -0.0639760882
C  C865  1  0.37710000  0.51550000  0.21440000  1.0 -0.1396080528
C  C866  1  0.48450000  0.86160000  0.21440000  1.0 -0.1396080528
C  C867  1  0.13840000  0.62290000  0.21440000  1.0 -0.1396080528
C  C868  1  0.51550000  0.37710000  0.28560000  1.0 -0.1396080528
C  C869  1  0.86160000  0.48450000  0.28560000  1.0 -0.1396080528
C  C870  1  0.62290000  0.13840000  0.28560000  1.0 -0.1396080528
C  C871  1  0.62290000  0.48450000  0.78560000  1.0 -0.1396080528
C  C872  1  0.51550000  0.13840000  0.78560000  1.0 -0.1396080528
C  C873  1  0.86160000  0.37710000  0.78560000  1.0 -0.1396080528
C  C874  1  0.48450000  0.62290000  0.71440000  1.0 -0.1396080528
C  C875  1  0.13840000  0.51550000  0.71440000  1.0 -0.1396080528
C  C876  1  0.37710000  0.86160000  0.71440000  1.0 -0.1396080528
C  C877  1  0.42070000  0.55390000  0.21190000  1.0 0.0498471513
C  C878  1  0.44610000  0.86680000  0.21190000  1.0 0.0498471513
C  C879  1  0.13320000  0.57930000  0.21190000  1.0 0.0498471513
C  C880  1  0.55390000  0.42070000  0.28810000  1.0 0.0498471513
C  C881  1  0.86680000  0.44610000  0.28810000  1.0 0.0498471513
C  C882  1  0.57930000  0.13320000  0.28810000  1.0 0.0498471513
C  C883  1  0.57930000  0.44610000  0.78810000  1.0 0.0498471513
C  C884  1  0.55390000  0.13320000  0.78810000  1.0 0.0388897439
C  C885  1  0.86680000  0.42070000  0.78810000  1.0 0.0498471513
C  C886  1  0.44610000  0.57930000  0.71190000  1.0 0.0498471513
C  C887  1  0.13320000  0.55390000  0.71190000  1.0 0.0388897439
C  C888  1  0.42070000  0.86680000  0.71190000  1.0 0.0498471513
C  C889  1  0.43450000  0.59730000  0.22240000  1.0 -0.2925469157
C  C890  1  0.40270000  0.83720000  0.22240000  1.0 -0.2925469157
C  C891  1  0.16280000  0.56550000  0.22240000  1.0 -0.2925469157
C  C892  1  0.59730000  0.43450000  0.27760000  1.0 -0.2925469157
C  C893  1  0.83720000  0.40270000  0.27760000  1.0 -0.2925469157
C  C894  1  0.56550000  0.16280000  0.27760000  1.0 -0.2925469157
C  C895  1  0.56550000  0.40270000  0.77760000  1.0 -0.2925469157
C  C896  1  0.59730000  0.16280000  0.77760000  1.0 -0.2925469157
C  C897  1  0.83720000  0.43450000  0.77760000  1.0 -0.2925469157
C  C898  1  0.40270000  0.56550000  0.72240000  1.0 -0.2925469157
C  C899  1  0.16280000  0.59730000  0.72240000  1.0 -0.2925469157
C  C900  1  0.43450000  0.83720000  0.72240000  1.0 -0.2925469157
C  C901  1  0.75300000  0.83240000  0.20542000  1.0 0.5894205145
C  C902  1  0.16760000  0.92060000  0.20542000  1.0 0.5894205145
C  C903  1  0.07940000  0.24700000  0.20542000  1.0 0.5894205145
C  C904  1  0.83240000  0.75300000  0.29458000  1.0 0.5894205145
C  C905  1  0.92060000  0.16760000  0.29458000  1.0 0.5894205145
C  C906  1  0.24700000  0.07940000  0.29458000  1.0 0.5894205145
C  C907  1  0.24700000  0.16760000  0.79458000  1.0 0.5894205145
C  C908  1  0.83240000  0.07940000  0.79458000  1.0 0.5894205145
C  C909  1  0.92060000  0.75300000  0.79458000  1.0 0.5894205145
C  C910  1  0.16760000  0.24700000  0.70542000  1.0 0.5894205145
C  C911  1  0.07940000  0.83240000  0.70542000  1.0 0.5894205145
C  C912  1  0.75300000  0.92060000  0.70542000  1.0 0.5894205145
C  C913  1  0.02840000  0.79800000  0.21108000  1.0 0.5894205145
C  C914  1  0.20200000  0.23040000  0.21108000  1.0 0.5845087591
C  C915  1  0.76960000  0.97160000  0.21108000  1.0 0.5894205145
C  C916  1  0.79800000  0.02840000  0.28892000  1.0 0.5894205145
C  C917  1  0.23040000  0.20200000  0.28892000  1.0 0.5845087591
C  C918  1  0.97160000  0.76960000  0.28892000  1.0 0.5894205145
C  C919  1  0.97160000  0.20200000  0.78892000  1.0 0.5894205145
C  C920  1  0.79800000  0.76960000  0.78892000  1.0 0.5894205145
C  C921  1  0.23040000  0.02840000  0.78892000  1.0 0.5894205145
C  C922  1  0.20200000  0.97160000  0.71108000  1.0 0.5845087591
C  C923  1  0.76960000  0.79800000  0.71108000  1.0 0.5894205145
C  C924  1  0.02840000  0.23040000  0.71108000  1.0 0.5894205145
C  C925  1  0.79180000  0.82510000  0.20311000  1.0 -0.0639760882
C  C926  1  0.17490000  0.96670000  0.20311000  1.0 -0.0639760882
C  C927  1  0.03330000  0.20820000  0.20311000  1.0 -0.0639760882
C  C928  1  0.82510000  0.79180000  0.29689000  1.0 -0.0639760882
C  C929  1  0.96670000  0.17490000  0.29689000  1.0 -0.0639760882
C  C930  1  0.20820000  0.03330000  0.29689000  1.0 -0.0639760882
C  C931  1  0.20820000  0.17490000  0.79689000  1.0 -0.0639760882
C  C932  1  0.82510000  0.03330000  0.79689000  1.0 -0.0639760882
C  C933  1  0.96670000  0.79180000  0.79689000  1.0 -0.0639760882
C  C934  1  0.17490000  0.20820000  0.70311000  1.0 -0.0639760882
C  C935  1  0.03330000  0.82510000  0.70311000  1.0 -0.0639760882
C  C936  1  0.79180000  0.96670000  0.70311000  1.0 -0.0639760882
C  C937  1  0.80590000  0.82100000  0.18358000  1.0 -0.1009565707
C  C938  1  0.17900000  0.98490000  0.18358000  1.0 -0.1083157944
C  C939  1  0.01510000  0.19410000  0.18358000  1.0 -0.1009565707
C  C940  1  0.82100000  0.80590000  0.31642000  1.0 -0.1009565707
C  C941  1  0.98490000  0.17900000  0.31642000  1.0 -0.1009565707
C  C942  1  0.19410000  0.01510000  0.31642000  1.0 -0.1009565707
C  C943  1  0.19410000  0.17900000  0.81642000  1.0 -0.1009565707
C  C944  1  0.82100000  0.01510000  0.81642000  1.0 -0.1009565707
C  C945  1  0.98490000  0.80590000  0.81642000  1.0 -0.1009565707
C  C946  1  0.17900000  0.19410000  0.68358000  1.0 -0.1009565707
C  C947  1  0.01510000  0.82100000  0.68358000  1.0 -0.1009565707
C  C948  1  0.80590000  0.98490000  0.68358000  1.0 -0.1009565707
C  C949  1  0.84240000  0.81410000  0.18053000  1.0 -0.1585573078
C  C950  1  0.18590000  0.02830000  0.18053000  1.0 -0.1585573078
C  C951  1  0.97170000  0.15760000  0.18053000  1.0 -0.1585573078
C  C952  1  0.81410000  0.84240000  0.31947000  1.0 -0.1585573078
C  C953  1  0.02830000  0.18590000  0.31947000  1.0 -0.1585573078
C  C954  1  0.15760000  0.97170000  0.31947000  1.0 -0.1585573078
C  C955  1  0.15760000  0.18590000  0.81947000  1.0 -0.1585573078
C  C956  1  0.81410000  0.97170000  0.81947000  1.0 -0.1585573078
C  C957  1  0.02830000  0.84240000  0.81947000  1.0 -0.1585573078
C  C958  1  0.18590000  0.15760000  0.68053000  1.0 -0.1585573078
C  C959  1  0.97170000  0.81410000  0.68053000  1.0 -0.1585573078
C  C960  1  0.84240000  0.02830000  0.68053000  1.0 -0.1585573078
C  C961  1  0.87050000  0.81410000  0.19696000  1.0 0.0033791495
C  C962  1  0.18590000  0.05640000  0.19696000  1.0 0.0033791495
C  C963  1  0.94360000  0.12950000  0.19696000  1.0 0.0033791495
C  C964  1  0.81410000  0.87050000  0.30304000  1.0 0.0033791495
C  C965  1  0.05640000  0.18590000  0.30304000  1.0 0.0033791495
C  C966  1  0.12950000  0.94360000  0.30304000  1.0 0.0033791495
C  C967  1  0.12950000  0.18590000  0.80304000  1.0 0.0033791495
C  C968  1  0.81410000  0.94360000  0.80304000  1.0 0.0033791495
C  C969  1  0.05640000  0.87050000  0.80304000  1.0 0.0033791495
C  C970  1  0.18590000  0.12950000  0.69696000  1.0 0.0033791495
C  C971  1  0.94360000  0.81410000  0.69696000  1.0 0.0033791495
C  C972  1  0.87050000  0.05640000  0.69696000  1.0 0.0033791495
C  C973  1  0.91070000  0.81070000  0.19754000  1.0 -0.0019233184
C  C974  1  0.18930000  0.10000000  0.19754000  1.0 -0.0019233184
C  C975  1  0.90000000  0.08930000  0.19754000  1.0 -0.0019233184
C  C976  1  0.81070000  0.91070000  0.30246000  1.0 -0.0019233184
C  C977  1  0.10000000  0.18930000  0.30246000  1.0 -0.0019233184
C  C978  1  0.08930000  0.90000000  0.30246000  1.0 -0.0019233184
C  C979  1  0.08930000  0.18930000  0.80246000  1.0 -0.0019233184
C  C980  1  0.81070000  0.90000000  0.80246000  1.0 -0.0019233184
C  C981  1  0.10000000  0.91070000  0.80246000  1.0 -0.0019233184
C  C982  1  0.18930000  0.08930000  0.69754000  1.0 -0.0019233184
C  C983  1  0.90000000  0.81070000  0.69754000  1.0 -0.0019233184
C  C984  1  0.91070000  0.10000000  0.69754000  1.0 -0.0019233184
C  C985  1  0.93830000  0.80820000  0.18241000  1.0 -0.1290162427
C  C986  1  0.19180000  0.13010000  0.18241000  1.0 -0.1290162427
C  C987  1  0.86990000  0.06170000  0.18241000  1.0 -0.1290162427
C  C988  1  0.80820000  0.93830000  0.31759000  1.0 -0.1290162427
C  C989  1  0.13010000  0.19180000  0.31759000  1.0 -0.1290162427
C  C990  1  0.06170000  0.86990000  0.31759000  1.0 -0.1290162427
C  C991  1  0.06170000  0.19180000  0.81759000  1.0 -0.1290162427
C  C992  1  0.80820000  0.86990000  0.81759000  1.0 -0.1290162427
C  C993  1  0.13010000  0.93830000  0.81759000  1.0 -0.1290162427
C  C994  1  0.19180000  0.06170000  0.68241000  1.0 -0.1290162427
C  C995  1  0.86990000  0.80820000  0.68241000  1.0 -0.1290162427
C  C996  1  0.93830000  0.13010000  0.68241000  1.0 -0.1290162427
C  C997  1  0.97270000  0.80240000  0.18732000  1.0 -0.1009565707
C  C998  1  0.19760000  0.17030000  0.18732000  1.0 -0.1009565707
C  C999  1  0.82970000  0.02730000  0.18732000  1.0 -0.1009565707
C  C1000  1  0.80240000  0.97270000  0.31268000  1.0 -0.1009565707
C  C1001  1  0.17030000  0.19760000  0.31268000  1.0 -0.1009565707
C  C1002  1  0.02730000  0.82970000  0.31268000  1.0 -0.1009565707
C  C1003  1  0.02730000  0.19760000  0.81268000  1.0 -0.1009565707
C  C1004  1  0.80240000  0.82970000  0.81268000  1.0 -0.1009565707
C  C1005  1  0.17030000  0.97270000  0.81268000  1.0 -0.1009565707
C  C1006  1  0.19760000  0.02730000  0.68732000  1.0 -0.1009565707
C  C1007  1  0.82970000  0.80240000  0.68732000  1.0 -0.1009565707
C  C1008  1  0.97270000  0.17030000  0.68732000  1.0 -0.1009565707
C  C1009  1  0.98610000  0.80110000  0.20750000  1.0 -0.0126844089
C  C1010  1  0.19890000  0.18500000  0.20750000  1.0 -0.0126844089
C  C1011  1  0.81500000  0.01390000  0.20750000  1.0 -0.0126844089
C  C1012  1  0.80110000  0.98610000  0.29250000  1.0 -0.0182563186
C  C1013  1  0.18500000  0.19890000  0.29250000  1.0 -0.0126844089
C  C1014  1  0.01390000  0.81500000  0.29250000  1.0 -0.0126844089
C  C1015  1  0.01390000  0.19890000  0.79250000  1.0 -0.0126844089
C  C1016  1  0.80110000  0.81500000  0.79250000  1.0 -0.0126844089
C  C1017  1  0.18500000  0.98610000  0.79250000  1.0 -0.0182563186
C  C1018  1  0.19890000  0.01390000  0.70750000  1.0 -0.0126844089
C  C1019  1  0.81500000  0.80110000  0.70750000  1.0 -0.0126844089
C  C1020  1  0.98610000  0.18500000  0.70750000  1.0 -0.0126844089
C  C1021  1  0.96210000  0.80770000  0.22257000  1.0 -0.1585573078
C  C1022  1  0.19230000  0.15440000  0.22257000  1.0 -0.1585573078
C  C1023  1  0.84560000  0.03790000  0.22257000  1.0 -0.1585573078
C  C1024  1  0.80770000  0.96210000  0.27743000  1.0 -0.1585573078
C  C1025  1  0.15440000  0.19230000  0.27743000  1.0 -0.1585573078
C  C1026  1  0.03790000  0.84560000  0.27743000  1.0 -0.1585573078
C  C1027  1  0.03790000  0.19230000  0.77743000  1.0 -0.1585573078
C  C1028  1  0.80770000  0.84560000  0.77743000  1.0 -0.1585573078
C  C1029  1  0.15440000  0.96210000  0.77743000  1.0 -0.1585573078
C  C1030  1  0.19230000  0.03790000  0.72257000  1.0 -0.1585573078
C  C1031  1  0.84560000  0.80770000  0.72257000  1.0 -0.1585573078
C  C1032  1  0.96210000  0.15440000  0.72257000  1.0 -0.1585573078
C  C1033  1  0.92370000  0.81210000  0.21687000  1.0 0.0665516448
C  C1034  1  0.18790000  0.11160000  0.21687000  1.0 0.0665516448
C  C1035  1  0.88840000  0.07630000  0.21687000  1.0 0.0665516448
C  C1036  1  0.81210000  0.92370000  0.28313000  1.0 0.0665516448
C  C1037  1  0.11160000  0.18790000  0.28313000  1.0 0.0665516448
C  C1038  1  0.07630000  0.88840000  0.28313000  1.0 0.0665516448
C  C1039  1  0.07630000  0.18790000  0.78313000  1.0 0.0665516448
C  C1040  1  0.81210000  0.88840000  0.78313000  1.0 0.0665516448
C  C1041  1  0.11160000  0.92370000  0.78313000  1.0 0.0665516448
C  C1042  1  0.18790000  0.07630000  0.71687000  1.0 0.0665516448
C  C1043  1  0.88840000  0.81210000  0.71687000  1.0 0.0665516448
C  C1044  1  0.92370000  0.11160000  0.71687000  1.0 0.0665516448
C  C1045  1  0.89120000  0.81730000  0.23129000  1.0 -0.2645877232
C  C1046  1  0.18270000  0.07390000  0.23129000  1.0 -0.2645877232
C  C1047  1  0.92610000  0.10880000  0.23129000  1.0 -0.2645877232
C  C1048  1  0.81730000  0.89120000  0.26871000  1.0 -0.2645877232
C  C1049  1  0.07390000  0.18270000  0.26871000  1.0 -0.2645877232
C  C1050  1  0.10880000  0.92610000  0.26871000  1.0 -0.2645877232
C  C1051  1  0.10880000  0.18270000  0.76871000  1.0 -0.2645877232
C  C1052  1  0.81730000  0.92610000  0.76871000  1.0 -0.2645877232
C  C1053  1  0.07390000  0.89120000  0.76871000  1.0 -0.2645877232
C  C1054  1  0.18270000  0.10880000  0.73129000  1.0 -0.2645877232
C  C1055  1  0.92610000  0.81730000  0.73129000  1.0 -0.2645877232
C  C1056  1  0.89120000  0.07390000  0.73129000  1.0 -0.2645877232
C  C1057  1  0.85700000  0.82040000  0.21584000  1.0 0.0904252979
C  C1058  1  0.17960000  0.03660000  0.21584000  1.0 0.0904252979
C  C1059  1  0.96340000  0.14300000  0.21584000  1.0 0.0904252979
C  C1060  1  0.82040000  0.85700000  0.28416000  1.0 0.0904252979
C  C1061  1  0.03660000  0.17960000  0.28416000  1.0 0.0904252979
C  C1062  1  0.14300000  0.96340000  0.28416000  1.0 0.0904252979
C  C1063  1  0.14300000  0.17960000  0.78416000  1.0 0.0904252979
C  C1064  1  0.82040000  0.96340000  0.78416000  1.0 0.0904252979
C  C1065  1  0.03660000  0.85700000  0.78416000  1.0 0.0904252979
C  C1066  1  0.17960000  0.14300000  0.71584000  1.0 0.0904252979
C  C1067  1  0.96340000  0.82040000  0.71584000  1.0 0.0904252979
C  C1068  1  0.85700000  0.03660000  0.71584000  1.0 0.0904252979
C  C1069  1  0.82040000  0.82660000  0.21927000  1.0 -0.1702109809
C  C1070  1  0.17340000  0.99380000  0.21927000  1.0 -0.1702109809
C  C1071  1  0.00620000  0.17960000  0.21927000  1.0 -0.1702109809
C  C1072  1  0.82660000  0.82040000  0.28073000  1.0 -0.1702109809
C  C1073  1  0.99380000  0.17340000  0.28073000  1.0 -0.1702109809
C  C1074  1  0.17960000  0.00620000  0.28073000  1.0 -0.1702109809
C  C1075  1  0.17960000  0.17340000  0.78073000  1.0 -0.1702109809
C  C1076  1  0.82660000  0.00620000  0.78073000  1.0 -0.1702109809
C  C1077  1  0.99380000  0.82040000  0.78073000  1.0 -0.1702109809
C  C1078  1  0.17340000  0.17960000  0.71927000  1.0 -0.1702109809
C  C1079  1  0.00620000  0.82660000  0.71927000  1.0 -0.1702109809
C  C1080  1  0.82040000  0.99380000  0.71927000  1.0 -0.1702109809
C  C1081  1  0.69090000  0.96950000  0.26340000  1.0 -0.4605226342
C  C1082  1  0.03050000  0.72140000  0.26340000  1.0 -0.4717426178
C  C1083  1  0.27860000  0.30910000  0.26340000  1.0 -0.4717426178
C  C1084  1  0.96950000  0.69090000  0.23660000  1.0 -0.4717426178
C  C1085  1  0.72140000  0.03050000  0.23660000  1.0 -0.4717426178
C  C1086  1  0.30910000  0.27860000  0.23660000  1.0 -0.4717426178
C  C1087  1  0.30910000  0.03050000  0.73660000  1.0 -0.4605226342
C  C1088  1  0.96950000  0.27860000  0.73660000  1.0 -0.4717426178
C  C1089  1  0.72140000  0.69090000  0.73660000  1.0 -0.4605226342
C  C1090  1  0.03050000  0.30910000  0.76340000  1.0 -0.4717426178
C  C1091  1  0.27860000  0.96950000  0.76340000  1.0 -0.4605226342
C  C1092  1  0.69090000  0.72140000  0.76340000  1.0 -0.4605226342
S  S1  1  0.67120000  0.97410000  0.24055000  1.0 0.7288167798
S  S2  1  0.02590000  0.69710000  0.24055000  1.0 0.7288167798
S  S3  1  0.30290000  0.32880000  0.24055000  1.0 0.7288167798
S  S4  1  0.97410000  0.67120000  0.25945000  1.0 0.7288167798
S  S5  1  0.69710000  0.02590000  0.25945000  1.0 0.7288167798
S  S6  1  0.32880000  0.30290000  0.25945000  1.0 0.7288167798
S  S7  1  0.32880000  0.02590000  0.75945000  1.0 0.7288167798
S  S8  1  0.97410000  0.30290000  0.75945000  1.0 0.7288167798
S  S9  1  0.69710000  0.67120000  0.75945000  1.0 0.7288167798
S  S10  1  0.02590000  0.32880000  0.74055000  1.0 0.7288167798
S  S11  1  0.30290000  0.97410000  0.74055000  1.0 0.7288167798
S  S12  1  0.67120000  0.69710000  0.74055000  1.0 0.7288167798
O  O1  1  0.66630000  0.87190000  0.95722000  1.0 -1.0086396909
O  O2  1  0.12810000  0.79440000  0.95722000  1.0 -1.0086396909
O  O3  1  0.20560000  0.33370000  0.95722000  1.0 -1.0086396909
O  O4  1  0.87190000  0.66630000  0.54278000  1.0 -1.0086396909
O  O5  1  0.79440000  0.12810000  0.54278000  1.0 -1.0086396909
O  O6  1  0.33370000  0.20560000  0.54278000  1.0 -1.0086396909
O  O7  1  0.33370000  0.12810000  0.04278000  1.0 -1.0086396909
O  O8  1  0.87190000  0.20560000  0.04278000  1.0 -1.0086396909
O  O9  1  0.79440000  0.66630000  0.04278000  1.0 -1.0086396909
O  O10  1  0.12810000  0.33370000  0.45722000  1.0 -1.0086396909
O  O11  1  0.20560000  0.87190000  0.45722000  1.0 -1.0086396909
O  O12  1  0.66630000  0.79440000  0.45722000  1.0 -1.0086396909
O  O13  1  0.66400000  0.86520000  0.20801000  1.0 -0.9989772615
O  O14  1  0.13480000  0.79880000  0.20801000  1.0 -0.9989772615
O  O15  1  0.20120000  0.33600000  0.20801000  1.0 -0.9989772615
O  O16  1  0.86520000  0.66400000  0.29199000  1.0 -0.9989772615
O  O17  1  0.79880000  0.13480000  0.29199000  1.0 -0.9989772615
O  O18  1  0.33600000  0.20120000  0.29199000  1.0 -0.9989772615
O  O19  1  0.33600000  0.13480000  0.79199000  1.0 -0.9989772615
O  O20  1  0.86520000  0.20120000  0.79199000  1.0 -0.9989772615
O  O21  1  0.79880000  0.66400000  0.79199000  1.0 -0.9989772615
O  O22  1  0.13480000  0.33600000  0.70801000  1.0 -0.9989772615
O  O23  1  0.20120000  0.86520000  0.70801000  1.0 -0.9989772615
O  O24  1  0.66400000  0.79880000  0.70801000  1.0 -0.9989772615
O  O25  1  0.67360000  0.92030000  0.99832000  1.0 -0.5412905171
O  O26  1  0.07970000  0.75330000  0.99832000  1.0 -0.5412905171
O  O27  1  0.24670000  0.32640000  0.99832000  1.0 -0.5412905171
O  O28  1  0.92030000  0.67360000  0.50168000  1.0 -0.5412905171
O  O29  1  0.75330000  0.07970000  0.50168000  1.0 -0.5412905171
O  O30  1  0.32640000  0.24670000  0.50168000  1.0 -0.5412905171
O  O31  1  0.32640000  0.07970000  0.00168000  1.0 -0.5412905171
O  O32  1  0.92030000  0.24670000  0.00168000  1.0 -0.5412905171
O  O33  1  0.75330000  0.67360000  0.00168000  1.0 -0.5412905171
O  O34  1  0.07970000  0.32640000  0.49832000  1.0 -0.5412905171
O  O35  1  0.24670000  0.92030000  0.49832000  1.0 -0.5412905171
O  O36  1  0.67360000  0.75330000  0.49832000  1.0 -0.5412905171
O  O37  1  0.67760000  0.85590000  0.00469000  1.0 -0.5336877929
O  O38  1  0.14410000  0.82170000  0.00469000  1.0 -0.5336877929
O  O39  1  0.17830000  0.32240000  0.00469000  1.0 -0.5336877929
O  O40  1  0.85590000  0.67760000  0.49531000  1.0 -0.5336877929
O  O41  1  0.82170000  0.14410000  0.49531000  1.0 -0.5336877929
O  O42  1  0.32240000  0.17830000  0.49531000  1.0 -0.5336877929
O  O43  1  0.32240000  0.14410000  0.99531000  1.0 -0.5336877929
O  O44  1  0.85590000  0.17830000  0.99531000  1.0 -0.5336877929
O  O45  1  0.82170000  0.67760000  0.99531000  1.0 -0.5336877929
O  O46  1  0.14410000  0.32240000  0.50469000  1.0 -0.5336877929
O  O47  1  0.17830000  0.85590000  0.50469000  1.0 -0.5336877929
O  O48  1  0.67760000  0.82170000  0.50469000  1.0 -0.5336877929
O  O49  1  0.67050000  0.91380000  0.16690000  1.0 -0.5412905171
O  O50  1  0.08620000  0.75670000  0.16690000  1.0 -0.5412905171
O  O51  1  0.24330000  0.32950000  0.16690000  1.0 -0.5487716601
O  O52  1  0.91380000  0.67050000  0.33310000  1.0 -0.5487716601
O  O53  1  0.75670000  0.08620000  0.33310000  1.0 -0.5487716601
O  O54  1  0.32950000  0.24330000  0.33310000  1.0 -0.5487716601
O  O55  1  0.32950000  0.08620000  0.83310000  1.0 -0.5487716601
O  O56  1  0.91380000  0.24330000  0.83310000  1.0 -0.5412905171
O  O57  1  0.75670000  0.67050000  0.83310000  1.0 -0.5412905171
O  O58  1  0.08620000  0.32950000  0.66690000  1.0 -0.5487716601
O  O59  1  0.24330000  0.91380000  0.66690000  1.0 -0.5412905171
O  O60  1  0.67050000  0.75670000  0.66690000  1.0 -0.5412905171
O  O61  1  0.67070000  0.84810000  0.16008000  1.0 -0.4968445986
O  O62  1  0.15190000  0.82260000  0.16008000  1.0 -0.4968445986
O  O63  1  0.17740000  0.32930000  0.16008000  1.0 -0.4968445986
O  O64  1  0.84810000  0.67070000  0.33992000  1.0 -0.4968445986
O  O65  1  0.82260000  0.15190000  0.33992000  1.0 -0.4968445986
O  O66  1  0.32930000  0.17740000  0.33992000  1.0 -0.4968445986
O  O67  1  0.32930000  0.15190000  0.83992000  1.0 -0.4968445986
O  O68  1  0.84810000  0.17740000  0.83992000  1.0 -0.4968445986
O  O69  1  0.82260000  0.67070000  0.83992000  1.0 -0.4968445986
O  O70  1  0.15190000  0.32930000  0.66008000  1.0 -0.4968445986
O  O71  1  0.17740000  0.84810000  0.66008000  1.0 -0.4968445986
O  O72  1  0.67070000  0.82260000  0.66008000  1.0 -0.4968445986
O  O73  1  0.61330000  0.77320000  0.98015000  1.0 -0.5587722619
O  O74  1  0.22680000  0.84010000  0.98015000  1.0 -0.5587722619
O  O75  1  0.15990000  0.38670000  0.98015000  1.0 -0.5587722619
O  O76  1  0.77320000  0.61330000  0.51985000  1.0 -0.5587722619
O  O77  1  0.84010000  0.22680000  0.51985000  1.0 -0.5587722619
O  O78  1  0.38670000  0.15990000  0.51985000  1.0 -0.5587722619
O  O79  1  0.38670000  0.22680000  0.01985000  1.0 -0.5587722619
O  O80  1  0.77320000  0.15990000  0.01985000  1.0 -0.5587722619
O  O81  1  0.84010000  0.61330000  0.01985000  1.0 -0.5587722619
O  O82  1  0.22680000  0.38670000  0.48015000  1.0 -0.5587722619
O  O83  1  0.15990000  0.77320000  0.48015000  1.0 -0.5587722619
O  O84  1  0.61330000  0.84010000  0.48015000  1.0 -0.5587722619
O  O85  1  0.57480000  0.77280000  0.95294000  1.0 -0.5412905171
O  O86  1  0.22720000  0.80200000  0.95294000  1.0 -0.5412905171
O  O87  1  0.19800000  0.42520000  0.95294000  1.0 -0.5412905171
O  O88  1  0.77280000  0.57480000  0.54706000  1.0 -0.5412905171
O  O89  1  0.80200000  0.22720000  0.54706000  1.0 -0.5412905171
O  O90  1  0.42520000  0.19800000  0.54706000  1.0 -0.5412905171
O  O91  1  0.42520000  0.22720000  0.04706000  1.0 -0.5412905171
O  O92  1  0.77280000  0.19800000  0.04706000  1.0 -0.5412905171
O  O93  1  0.80200000  0.57480000  0.04706000  1.0 -0.5412905171
O  O94  1  0.22720000  0.42520000  0.45294000  1.0 -0.5412905171
O  O95  1  0.19800000  0.77280000  0.45294000  1.0 -0.5412905171
O  O96  1  0.57480000  0.80200000  0.45294000  1.0 -0.5412905171
O  O97  1  0.56610000  0.85910000  0.94577000  1.0 -0.6199673639
O  O98  1  0.14090000  0.70700000  0.94577000  1.0 -0.6199673639
O  O99  1  0.29300000  0.43390000  0.94577000  1.0 -0.6199673639
O  O100  1  0.85910000  0.56610000  0.55423000  1.0 -0.6199673639
O  O101  1  0.70700000  0.14090000  0.55423000  1.0 -0.6199673639
O  O102  1  0.43390000  0.29300000  0.55423000  1.0 -0.6199673639
O  O103  1  0.43390000  0.14090000  0.05423000  1.0 -0.6199673639
O  O104  1  0.85910000  0.29300000  0.05423000  1.0 -0.6199673639
O  O105  1  0.70700000  0.56610000  0.05423000  1.0 -0.6199673639
O  O106  1  0.14090000  0.43390000  0.44577000  1.0 -0.6199673639
O  O107  1  0.29300000  0.85910000  0.44577000  1.0 -0.6199673639
O  O108  1  0.56610000  0.70700000  0.44577000  1.0 -0.6199673639
O  O109  1  0.60110000  0.90730000  0.97148000  1.0 -0.4605226342
O  O110  1  0.09270000  0.69380000  0.97148000  1.0 -0.4605226342
O  O111  1  0.30620000  0.39890000  0.97148000  1.0 -0.4605226342
O  O112  1  0.90730000  0.60110000  0.52852000  1.0 -0.4605226342
O  O113  1  0.69380000  0.09270000  0.52852000  1.0 -0.4605226342
O  O114  1  0.39890000  0.30620000  0.52852000  1.0 -0.4605226342
O  O115  1  0.39890000  0.09270000  0.02852000  1.0 -0.4605226342
O  O116  1  0.90730000  0.30620000  0.02852000  1.0 -0.4605226342
O  O117  1  0.69380000  0.60110000  0.02852000  1.0 -0.4605226342
O  O118  1  0.09270000  0.39890000  0.47148000  1.0 -0.4605226342
O  O119  1  0.30620000  0.90730000  0.47148000  1.0 -0.4605226342
O  O120  1  0.60110000  0.69380000  0.47148000  1.0 -0.4605226342
O  O121  1  0.71910000  0.82090000  0.97274000  1.0 -0.5336877929
O  O122  1  0.17910000  0.89820000  0.97274000  1.0 -0.5336877929
O  O123  1  0.10180000  0.28090000  0.97274000  1.0 -0.5336877929
O  O124  1  0.82090000  0.71910000  0.52726000  1.0 -0.5336877929
O  O125  1  0.89820000  0.17910000  0.52726000  1.0 -0.5336877929
O  O126  1  0.28090000  0.10180000  0.52726000  1.0 -0.5336877929
O  O127  1  0.28090000  0.17910000  0.02726000  1.0 -0.5336877929
O  O128  1  0.82090000  0.10180000  0.02726000  1.0 -0.5336877929
O  O129  1  0.89820000  0.71910000  0.02726000  1.0 -0.5336877929
O  O130  1  0.17910000  0.28090000  0.47274000  1.0 -0.5336877929
O  O131  1  0.10180000  0.82090000  0.47274000  1.0 -0.5336877929
O  O132  1  0.71910000  0.89820000  0.47274000  1.0 -0.5336877929
O  O133  1  0.74350000  0.85020000  0.94227000  1.0 -0.5336877929
O  O134  1  0.14980000  0.89330000  0.94227000  1.0 -0.5336877929
O  O135  1  0.10670000  0.25650000  0.94227000  1.0 -0.5336877929
O  O136  1  0.85020000  0.74350000  0.55773000  1.0 -0.5336877929
O  O137  1  0.89330000  0.14980000  0.55773000  1.0 -0.5336877929
O  O138  1  0.25650000  0.10670000  0.55773000  1.0 -0.5336877929
O  O139  1  0.25650000  0.14980000  0.05773000  1.0 -0.5336877929
O  O140  1  0.85020000  0.10670000  0.05773000  1.0 -0.5336877929
O  O141  1  0.89330000  0.74350000  0.05773000  1.0 -0.5336877929
O  O142  1  0.14980000  0.25650000  0.44227000  1.0 -0.5336877929
O  O143  1  0.10670000  0.85020000  0.44227000  1.0 -0.5336877929
O  O144  1  0.74350000  0.89330000  0.44227000  1.0 -0.5336877929
O  O145  1  0.77030000  0.95080000  0.93656000  1.0 -0.4968445986
O  O146  1  0.04920000  0.81950000  0.93656000  1.0 -0.4968445986
O  O147  1  0.18050000  0.22970000  0.93656000  1.0 -0.4968445986
O  O148  1  0.95080000  0.77030000  0.56344000  1.0 -0.4968445986
O  O149  1  0.81950000  0.04920000  0.56344000  1.0 -0.4968445986
O  O150  1  0.22970000  0.18050000  0.56344000  1.0 -0.4968445986
O  O151  1  0.22970000  0.04920000  0.06344000  1.0 -0.4968445986
O  O152  1  0.95080000  0.18050000  0.06344000  1.0 -0.4968445986
O  O153  1  0.81950000  0.77030000  0.06344000  1.0 -0.4968445986
O  O154  1  0.04920000  0.22970000  0.43656000  1.0 -0.4968445986
O  O155  1  0.18050000  0.95080000  0.43656000  1.0 -0.4968445986
O  O156  1  0.77030000  0.81950000  0.43656000  1.0 -0.4968445986
O  O157  1  0.74820000  0.95900000  0.96579000  1.0 -0.5487716601
O  O158  1  0.04100000  0.78920000  0.96579000  1.0 -0.5487716601
O  O159  1  0.21080000  0.25180000  0.96579000  1.0 -0.5487716601
O  O160  1  0.95900000  0.74820000  0.53421000  1.0 -0.5487716601
O  O161  1  0.78920000  0.04100000  0.53421000  1.0 -0.5487716601
O  O162  1  0.25180000  0.21080000  0.53421000  1.0 -0.5487716601
O  O163  1  0.25180000  0.04100000  0.03421000  1.0 -0.5487716601
O  O164  1  0.95900000  0.21080000  0.03421000  1.0 -0.5487716601
O  O165  1  0.78920000  0.74820000  0.03421000  1.0 -0.5487716601
O  O166  1  0.04100000  0.25180000  0.46579000  1.0 -0.5487716601
O  O167  1  0.21080000  0.95900000  0.46579000  1.0 -0.5487716601
O  O168  1  0.74820000  0.78920000  0.46579000  1.0 -0.5487716601
O  O169  1  0.68970000  0.87060000  0.90985000  1.0 -0.5191872856
O  O170  1  0.12940000  0.81910000  0.90985000  1.0 -0.5191872856
O  O171  1  0.18090000  0.31030000  0.90985000  1.0 -0.5191872856
O  O172  1  0.87060000  0.68970000  0.59015000  1.0 -0.5191872856
O  O173  1  0.81910000  0.12940000  0.59015000  1.0 -0.5191872856
O  O174  1  0.31030000  0.18090000  0.59015000  1.0 -0.5191872856
O  O175  1  0.31030000  0.12940000  0.09015000  1.0 -0.5191872856
O  O176  1  0.87060000  0.18090000  0.09015000  1.0 -0.5191872856
O  O177  1  0.81910000  0.68970000  0.09015000  1.0 -0.5191872856
O  O178  1  0.12940000  0.31030000  0.40985000  1.0 -0.5191872856
O  O179  1  0.18090000  0.87060000  0.40985000  1.0 -0.5191872856
O  O180  1  0.68970000  0.81910000  0.40985000  1.0 -0.5191872856
O  O181  1  0.61360000  0.83070000  0.91522000  1.0 -0.5412905171
O  O182  1  0.16930000  0.78290000  0.91522000  1.0 -0.5412905171
O  O183  1  0.21710000  0.38640000  0.91522000  1.0 -0.5412905171
O  O184  1  0.83070000  0.61360000  0.58478000  1.0 -0.5412905171
O  O185  1  0.78290000  0.16930000  0.58478000  1.0 -0.5412905171
O  O186  1  0.38640000  0.21710000  0.58478000  1.0 -0.5412905171
O  O187  1  0.38640000  0.16930000  0.08478000  1.0 -0.5412905171
O  O188  1  0.83070000  0.21710000  0.08478000  1.0 -0.5412905171
O  O189  1  0.78290000  0.61360000  0.08478000  1.0 -0.5412905171
O  O190  1  0.16930000  0.38640000  0.41522000  1.0 -0.5412905171
O  O191  1  0.21710000  0.83070000  0.41522000  1.0 -0.5412905171
O  O192  1  0.61360000  0.78290000  0.41522000  1.0 -0.5412905171
O  O193  1  0.69250000  0.86600000  0.25465000  1.0 -0.4905632115
O  O194  1  0.13400000  0.82650000  0.25465000  1.0 -0.4905632115
O  O195  1  0.17350000  0.30750000  0.25465000  1.0 -0.4905632115
O  O196  1  0.86600000  0.69250000  0.24535000  1.0 -0.4905632115
O  O197  1  0.82650000  0.13400000  0.24535000  1.0 -0.4905632115
O  O198  1  0.30750000  0.17350000  0.24535000  1.0 -0.4905632115
O  O199  1  0.30750000  0.13400000  0.74535000  1.0 -0.4905632115
O  O200  1  0.86600000  0.17350000  0.74535000  1.0 -0.4905632115
O  O201  1  0.82650000  0.69250000  0.74535000  1.0 -0.4905632115
O  O202  1  0.13400000  0.30750000  0.75465000  1.0 -0.4905632115
O  O203  1  0.17350000  0.86600000  0.75465000  1.0 -0.4905632115
O  O204  1  0.69250000  0.82650000  0.75465000  1.0 -0.4905632115
O  O205  1  0.61700000  0.83470000  0.24922000  1.0 -0.5412905171
O  O206  1  0.16530000  0.78230000  0.24922000  1.0 -0.5412905171
O  O207  1  0.21770000  0.38300000  0.24922000  1.0 -0.5412905171
O  O208  1  0.83470000  0.61700000  0.25078000  1.0 -0.5412905171
O  O209  1  0.78230000  0.16530000  0.25078000  1.0 -0.5412905171
O  O210  1  0.38300000  0.21770000  0.25078000  1.0 -0.5412905171
O  O211  1  0.38300000  0.16530000  0.75078000  1.0 -0.5412905171
O  O212  1  0.83470000  0.21770000  0.75078000  1.0 -0.5412905171
O  O213  1  0.78230000  0.61700000  0.75078000  1.0 -0.5412905171
O  O214  1  0.16530000  0.38300000  0.74922000  1.0 -0.5412905171
O  O215  1  0.21770000  0.83470000  0.74922000  1.0 -0.5412905171
O  O216  1  0.61700000  0.78230000  0.74922000  1.0 -0.5412905171
O  O217  1  0.74600000  0.84650000  0.22195000  1.0 -0.5487716601
O  O218  1  0.15350000  0.89950000  0.22195000  1.0 -0.5487716601
O  O219  1  0.10050000  0.25400000  0.22195000  1.0 -0.5487716601
O  O220  1  0.84650000  0.74600000  0.27805000  1.0 -0.5487716601
O  O221  1  0.89950000  0.15350000  0.27805000  1.0 -0.5487716601
O  O222  1  0.25400000  0.10050000  0.27805000  1.0 -0.5487716601
O  O223  1  0.25400000  0.15350000  0.77805000  1.0 -0.5487716601
O  O224  1  0.84650000  0.10050000  0.77805000  1.0 -0.5487716601
O  O225  1  0.89950000  0.74600000  0.77805000  1.0 -0.5487716601
O  O226  1  0.15350000  0.25400000  0.72195000  1.0 -0.5487716601
O  O227  1  0.10050000  0.84650000  0.72195000  1.0 -0.5487716601
O  O228  1  0.74600000  0.89950000  0.72195000  1.0 -0.5487716601
O  O229  1  0.72740000  0.82850000  0.19068000  1.0 -0.5487716601
O  O230  1  0.17150000  0.89890000  0.19068000  1.0 -0.5487716601
O  O231  1  0.10110000  0.27260000  0.19068000  1.0 -0.5487716601
O  O232  1  0.82850000  0.72740000  0.30932000  1.0 -0.5487716601
O  O233  1  0.89890000  0.17150000  0.30932000  1.0 -0.5487716601
O  O234  1  0.27260000  0.10110000  0.30932000  1.0 -0.5487716601
O  O235  1  0.27260000  0.17150000  0.80932000  1.0 -0.5487716601
O  O236  1  0.82850000  0.10110000  0.80932000  1.0 -0.5487716601
O  O237  1  0.89890000  0.72740000  0.80932000  1.0 -0.5487716601
O  O238  1  0.17150000  0.27260000  0.69068000  1.0 -0.5487716601
O  O239  1  0.10110000  0.82850000  0.69068000  1.0 -0.5487716601
O  O240  1  0.72740000  0.89890000  0.69068000  1.0 -0.5487716601
O  O241  1  0.76560000  0.94800000  0.22681000  1.0 -0.5336877929
O  O242  1  0.05200000  0.81760000  0.22681000  1.0 -0.5336877929
O  O243  1  0.18240000  0.23440000  0.22681000  1.0 -0.5336877929
O  O244  1  0.94800000  0.76560000  0.27319000  1.0 -0.5336877929
O  O245  1  0.81760000  0.05200000  0.27319000  1.0 -0.5336877929
O  O246  1  0.23440000  0.18240000  0.27319000  1.0 -0.5336877929
O  O247  1  0.23440000  0.05200000  0.77319000  1.0 -0.5336877929
O  O248  1  0.94800000  0.18240000  0.77319000  1.0 -0.5336877929
O  O249  1  0.81760000  0.76560000  0.77319000  1.0 -0.5336877929
O  O250  1  0.05200000  0.23440000  0.72681000  1.0 -0.5336877929
O  O251  1  0.18240000  0.94800000  0.72681000  1.0 -0.5336877929
O  O252  1  0.76560000  0.81760000  0.72681000  1.0 -0.5336877929
O  O253  1  0.74110000  0.95930000  0.19845000  1.0 -0.4905632115
O  O254  1  0.04070000  0.78180000  0.19845000  1.0 -0.4905632115
O  O255  1  0.21820000  0.25890000  0.19845000  1.0 -0.4905632115
O  O256  1  0.95930000  0.74110000  0.30155000  1.0 -0.4905632115
O  O257  1  0.78180000  0.04070000  0.30155000  1.0 -0.4905632115
O  O258  1  0.25890000  0.21820000  0.30155000  1.0 -0.4905632115
O  O259  1  0.25890000  0.04070000  0.80155000  1.0 -0.4905632115
O  O260  1  0.95930000  0.21820000  0.80155000  1.0 -0.4905632115
O  O261  1  0.78180000  0.74110000  0.80155000  1.0 -0.4905632115
O  O262  1  0.04070000  0.25890000  0.69845000  1.0 -0.4905632115
O  O263  1  0.21820000  0.95930000  0.69845000  1.0 -0.4905632115
O  O264  1  0.74110000  0.78180000  0.69845000  1.0 -0.4905632115
O  O265  1  0.58050000  0.76330000  0.21230000  1.0 -0.5587722619
O  O266  1  0.23670000  0.81720000  0.21230000  1.0 -0.5587722619
O  O267  1  0.18280000  0.41950000  0.21230000  1.0 -0.5587722619
O  O268  1  0.76330000  0.58050000  0.28770000  1.0 -0.5587722619
O  O269  1  0.81720000  0.23670000  0.28770000  1.0 -0.5587722619
O  O270  1  0.41950000  0.18280000  0.28770000  1.0 -0.5587722619
O  O271  1  0.41950000  0.23670000  0.78770000  1.0 -0.5587722619
O  O272  1  0.76330000  0.18280000  0.78770000  1.0 -0.5587722619
O  O273  1  0.81720000  0.58050000  0.78770000  1.0 -0.5587722619
O  O274  1  0.23670000  0.41950000  0.71230000  1.0 -0.5587722619
O  O275  1  0.18280000  0.76330000  0.71230000  1.0 -0.5587722619
O  O276  1  0.58050000  0.81720000  0.71230000  1.0 -0.5587722619
O  O277  1  0.62070000  0.76260000  0.18733000  1.0 -0.4799614256
O  O278  1  0.23740000  0.85810000  0.18733000  1.0 -0.4799614256
O  O279  1  0.14190000  0.37930000  0.18733000  1.0 -0.4799614256
O  O280  1  0.76260000  0.62070000  0.31267000  1.0 -0.4799614256
O  O281  1  0.85810000  0.23740000  0.31267000  1.0 -0.4799614256
O  O282  1  0.37930000  0.14190000  0.31267000  1.0 -0.4799614256
O  O283  1  0.37930000  0.23740000  0.81267000  1.0 -0.4799614256
O  O284  1  0.76260000  0.14190000  0.81267000  1.0 -0.4799614256
O  O285  1  0.85810000  0.62070000  0.81267000  1.0 -0.4799614256
O  O286  1  0.23740000  0.37930000  0.68733000  1.0 -0.4799614256
O  O287  1  0.14190000  0.76260000  0.68733000  1.0 -0.4799614256
O  O288  1  0.62070000  0.85810000  0.68733000  1.0 -0.4799614256
O  O289  1  0.56280000  0.85190000  0.21830000  1.0 -0.5149619755
O  O290  1  0.14810000  0.71090000  0.21830000  1.0 -0.5149619755
O  O291  1  0.28910000  0.43720000  0.21830000  1.0 -0.5149619755
O  O292  1  0.85190000  0.56280000  0.28170000  1.0 -0.5191872856
O  O293  1  0.71090000  0.14810000  0.28170000  1.0 -0.5191872856
O  O294  1  0.43720000  0.28910000  0.28170000  1.0 -0.5191872856
O  O295  1  0.43720000  0.14810000  0.78170000  1.0 -0.5191872856
O  O296  1  0.85190000  0.28910000  0.78170000  1.0 -0.5149619755
O  O297  1  0.71090000  0.56280000  0.78170000  1.0 -0.5149619755
O  O298  1  0.14810000  0.43720000  0.71830000  1.0 -0.5149619755
O  O299  1  0.28910000  0.85190000  0.71830000  1.0 -0.5149619755
O  O300  1  0.56280000  0.71090000  0.71830000  1.0 -0.5191872856
O  O301  1  0.60150000  0.90440000  0.19600000  1.0 -0.5587722619
O  O302  1  0.09560000  0.69710000  0.19600000  1.0 -0.5587722619
O  O303  1  0.30290000  0.39850000  0.19600000  1.0 -0.5587722619
O  O304  1  0.90440000  0.60150000  0.30400000  1.0 -0.5587722619
O  O305  1  0.69710000  0.09560000  0.30400000  1.0 -0.5587722619
O  O306  1  0.39850000  0.30290000  0.30400000  1.0 -0.5587722619
O  O307  1  0.39850000  0.09560000  0.80400000  1.0 -0.5587722619
O  O308  1  0.90440000  0.30290000  0.80400000  1.0 -0.5587722619
O  O309  1  0.69710000  0.60150000  0.80400000  1.0 -0.5587722619
O  O310  1  0.09560000  0.39850000  0.69600000  1.0 -0.5587722619
O  O311  1  0.30290000  0.90440000  0.69600000  1.0 -0.5587722619
O  O312  1  0.60150000  0.69710000  0.69600000  1.0 -0.5587722619
O  O313  1  0.66840000  0.93470000  0.22970000  1.0 -0.4717426178
O  O314  1  0.06530000  0.73370000  0.22970000  1.0 -0.4799614256
O  O315  1  0.26630000  0.33160000  0.22970000  1.0 -0.4717426178
O  O316  1  0.93470000  0.66840000  0.27030000  1.0 -0.4799614256
O  O317  1  0.73370000  0.06530000  0.27030000  1.0 -0.4717426178
O  O318  1  0.33160000  0.26630000  0.27030000  1.0 -0.4717426178
O  O319  1  0.33160000  0.06530000  0.77030000  1.0 -0.4717426178
O  O320  1  0.93470000  0.26630000  0.77030000  1.0 -0.4717426178
O  O321  1  0.73370000  0.66840000  0.77030000  1.0 -0.4717426178
O  O322  1  0.06530000  0.33160000  0.72970000  1.0 -0.4717426178
O  O323  1  0.26630000  0.93470000  0.72970000  1.0 -0.4717426178
O  O324  1  0.66840000  0.73370000  0.72970000  1.0 -0.4717426178
