# DDEC6 charges by PACMAN v1.1 (https://github.com/mtap-research/PACMAN-charge/)
data_QUYRAF_ASR_pacman
_symmetry_space_group_name_H-M   'P 1'
_cell_length_a   35.41310000
_cell_length_b   35.41310000
_cell_length_c   35.41310000
_cell_angle_alpha   44.58600000
_cell_angle_beta   44.58600000
_cell_angle_gamma   44.58600000
_symmetry_Int_Tables_number   1
_chemical_formula_structural   Co14H168(C71O30)3
_chemical_formula_sum   'Co28 H336 C426 O180'
_cell_volume   19901.59873402
_cell_formula_units_Z   2
loop_
 _symmetry_equiv_pos_site_id
 _symmetry_equiv_pos_as_xyz
  1  'x, y, z'
loop_
 _atom_site_type_symbol
 _atom_site_label
 _atom_site_symmetry_multiplicity
 _atom_site_fract_x
 _atom_site_fract_y
 _atom_site_fract_z
 _atom_site_occupancy
 _atom_site_charge
Co  Co1  1  0.75272000  0.80234000  0.98511000  1.0 1.0003104957
Co  Co2  1  0.80234000  0.98511000  0.75272000  1.0 1.0003104957
Co  Co3  1  0.98511000  0.75272000  0.80234000  1.0 1.0003104957
Co  Co4  1  0.69766000  0.74728000  0.51489000  1.0 1.0003104957
Co  Co5  1  0.51489000  0.69766000  0.74728000  1.0 1.0003104957
Co  Co6  1  0.74728000  0.51489000  0.69766000  1.0 1.0003104957
Co  Co7  1  0.24728000  0.19766000  0.01489000  1.0 1.0003104957
Co  Co8  1  0.19766000  0.01489000  0.24728000  1.0 1.0003104957
Co  Co9  1  0.01489000  0.24728000  0.19766000  1.0 1.0003104957
Co  Co10  1  0.30234000  0.25272000  0.48511000  1.0 1.0003104957
Co  Co11  1  0.48511000  0.30234000  0.25272000  1.0 1.0003104957
Co  Co12  1  0.25272000  0.48511000  0.30234000  1.0 1.0003104957
Co  Co13  1  0.70183000  0.94054000  0.89054000  1.0 1.0003104957
Co  Co14  1  0.94054000  0.89054000  0.70183000  1.0 1.0003104957
Co  Co15  1  0.89054000  0.70183000  0.94054000  1.0 1.0003104957
Co  Co16  1  0.55946000  0.79817000  0.60946000  1.0 1.0003104957
Co  Co17  1  0.60946000  0.55946000  0.79817000  1.0 1.0003104957
Co  Co18  1  0.79817000  0.60946000  0.55946000  1.0 1.0069769123
Co  Co19  1  0.29817000  0.05946000  0.10946000  1.0 1.0003104957
Co  Co20  1  0.05946000  0.10946000  0.29817000  1.0 1.0003104957
Co  Co21  1  0.10946000  0.29817000  0.05946000  1.0 1.0003104957
Co  Co22  1  0.44054000  0.20183000  0.39054000  1.0 1.0003104957
Co  Co23  1  0.39054000  0.44054000  0.20183000  1.0 1.0003104957
Co  Co24  1  0.20183000  0.39054000  0.44054000  1.0 1.0003104957
Co  Co25  1  0.83531000  0.83531000  0.83531000  1.0 1.0859494904
Co  Co26  1  0.66469000  0.66469000  0.66469000  1.0 1.0859494904
Co  Co27  1  0.16469000  0.16469000  0.16469000  1.0 1.0847417811
Co  Co28  1  0.33531000  0.33531000  0.33531000  1.0 1.0847417811
H  H1  1  0.76630000  0.66410000  0.16560000  1.0 0.1171991933
H  H2  1  0.66410000  0.16560000  0.76630000  1.0 0.1171991933
H  H3  1  0.16560000  0.76630000  0.66410000  1.0 0.1171991933
H  H4  1  0.83590000  0.73370000  0.33440000  1.0 0.1171991933
H  H5  1  0.33440000  0.83590000  0.73370000  1.0 0.1171991933
H  H6  1  0.73370000  0.33440000  0.83590000  1.0 0.1171991933
H  H7  1  0.23370000  0.33590000  0.83440000  1.0 0.1171991933
H  H8  1  0.33590000  0.83440000  0.23370000  1.0 0.1171991933
H  H9  1  0.83440000  0.23370000  0.33590000  1.0 0.1171991933
H  H10  1  0.16410000  0.26630000  0.66560000  1.0 0.1171991933
H  H11  1  0.66560000  0.16410000  0.26630000  1.0 0.1171991933
H  H12  1  0.26630000  0.66560000  0.16410000  1.0 0.1171991933
H  H13  1  0.80670000  0.60800000  0.23110000  1.0 0.1402831
H  H14  1  0.60800000  0.23110000  0.80670000  1.0 0.1402831
H  H15  1  0.23110000  0.80670000  0.60800000  1.0 0.1402831
H  H16  1  0.89200000  0.69330000  0.26890000  1.0 0.1402831
H  H17  1  0.26890000  0.89200000  0.69330000  1.0 0.1402831
H  H18  1  0.69330000  0.26890000  0.89200000  1.0 0.1402831
H  H19  1  0.19330000  0.39200000  0.76890000  1.0 0.1402831
H  H20  1  0.39200000  0.76890000  0.19330000  1.0 0.1402831
H  H21  1  0.76890000  0.19330000  0.39200000  1.0 0.1402831
H  H22  1  0.10800000  0.30670000  0.73110000  1.0 0.1402831
H  H23  1  0.73110000  0.10800000  0.30670000  1.0 0.1402831
H  H24  1  0.30670000  0.73110000  0.10800000  1.0 0.1402831
H  H25  1  0.94610000  0.64900000  0.09570000  1.0 0.1171991933
H  H26  1  0.64900000  0.09570000  0.94610000  1.0 0.1171991933
H  H27  1  0.09570000  0.94610000  0.64900000  1.0 0.1171991933
H  H28  1  0.85100000  0.55390000  0.40430000  1.0 0.1171991933
H  H29  1  0.40430000  0.85100000  0.55390000  1.0 0.1171991933
H  H30  1  0.55390000  0.40430000  0.85100000  1.0 0.1171991933
H  H31  1  0.05390000  0.35100000  0.90430000  1.0 0.1171991933
H  H32  1  0.35100000  0.90430000  0.05390000  1.0 0.1171991933
H  H33  1  0.90430000  0.05390000  0.35100000  1.0 0.1171991933
H  H34  1  0.14900000  0.44610000  0.59570000  1.0 0.1171991933
H  H35  1  0.59570000  0.14900000  0.44610000  1.0 0.1171991933
H  H36  1  0.44610000  0.59570000  0.14900000  1.0 0.1171991933
H  H37  1  0.90660000  0.70060000  0.03200000  1.0 0.1286870339
H  H38  1  0.70060000  0.03200000  0.90660000  1.0 0.1286870339
H  H39  1  0.03200000  0.90660000  0.70060000  1.0 0.1286870339
H  H40  1  0.79940000  0.59340000  0.46800000  1.0 0.1286870339
H  H41  1  0.46800000  0.79940000  0.59340000  1.0 0.1286870339
H  H42  1  0.59340000  0.46800000  0.79940000  1.0 0.1286870339
H  H43  1  0.09340000  0.29940000  0.96800000  1.0 0.1286870339
H  H44  1  0.29940000  0.96800000  0.09340000  1.0 0.1286870339
H  H45  1  0.96800000  0.09340000  0.29940000  1.0 0.1286870339
H  H46  1  0.20060000  0.40660000  0.53200000  1.0 0.1286870339
H  H47  1  0.53200000  0.20060000  0.40660000  1.0 0.1286870339
H  H48  1  0.40660000  0.53200000  0.20060000  1.0 0.1286870339
H  H49  1  0.98430000  0.56800000  0.16340000  1.0 0.1010754595
H  H50  1  0.56800000  0.16340000  0.98430000  1.0 0.1010754595
H  H51  1  0.16340000  0.98430000  0.56800000  1.0 0.1010754595
H  H52  1  0.93200000  0.51570000  0.33660000  1.0 0.1010754595
H  H53  1  0.33660000  0.93200000  0.51570000  1.0 0.1010754595
H  H54  1  0.51570000  0.33660000  0.93200000  1.0 0.1010754595
H  H55  1  0.01570000  0.43200000  0.83660000  1.0 0.1010754595
H  H56  1  0.43200000  0.83660000  0.01570000  1.0 0.1010754595
H  H57  1  0.83660000  0.01570000  0.43200000  1.0 0.1010754595
H  H58  1  0.06800000  0.48430000  0.66340000  1.0 0.1010754595
H  H59  1  0.66340000  0.06800000  0.48430000  1.0 0.1010754595
H  H60  1  0.48430000  0.66340000  0.06800000  1.0 0.1010754595
H  H61  1  0.95040000  0.61670000  0.18340000  1.0 0.1103955441
H  H62  1  0.61670000  0.18340000  0.95040000  1.0 0.1103955441
H  H63  1  0.18340000  0.95040000  0.61670000  1.0 0.1103955441
H  H64  1  0.88330000  0.54960000  0.31660000  1.0 0.1103955441
H  H65  1  0.31660000  0.88330000  0.54960000  1.0 0.1103955441
H  H66  1  0.54960000  0.31660000  0.88330000  1.0 0.1103955441
H  H67  1  0.04960000  0.38330000  0.81660000  1.0 0.1103955441
H  H68  1  0.38330000  0.81660000  0.04960000  1.0 0.1103955441
H  H69  1  0.81660000  0.04960000  0.38330000  1.0 0.1103955441
H  H70  1  0.11670000  0.45040000  0.68340000  1.0 0.1103955441
H  H71  1  0.68340000  0.11670000  0.45040000  1.0 0.1103955441
H  H72  1  0.45040000  0.68340000  0.11670000  1.0 0.1103955441
H  H73  1  0.10160000  0.39580000  0.09770000  1.0 0.1103955441
H  H74  1  0.39580000  0.09770000  0.10160000  1.0 0.1103955441
H  H75  1  0.09770000  0.10160000  0.39580000  1.0 0.1103955441
H  H76  1  0.10420000  0.39840000  0.40230000  1.0 0.1103955441
H  H77  1  0.40230000  0.10420000  0.39840000  1.0 0.1103955441
H  H78  1  0.39840000  0.40230000  0.10420000  1.0 0.1103955441
H  H79  1  0.89840000  0.60420000  0.90230000  1.0 0.1103955441
H  H80  1  0.60420000  0.90230000  0.89840000  1.0 0.1103955441
H  H81  1  0.90230000  0.89840000  0.60420000  1.0 0.1103955441
H  H82  1  0.89580000  0.60160000  0.59770000  1.0 0.1103955441
H  H83  1  0.59770000  0.89580000  0.60160000  1.0 0.1103955441
H  H84  1  0.60160000  0.59770000  0.89580000  1.0 0.1103955441
H  H85  1  0.09740000  0.43420000  0.13370000  1.0 0.1402831
H  H86  1  0.43420000  0.13370000  0.09740000  1.0 0.1402831
H  H87  1  0.13370000  0.09740000  0.43420000  1.0 0.1402831
H  H88  1  0.06580000  0.40260000  0.36630000  1.0 0.1402831
H  H89  1  0.36630000  0.06580000  0.40260000  1.0 0.1402831
H  H90  1  0.40260000  0.36630000  0.06580000  1.0 0.1402831
H  H91  1  0.90260000  0.56580000  0.86630000  1.0 0.1402831
H  H92  1  0.56580000  0.86630000  0.90260000  1.0 0.1402831
H  H93  1  0.86630000  0.90260000  0.56580000  1.0 0.1402831
H  H94  1  0.93420000  0.59740000  0.63370000  1.0 0.1402831
H  H95  1  0.63370000  0.93420000  0.59740000  1.0 0.1402831
H  H96  1  0.59740000  0.63370000  0.93420000  1.0 0.1402831
H  H97  1  0.95380000  0.41020000  0.27760000  1.0 0.1286870339
H  H98  1  0.41020000  0.27760000  0.95380000  1.0 0.1286870339
H  H99  1  0.27760000  0.95380000  0.41020000  1.0 0.1286870339
H  H100  1  0.08980000  0.54620000  0.22240000  1.0 0.1286870339
H  H101  1  0.22240000  0.08980000  0.54620000  1.0 0.1286870339
H  H102  1  0.54620000  0.22240000  0.08980000  1.0 0.1286870339
H  H103  1  0.04620000  0.58980000  0.72240000  1.0 0.1286870339
H  H104  1  0.58980000  0.72240000  0.04620000  1.0 0.1286870339
H  H105  1  0.72240000  0.04620000  0.58980000  1.0 0.1286870339
H  H106  1  0.91020000  0.45380000  0.77760000  1.0 0.1286870339
H  H107  1  0.77760000  0.91020000  0.45380000  1.0 0.1286870339
H  H108  1  0.45380000  0.77760000  0.91020000  1.0 0.1286870339
H  H109  1  0.96580000  0.35880000  0.24920000  1.0 0.1171991933
H  H110  1  0.35880000  0.24920000  0.96580000  1.0 0.1171991933
H  H111  1  0.24920000  0.96580000  0.35880000  1.0 0.1171991933
H  H112  1  0.14120000  0.53420000  0.25080000  1.0 0.1171991933
H  H113  1  0.25080000  0.14120000  0.53420000  1.0 0.1171991933
H  H114  1  0.53420000  0.25080000  0.14120000  1.0 0.1171991933
H  H115  1  0.03420000  0.64120000  0.75080000  1.0 0.1171991933
H  H116  1  0.64120000  0.75080000  0.03420000  1.0 0.1171991933
H  H117  1  0.75080000  0.03420000  0.64120000  1.0 0.1171991933
H  H118  1  0.85880000  0.46580000  0.74920000  1.0 0.1171991933
H  H119  1  0.74920000  0.85880000  0.46580000  1.0 0.1171991933
H  H120  1  0.46580000  0.74920000  0.85880000  1.0 0.1171991933
H  H121  1  0.93910000  0.48090000  0.27350000  1.0 0.09051626
H  H122  1  0.48090000  0.27350000  0.93910000  1.0 0.09051626
H  H123  1  0.27350000  0.93910000  0.48090000  1.0 0.09051626
H  H124  1  0.01910000  0.56090000  0.22650000  1.0 0.09051626
H  H125  1  0.22650000  0.01910000  0.56090000  1.0 0.09051626
H  H126  1  0.56090000  0.22650000  0.01910000  1.0 0.09051626
H  H127  1  0.06090000  0.51910000  0.72650000  1.0 0.09051626
H  H128  1  0.51910000  0.72650000  0.06090000  1.0 0.09051626
H  H129  1  0.72650000  0.06090000  0.51910000  1.0 0.09051626
H  H130  1  0.98090000  0.43910000  0.77350000  1.0 0.09051626
H  H131  1  0.77350000  0.98090000  0.43910000  1.0 0.09051626
H  H132  1  0.43910000  0.77350000  0.98090000  1.0 0.09051626
H  H133  1  0.98290000  0.44340000  0.30080000  1.0 0.1103955441
H  H134  1  0.44340000  0.30080000  0.98290000  1.0 0.1103955441
H  H135  1  0.30080000  0.98290000  0.44340000  1.0 0.1103955441
H  H136  1  0.05660000  0.51710000  0.19920000  1.0 0.1103955441
H  H137  1  0.19920000  0.05660000  0.51710000  1.0 0.1103955441
H  H138  1  0.51710000  0.19920000  0.05660000  1.0 0.1103955441
H  H139  1  0.01710000  0.55660000  0.69920000  1.0 0.1103955441
H  H140  1  0.55660000  0.69920000  0.01710000  1.0 0.1103955441
H  H141  1  0.69920000  0.01710000  0.55660000  1.0 0.1103955441
H  H142  1  0.94340000  0.48290000  0.80080000  1.0 0.1103955441
H  H143  1  0.80080000  0.94340000  0.48290000  1.0 0.1103955441
H  H144  1  0.48290000  0.80080000  0.94340000  1.0 0.1103955441
H  H145  1  0.77740000  0.65340000  0.01550000  1.0 0.1402831
H  H146  1  0.65340000  0.01550000  0.77740000  1.0 0.1402831
H  H147  1  0.01550000  0.77740000  0.65340000  1.0 0.1402831
H  H148  1  0.84660000  0.72260000  0.48450000  1.0 0.1402831
H  H149  1  0.48450000  0.84660000  0.72260000  1.0 0.1402831
H  H150  1  0.72260000  0.48450000  0.84660000  1.0 0.1402831
H  H151  1  0.22260000  0.34660000  0.98450000  1.0 0.1402831
H  H152  1  0.34660000  0.98450000  0.22260000  1.0 0.1402831
H  H153  1  0.98450000  0.22260000  0.34660000  1.0 0.1402831
H  H154  1  0.15340000  0.27740000  0.51550000  1.0 0.1402831
H  H155  1  0.51550000  0.15340000  0.27740000  1.0 0.1402831
H  H156  1  0.27740000  0.51550000  0.15340000  1.0 0.1402831
H  H157  1  0.74720000  0.59280000  0.04540000  1.0 0.1511508648
H  H158  1  0.59280000  0.04540000  0.74720000  1.0 0.1511508648
H  H159  1  0.04540000  0.74720000  0.59280000  1.0 0.1511508648
H  H160  1  0.90720000  0.75280000  0.45460000  1.0 0.1511508648
H  H161  1  0.45460000  0.90720000  0.75280000  1.0 0.1511508648
H  H162  1  0.75280000  0.45460000  0.90720000  1.0 0.1511508648
H  H163  1  0.25280000  0.40720000  0.95460000  1.0 0.1511508648
H  H164  1  0.40720000  0.95460000  0.25280000  1.0 0.1511508648
H  H165  1  0.95460000  0.25280000  0.40720000  1.0 0.1511508648
H  H166  1  0.09280000  0.24720000  0.54540000  1.0 0.1511508648
H  H167  1  0.54540000  0.09280000  0.24720000  1.0 0.1511508648
H  H168  1  0.24720000  0.54540000  0.09280000  1.0 0.1511508648
H  H169  1  0.74620000  0.68600000  0.89050000  1.0 0.1511508648
H  H170  1  0.68600000  0.89050000  0.74620000  1.0 0.1511508648
H  H171  1  0.89050000  0.74620000  0.68600000  1.0 0.1511508648
H  H172  1  0.81400000  0.75380000  0.60950000  1.0 0.1511508648
H  H173  1  0.60950000  0.81400000  0.75380000  1.0 0.1511508648
H  H174  1  0.75380000  0.60950000  0.81400000  1.0 0.1511508648
H  H175  1  0.25380000  0.31400000  0.10950000  1.0 0.1511508648
H  H176  1  0.31400000  0.10950000  0.25380000  1.0 0.1511508648
H  H177  1  0.10950000  0.25380000  0.31400000  1.0 0.1511508648
H  H178  1  0.18600000  0.24620000  0.39050000  1.0 0.1511508648
H  H179  1  0.39050000  0.18600000  0.24620000  1.0 0.1511508648
H  H180  1  0.24620000  0.39050000  0.18600000  1.0 0.1511508648
H  H181  1  0.77580000  0.74610000  0.86200000  1.0 0.1286870339
H  H182  1  0.74610000  0.86200000  0.77580000  1.0 0.1286870339
H  H183  1  0.86200000  0.77580000  0.74610000  1.0 0.1286870339
H  H184  1  0.75390000  0.72420000  0.63800000  1.0 0.1286870339
H  H185  1  0.63800000  0.75390000  0.72420000  1.0 0.1286870339
H  H186  1  0.72420000  0.63800000  0.75390000  1.0 0.1286870339
H  H187  1  0.22420000  0.25390000  0.13800000  1.0 0.1286870339
H  H188  1  0.25390000  0.13800000  0.22420000  1.0 0.1286870339
H  H189  1  0.13800000  0.22420000  0.25390000  1.0 0.1286870339
H  H190  1  0.24610000  0.27580000  0.36200000  1.0 0.1286870339
H  H191  1  0.36200000  0.24610000  0.27580000  1.0 0.1286870339
H  H192  1  0.27580000  0.36200000  0.24610000  1.0 0.1286870339
H  H193  1  0.67140000  0.59570000  0.99440000  1.0 0.0631293682
H  H194  1  0.59570000  0.99440000  0.67140000  1.0 0.0631293682
H  H195  1  0.99440000  0.67140000  0.59570000  1.0 0.0631293682
H  H196  1  0.90430000  0.82860000  0.50560000  1.0 0.0631293682
H  H197  1  0.50560000  0.90430000  0.82860000  1.0 0.0631293682
H  H198  1  0.82860000  0.50560000  0.90430000  1.0 0.0631293682
H  H199  1  0.32860000  0.40430000  0.00560000  1.0 0.0631293682
H  H200  1  0.40430000  0.00560000  0.32860000  1.0 0.0631293682
H  H201  1  0.00560000  0.32860000  0.40430000  1.0 0.0631293682
H  H202  1  0.09570000  0.17140000  0.49440000  1.0 0.0631293682
H  H203  1  0.49440000  0.09570000  0.17140000  1.0 0.0631293682
H  H204  1  0.17140000  0.49440000  0.09570000  1.0 0.0631293682
H  H205  1  0.73790000  0.58770000  0.95690000  1.0 0.1103955441
H  H206  1  0.58770000  0.95690000  0.73790000  1.0 0.1103955441
H  H207  1  0.95690000  0.73790000  0.58770000  1.0 0.1103955441
H  H208  1  0.91230000  0.76210000  0.54310000  1.0 0.1103955441
H  H209  1  0.54310000  0.91230000  0.76210000  1.0 0.1103955441
H  H210  1  0.76210000  0.54310000  0.91230000  1.0 0.1103955441
H  H211  1  0.26210000  0.41230000  0.04310000  1.0 0.1103955441
H  H212  1  0.41230000  0.04310000  0.26210000  1.0 0.1103955441
H  H213  1  0.04310000  0.26210000  0.41230000  1.0 0.1103955441
H  H214  1  0.08770000  0.23790000  0.45690000  1.0 0.1103955441
H  H215  1  0.45690000  0.08770000  0.23790000  1.0 0.1103955441
H  H216  1  0.23790000  0.45690000  0.08770000  1.0 0.1103955441
H  H217  1  0.81950000  0.47850000  0.95540000  1.0 0.1010754595
H  H218  1  0.47850000  0.95540000  0.81950000  1.0 0.1010754595
H  H219  1  0.95540000  0.81950000  0.47850000  1.0 0.1010754595
H  H220  1  0.02150000  0.68050000  0.54460000  1.0 0.1010754595
H  H221  1  0.54460000  0.02150000  0.68050000  1.0 0.1010754595
H  H222  1  0.68050000  0.54460000  0.02150000  1.0 0.1010754595
H  H223  1  0.18050000  0.52150000  0.04460000  1.0 0.1010754595
H  H224  1  0.52150000  0.04460000  0.18050000  1.0 0.1010754595
H  H225  1  0.04460000  0.18050000  0.52150000  1.0 0.1010754595
H  H226  1  0.97850000  0.31950000  0.45540000  1.0 0.1010754595
H  H227  1  0.45540000  0.97850000  0.31950000  1.0 0.1010754595
H  H228  1  0.31950000  0.45540000  0.97850000  1.0 0.1010754595
H  H229  1  0.79490000  0.43330000  0.02130000  1.0 0.0821570228
H  H230  1  0.43330000  0.02130000  0.79490000  1.0 0.0821570228
H  H231  1  0.02130000  0.79490000  0.43330000  1.0 0.0821570228
H  H232  1  0.06670000  0.70510000  0.47870000  1.0 0.0821570228
H  H233  1  0.47870000  0.06670000  0.70510000  1.0 0.0821570228
H  H234  1  0.70510000  0.47870000  0.06670000  1.0 0.0821570228
H  H235  1  0.20510000  0.56670000  0.97870000  1.0 0.0821570228
H  H236  1  0.56670000  0.97870000  0.20510000  1.0 0.0821570228
H  H237  1  0.97870000  0.20510000  0.56670000  1.0 0.0821570228
H  H238  1  0.93330000  0.29490000  0.52130000  1.0 0.0821570228
H  H239  1  0.52130000  0.93330000  0.29490000  1.0 0.0821570228
H  H240  1  0.29490000  0.52130000  0.93330000  1.0 0.0821570228
H  H241  1  0.81510000  0.39620000  0.09820000  1.0 0.1103955441
H  H242  1  0.39620000  0.09820000  0.81510000  1.0 0.1103955441
H  H243  1  0.09820000  0.81510000  0.39620000  1.0 0.1103955441
H  H244  1  0.10380000  0.68490000  0.40180000  1.0 0.1103955441
H  H245  1  0.40180000  0.10380000  0.68490000  1.0 0.1103955441
H  H246  1  0.68490000  0.40180000  0.10380000  1.0 0.1103955441
H  H247  1  0.18490000  0.60380000  0.90180000  1.0 0.1103955441
H  H248  1  0.60380000  0.90180000  0.18490000  1.0 0.1103955441
H  H249  1  0.90180000  0.18490000  0.60380000  1.0 0.1103955441
H  H250  1  0.89620000  0.31510000  0.59820000  1.0 0.1103955441
H  H251  1  0.59820000  0.89620000  0.31510000  1.0 0.1103955441
H  H252  1  0.31510000  0.59820000  0.89620000  1.0 0.1103955441
H  H253  1  0.88140000  0.33730000  0.14510000  1.0 0.1286870339
H  H254  1  0.33730000  0.14510000  0.88140000  1.0 0.1286870339
H  H255  1  0.14510000  0.88140000  0.33730000  1.0 0.1286870339
H  H256  1  0.16270000  0.61860000  0.35490000  1.0 0.1286870339
H  H257  1  0.35490000  0.16270000  0.61860000  1.0 0.1286870339
H  H258  1  0.61860000  0.35490000  0.16270000  1.0 0.1286870339
H  H259  1  0.11860000  0.66270000  0.85490000  1.0 0.1286870339
H  H260  1  0.66270000  0.85490000  0.11860000  1.0 0.1286870339
H  H261  1  0.85490000  0.11860000  0.66270000  1.0 0.1286870339
H  H262  1  0.83730000  0.38140000  0.64510000  1.0 0.1286870339
H  H263  1  0.64510000  0.83730000  0.38140000  1.0 0.1286870339
H  H264  1  0.38140000  0.64510000  0.83730000  1.0 0.1286870339
H  H265  1  0.99890000  0.39140000  0.98280000  1.0 0.1171991933
H  H266  1  0.39140000  0.98280000  0.99890000  1.0 0.1171991933
H  H267  1  0.98280000  0.99890000  0.39140000  1.0 0.1171991933
H  H268  1  0.10860000  0.50110000  0.51720000  1.0 0.1171991933
H  H269  1  0.51720000  0.10860000  0.50110000  1.0 0.1171991933
H  H270  1  0.50110000  0.51720000  0.10860000  1.0 0.1171991933
H  H271  1  0.00110000  0.60860000  0.01720000  1.0 0.1171991933
H  H272  1  0.60860000  0.01720000  0.00110000  1.0 0.1171991933
H  H273  1  0.01720000  0.00110000  0.60860000  1.0 0.1171991933
H  H274  1  0.89140000  0.49890000  0.48280000  1.0 0.1171991933
H  H275  1  0.48280000  0.89140000  0.49890000  1.0 0.1171991933
H  H276  1  0.49890000  0.48280000  0.89140000  1.0 0.1171991933
H  H277  1  0.92980000  0.46400000  0.94360000  1.0 0.1402831
H  H278  1  0.46400000  0.94360000  0.92980000  1.0 0.1402831
H  H279  1  0.94360000  0.92980000  0.46400000  1.0 0.1402831
H  H280  1  0.03600000  0.57020000  0.55640000  1.0 0.1402831
H  H281  1  0.55640000  0.03600000  0.57020000  1.0 0.1402831
H  H282  1  0.57020000  0.55640000  0.03600000  1.0 0.1402831
H  H283  1  0.07020000  0.53600000  0.05640000  1.0 0.1402831
H  H284  1  0.53600000  0.05640000  0.07020000  1.0 0.1402831
H  H285  1  0.05640000  0.07020000  0.53600000  1.0 0.1402831
H  H286  1  0.96400000  0.42980000  0.44360000  1.0 0.1402831
H  H287  1  0.44360000  0.96400000  0.42980000  1.0 0.1402831
H  H288  1  0.42980000  0.44360000  0.96400000  1.0 0.1402831
H  H289  1  0.74650000  0.60930000  0.90780000  1.0 0.0631293682
H  H290  1  0.60930000  0.90780000  0.74650000  1.0 0.0631293682
H  H291  1  0.90780000  0.74650000  0.60930000  1.0 0.0631293682
H  H292  1  0.89070000  0.75350000  0.59220000  1.0 0.0631293682
H  H293  1  0.59220000  0.89070000  0.75350000  1.0 0.0631293682
H  H294  1  0.75350000  0.59220000  0.89070000  1.0 0.0631293682
H  H295  1  0.25350000  0.39070000  0.09220000  1.0 0.0631293682
H  H296  1  0.39070000  0.09220000  0.25350000  1.0 0.0631293682
H  H297  1  0.09220000  0.25350000  0.39070000  1.0 0.0631293682
H  H298  1  0.10930000  0.24650000  0.40780000  1.0 0.0631293682
H  H299  1  0.40780000  0.10930000  0.24650000  1.0 0.0631293682
H  H300  1  0.24650000  0.40780000  0.10930000  1.0 0.0631293682
H  H301  1  0.79200000  0.56850000  0.93430000  1.0 0.0821570228
H  H302  1  0.56850000  0.93430000  0.79200000  1.0 0.0744769367
H  H303  1  0.93430000  0.79200000  0.56850000  1.0 0.0744769367
H  H304  1  0.93150000  0.70800000  0.56570000  1.0 0.0744769367
H  H305  1  0.56570000  0.93150000  0.70800000  1.0 0.0744769367
H  H306  1  0.70800000  0.56570000  0.93150000  1.0 0.0744769367
H  H307  1  0.20800000  0.43150000  0.06570000  1.0 0.0744769367
H  H308  1  0.43150000  0.06570000  0.20800000  1.0 0.0744769367
H  H309  1  0.06570000  0.20800000  0.43150000  1.0 0.0744769367
H  H310  1  0.06850000  0.29200000  0.43430000  1.0 0.0744769367
H  H311  1  0.43430000  0.06850000  0.29200000  1.0 0.0744769367
H  H312  1  0.29200000  0.43430000  0.06850000  1.0 0.0744769367
H  H313  1  0.76370000  0.44770000  0.05070000  1.0 0.0402656138
H  H314  1  0.44770000  0.05070000  0.76370000  1.0 0.0402656138
H  H315  1  0.05070000  0.76370000  0.44770000  1.0 0.0402656138
H  H316  1  0.05230000  0.73630000  0.44930000  1.0 0.0402656138
H  H317  1  0.44930000  0.05230000  0.73630000  1.0 0.0402656138
H  H318  1  0.73630000  0.44930000  0.05230000  1.0 0.0402656138
H  H319  1  0.23630000  0.55230000  0.94930000  1.0 0.0402656138
H  H320  1  0.55230000  0.94930000  0.23630000  1.0 0.0402656138
H  H321  1  0.94930000  0.23630000  0.55230000  1.0 0.0402656138
H  H322  1  0.94770000  0.26370000  0.55070000  1.0 0.0402656138
H  H323  1  0.55070000  0.94770000  0.26370000  1.0 0.0402656138
H  H324  1  0.26370000  0.55070000  0.94770000  1.0 0.0402656138
H  H325  1  0.77150000  0.49230000  0.04150000  1.0 0.1402831
H  H326  1  0.49230000  0.04150000  0.77150000  1.0 0.1402831
H  H327  1  0.04150000  0.77150000  0.49230000  1.0 0.1402831
H  H328  1  0.00770000  0.72850000  0.45850000  1.0 0.1402831
H  H329  1  0.45850000  0.00770000  0.72850000  1.0 0.1402831
H  H330  1  0.72850000  0.45850000  0.00770000  1.0 0.1402831
H  H331  1  0.22850000  0.50770000  0.95850000  1.0 0.1402831
H  H332  1  0.50770000  0.95850000  0.22850000  1.0 0.1402831
H  H333  1  0.95850000  0.22850000  0.50770000  1.0 0.1402831
H  H334  1  0.99230000  0.27150000  0.54150000  1.0 0.1402831
H  H335  1  0.54150000  0.99230000  0.27150000  1.0 0.1402831
H  H336  1  0.27150000  0.54150000  0.99230000  1.0 0.1402831
C  C1  1  0.80694000  0.72424000  0.05054000  1.0 0.561871002
C  C2  1  0.72424000  0.05054000  0.80694000  1.0 0.561871002
C  C3  1  0.05054000  0.80694000  0.72424000  1.0 0.561871002
C  C4  1  0.77576000  0.69306000  0.44946000  1.0 0.561871002
C  C5  1  0.44946000  0.77576000  0.69306000  1.0 0.561871002
C  C6  1  0.69306000  0.44946000  0.77576000  1.0 0.561871002
C  C7  1  0.19306000  0.27576000  0.94946000  1.0 0.561871002
C  C8  1  0.27576000  0.94946000  0.19306000  1.0 0.561871002
C  C9  1  0.94946000  0.19306000  0.27576000  1.0 0.561871002
C  C10  1  0.22424000  0.30694000  0.55054000  1.0 0.561871002
C  C11  1  0.55054000  0.22424000  0.30694000  1.0 0.561871002
C  C12  1  0.30694000  0.55054000  0.22424000  1.0 0.561871002
C  C13  1  0.83427000  0.68917000  0.09107000  1.0 -0.0381702413
C  C14  1  0.68917000  0.09107000  0.83427000  1.0 -0.0381702413
C  C15  1  0.09107000  0.83427000  0.68917000  1.0 -0.0381702413
C  C16  1  0.81083000  0.66573000  0.40893000  1.0 -0.0381702413
C  C17  1  0.40893000  0.81083000  0.66573000  1.0 -0.0381702413
C  C18  1  0.66573000  0.40893000  0.81083000  1.0 -0.0381702413
C  C19  1  0.16573000  0.31083000  0.90893000  1.0 -0.0381702413
C  C20  1  0.31083000  0.90893000  0.16573000  1.0 -0.0381702413
C  C21  1  0.90893000  0.16573000  0.31083000  1.0 -0.0381702413
C  C22  1  0.18917000  0.33427000  0.59107000  1.0 -0.0381702413
C  C23  1  0.59107000  0.18917000  0.33427000  1.0 -0.0381702413
C  C24  1  0.33427000  0.59107000  0.18917000  1.0 -0.0381702413
C  C25  1  0.80245000  0.66075000  0.15185000  1.0 -0.079696637
C  C26  1  0.66075000  0.15185000  0.80245000  1.0 -0.079696637
C  C27  1  0.15185000  0.80245000  0.66075000  1.0 -0.079696637
C  C28  1  0.83925000  0.69755000  0.34815000  1.0 -0.079696637
C  C29  1  0.34815000  0.83925000  0.69755000  1.0 -0.079696637
C  C30  1  0.69755000  0.34815000  0.83925000  1.0 -0.079696637
C  C31  1  0.19755000  0.33925000  0.84815000  1.0 -0.079696637
C  C32  1  0.33925000  0.84815000  0.19755000  1.0 -0.079696637
C  C33  1  0.84815000  0.19755000  0.33925000  1.0 -0.079696637
C  C34  1  0.16075000  0.30245000  0.65185000  1.0 -0.079696637
C  C35  1  0.65185000  0.16075000  0.30245000  1.0 -0.079696637
C  C36  1  0.30245000  0.65185000  0.16075000  1.0 -0.079696637
C  C37  1  0.82683000  0.62713000  0.19073000  1.0 -0.2285596841
C  C38  1  0.62713000  0.19073000  0.82683000  1.0 -0.2285596841
C  C39  1  0.19073000  0.82683000  0.62713000  1.0 -0.2285596841
C  C40  1  0.87287000  0.67317000  0.30927000  1.0 -0.2285596841
C  C41  1  0.30927000  0.87287000  0.67317000  1.0 -0.2285596841
C  C42  1  0.67317000  0.30927000  0.87287000  1.0 -0.2285596841
C  C43  1  0.17317000  0.37287000  0.80927000  1.0 -0.2285596841
C  C44  1  0.37287000  0.80927000  0.17317000  1.0 -0.2285596841
C  C45  1  0.80927000  0.17317000  0.37287000  1.0 -0.2285596841
C  C46  1  0.12713000  0.32683000  0.69073000  1.0 -0.2285596841
C  C47  1  0.69073000  0.12713000  0.32683000  1.0 -0.2285596841
C  C48  1  0.32683000  0.69073000  0.12713000  1.0 -0.2285596841
C  C49  1  0.88062000  0.62252000  0.16942000  1.0 0.2425420532
C  C50  1  0.62252000  0.16942000  0.88062000  1.0 0.2425420532
C  C51  1  0.16942000  0.88062000  0.62252000  1.0 0.2425420532
C  C52  1  0.87748000  0.61938000  0.33058000  1.0 0.2425420532
C  C53  1  0.33058000  0.87748000  0.61938000  1.0 0.2425420532
C  C54  1  0.61938000  0.33058000  0.87748000  1.0 0.2425420532
C  C55  1  0.11938000  0.37748000  0.83058000  1.0 0.2425420532
C  C56  1  0.37748000  0.83058000  0.11938000  1.0 0.2425420532
C  C57  1  0.83058000  0.11938000  0.37748000  1.0 0.2425420532
C  C58  1  0.12252000  0.38062000  0.66942000  1.0 0.2425420532
C  C59  1  0.66942000  0.12252000  0.38062000  1.0 0.2425420532
C  C60  1  0.38062000  0.66942000  0.12252000  1.0 0.2425420532
C  C61  1  0.91039000  0.65099000  0.11019000  1.0 -0.2430292083
C  C62  1  0.65099000  0.11019000  0.91039000  1.0 -0.2430292083
C  C63  1  0.11019000  0.91039000  0.65099000  1.0 -0.2430292083
C  C64  1  0.84901000  0.58961000  0.38981000  1.0 -0.2430292083
C  C65  1  0.38981000  0.84901000  0.58961000  1.0 -0.2430292083
C  C66  1  0.58961000  0.38981000  0.84901000  1.0 -0.2430292083
C  C67  1  0.08961000  0.34901000  0.88981000  1.0 -0.2430292083
C  C68  1  0.34901000  0.88981000  0.08961000  1.0 -0.2430292083
C  C69  1  0.88981000  0.08961000  0.34901000  1.0 -0.2430292083
C  C70  1  0.15099000  0.41039000  0.61019000  1.0 -0.2430292083
C  C71  1  0.61019000  0.15099000  0.41039000  1.0 -0.2430292083
C  C72  1  0.41039000  0.61019000  0.15099000  1.0 -0.2430292083
C  C73  1  0.88559000  0.68289000  0.07249000  1.0 -0.0697395533
C  C74  1  0.68289000  0.07249000  0.88559000  1.0 -0.0697395533
C  C75  1  0.07249000  0.88559000  0.68289000  1.0 -0.0697395533
C  C76  1  0.81711000  0.61441000  0.42751000  1.0 -0.0697395533
C  C77  1  0.42751000  0.81711000  0.61441000  1.0 -0.0697395533
C  C78  1  0.61441000  0.42751000  0.81711000  1.0 -0.0697395533
C  C79  1  0.11441000  0.31711000  0.92751000  1.0 -0.0697395533
C  C80  1  0.31711000  0.92751000  0.11441000  1.0 -0.0697395533
C  C81  1  0.92751000  0.11441000  0.31711000  1.0 -0.0697395533
C  C82  1  0.18289000  0.38559000  0.57249000  1.0 -0.0697395533
C  C83  1  0.57249000  0.18289000  0.38559000  1.0 -0.0697395533
C  C84  1  0.38559000  0.57249000  0.18289000  1.0 -0.0697395533
C  C85  1  0.95358000  0.57988000  0.19598000  1.0 -0.0697395533
C  C86  1  0.57988000  0.19598000  0.95358000  1.0 -0.0697395533
C  C87  1  0.19598000  0.95358000  0.57988000  1.0 -0.0697395533
C  C88  1  0.92012000  0.54642000  0.30402000  1.0 -0.0697395533
C  C89  1  0.30402000  0.92012000  0.54642000  1.0 -0.0697395533
C  C90  1  0.54642000  0.30402000  0.92012000  1.0 -0.0697395533
C  C91  1  0.04642000  0.42012000  0.80402000  1.0 -0.0697395533
C  C92  1  0.42012000  0.80402000  0.04642000  1.0 -0.0697395533
C  C93  1  0.80402000  0.04642000  0.42012000  1.0 -0.0697395533
C  C94  1  0.07988000  0.45358000  0.69598000  1.0 -0.0697395533
C  C95  1  0.69598000  0.07988000  0.45358000  1.0 -0.0697395533
C  C96  1  0.45358000  0.69598000  0.07988000  1.0 -0.0697395533
C  C97  1  0.96825000  0.53175000  0.25000000  1.0 0.09051626
C  C98  1  0.53175000  0.25000000  0.96825000  1.0 0.09051626
C  C99  1  0.25000000  0.96825000  0.53175000  1.0 0.09051626
C  C100  1  0.03175000  0.46825000  0.75000000  1.0 0.09051626
C  C101  1  0.46825000  0.75000000  0.03175000  1.0 0.09051626
C  C102  1  0.75000000  0.03175000  0.46825000  1.0 0.09051626
C  C103  1  0.03829000  0.34119000  0.15289000  1.0 0.5886811986
C  C104  1  0.34119000  0.15289000  0.03829000  1.0 0.5886811986
C  C105  1  0.15289000  0.03829000  0.34119000  1.0 0.5886811986
C  C106  1  0.15881000  0.46171000  0.34711000  1.0 0.5886811986
C  C107  1  0.34711000  0.15881000  0.46171000  1.0 0.5886811986
C  C108  1  0.46171000  0.34711000  0.15881000  1.0 0.5886811986
C  C109  1  0.96171000  0.65881000  0.84711000  1.0 0.5886811986
C  C110  1  0.65881000  0.84711000  0.96171000  1.0 0.5886811986
C  C111  1  0.84711000  0.96171000  0.65881000  1.0 0.5886811986
C  C112  1  0.84119000  0.53829000  0.65289000  1.0 0.5886811986
C  C113  1  0.65289000  0.84119000  0.53829000  1.0 0.5886811986
C  C114  1  0.53829000  0.65289000  0.84119000  1.0 0.5886811986
C  C115  1  0.03270000  0.37390000  0.16960000  1.0 -0.0473787291
C  C116  1  0.37390000  0.16960000  0.03270000  1.0 -0.0473787291
C  C117  1  0.16960000  0.03270000  0.37390000  1.0 -0.0473787291
C  C118  1  0.12610000  0.46730000  0.33040000  1.0 -0.0473787291
C  C119  1  0.33040000  0.12610000  0.46730000  1.0 -0.0473787291
C  C120  1  0.46730000  0.33040000  0.12610000  1.0 -0.0473787291
C  C121  1  0.96730000  0.62610000  0.83040000  1.0 -0.0473787291
C  C122  1  0.62610000  0.83040000  0.96730000  1.0 -0.0473787291
C  C123  1  0.83040000  0.96730000  0.62610000  1.0 -0.0473787291
C  C124  1  0.87390000  0.53270000  0.66960000  1.0 -0.0473787291
C  C125  1  0.66960000  0.87390000  0.53270000  1.0 -0.0473787291
C  C126  1  0.53270000  0.66960000  0.87390000  1.0 -0.0473787291
C  C127  1  0.07235000  0.39725000  0.13435000  1.0 -0.0873575422
C  C128  1  0.39725000  0.13435000  0.07235000  1.0 -0.0873575422
C  C129  1  0.13435000  0.07235000  0.39725000  1.0 -0.0873575422
C  C130  1  0.10275000  0.42765000  0.36565000  1.0 -0.0873575422
C  C131  1  0.36565000  0.10275000  0.42765000  1.0 -0.0873575422
C  C132  1  0.42765000  0.36565000  0.10275000  1.0 -0.0873575422
C  C133  1  0.92765000  0.60275000  0.86565000  1.0 -0.0873575422
C  C134  1  0.60275000  0.86565000  0.92765000  1.0 -0.0873575422
C  C135  1  0.86565000  0.92765000  0.60275000  1.0 -0.0873575422
C  C136  1  0.89725000  0.57235000  0.63435000  1.0 -0.0873575422
C  C137  1  0.63435000  0.89725000  0.57235000  1.0 -0.0873575422
C  C138  1  0.57235000  0.63435000  0.89725000  1.0 -0.0873575422
C  C139  1  0.06768000  0.42308000  0.15498000  1.0 -0.2492028414
C  C140  1  0.42308000  0.15498000  0.06768000  1.0 -0.2492028414
C  C141  1  0.15498000  0.06768000  0.42308000  1.0 -0.2492028414
C  C142  1  0.07692000  0.43232000  0.34502000  1.0 -0.2492028414
C  C143  1  0.34502000  0.07692000  0.43232000  1.0 -0.2492028414
C  C144  1  0.43232000  0.34502000  0.07692000  1.0 -0.2492028414
C  C145  1  0.93232000  0.57692000  0.84502000  1.0 -0.2492028414
C  C146  1  0.57692000  0.84502000  0.93232000  1.0 -0.2492028414
C  C147  1  0.84502000  0.93232000  0.57692000  1.0 -0.2492028414
C  C148  1  0.92308000  0.56768000  0.65498000  1.0 -0.2492028414
C  C149  1  0.65498000  0.92308000  0.56768000  1.0 -0.2492028414
C  C150  1  0.56768000  0.65498000  0.92308000  1.0 -0.2492028414
C  C151  1  0.02353000  0.43223000  0.20273000  1.0 0.2425420532
C  C152  1  0.43223000  0.20273000  0.02353000  1.0 0.2425420532
C  C153  1  0.20273000  0.02353000  0.43223000  1.0 0.2425420532
C  C154  1  0.06777000  0.47647000  0.29727000  1.0 0.2425420532
C  C155  1  0.29727000  0.06777000  0.47647000  1.0 0.2425420532
C  C156  1  0.47647000  0.29727000  0.06777000  1.0 0.2425420532
C  C157  1  0.97647000  0.56777000  0.79727000  1.0 0.2425420532
C  C158  1  0.56777000  0.79727000  0.97647000  1.0 0.2425420532
C  C159  1  0.79727000  0.97647000  0.56777000  1.0 0.2425420532
C  C160  1  0.93223000  0.52353000  0.70273000  1.0 0.2425420532
C  C161  1  0.70273000  0.93223000  0.52353000  1.0 0.2425420532
C  C162  1  0.52353000  0.70273000  0.93223000  1.0 0.2425420532
C  C163  1  0.98351000  0.40711000  0.24171000  1.0 -0.2285596841
C  C164  1  0.40711000  0.24171000  0.98351000  1.0 -0.2285596841
C  C165  1  0.24171000  0.98351000  0.40711000  1.0 -0.2285596841
C  C166  1  0.09289000  0.51649000  0.25829000  1.0 -0.2285596841
C  C167  1  0.25829000  0.09289000  0.51649000  1.0 -0.2285596841
C  C168  1  0.51649000  0.25829000  0.09289000  1.0 -0.2285596841
C  C169  1  0.01649000  0.59289000  0.75829000  1.0 -0.2285596841
C  C170  1  0.59289000  0.75829000  0.01649000  1.0 -0.2285596841
C  C171  1  0.75829000  0.01649000  0.59289000  1.0 -0.2285596841
C  C172  1  0.90711000  0.48351000  0.74171000  1.0 -0.2285596841
C  C173  1  0.74171000  0.90711000  0.48351000  1.0 -0.2285596841
C  C174  1  0.48351000  0.74171000  0.90711000  1.0 -0.2285596841
C  C175  1  0.99074000  0.37734000  0.22354000  1.0 -0.079696637
C  C176  1  0.37734000  0.22354000  0.99074000  1.0 -0.079696637
C  C177  1  0.22354000  0.99074000  0.37734000  1.0 -0.079696637
C  C178  1  0.12266000  0.50926000  0.27646000  1.0 -0.079696637
C  C179  1  0.27646000  0.12266000  0.50926000  1.0 -0.079696637
C  C180  1  0.50926000  0.27646000  0.12266000  1.0 -0.079696637
C  C181  1  0.00926000  0.62266000  0.77646000  1.0 -0.079696637
C  C182  1  0.62266000  0.77646000  0.00926000  1.0 -0.079696637
C  C183  1  0.77646000  0.00926000  0.62266000  1.0 -0.079696637
C  C184  1  0.87734000  0.49074000  0.72354000  1.0 -0.079696637
C  C185  1  0.72354000  0.87734000  0.49074000  1.0 -0.079696637
C  C186  1  0.49074000  0.72354000  0.87734000  1.0 -0.079696637
C  C187  1  0.97511000  0.47491000  0.26571000  1.0 -0.079696637
C  C188  1  0.47491000  0.26571000  0.97511000  1.0 -0.079696637
C  C189  1  0.26571000  0.97511000  0.47491000  1.0 -0.079696637
C  C190  1  0.02509000  0.52489000  0.23429000  1.0 -0.079696637
C  C191  1  0.23429000  0.02509000  0.52489000  1.0 -0.079696637
C  C192  1  0.52489000  0.23429000  0.02509000  1.0 -0.079696637
C  C193  1  0.02489000  0.52509000  0.73429000  1.0 -0.079696637
C  C194  1  0.52509000  0.73429000  0.02489000  1.0 -0.079696637
C  C195  1  0.73429000  0.02489000  0.52509000  1.0 -0.079696637
C  C196  1  0.97491000  0.47511000  0.76571000  1.0 -0.079696637
C  C197  1  0.76571000  0.97491000  0.47511000  1.0 -0.079696637
C  C198  1  0.47511000  0.76571000  0.97491000  1.0 -0.079696637
C  C199  1  0.79496000  0.74326000  0.92236000  1.0 0.5776383181
C  C200  1  0.74326000  0.92236000  0.79496000  1.0 0.5776383181
C  C201  1  0.92236000  0.79496000  0.74326000  1.0 0.5776383181
C  C202  1  0.75674000  0.70504000  0.57764000  1.0 0.5776383181
C  C203  1  0.57764000  0.75674000  0.70504000  1.0 0.5776383181
C  C204  1  0.70504000  0.57764000  0.75674000  1.0 0.5776383181
C  C205  1  0.20504000  0.25674000  0.07764000  1.0 0.5776383181
C  C206  1  0.25674000  0.07764000  0.20504000  1.0 0.5776383181
C  C207  1  0.07764000  0.20504000  0.25674000  1.0 0.5776383181
C  C208  1  0.24326000  0.29496000  0.42236000  1.0 0.5776383181
C  C209  1  0.42236000  0.24326000  0.29496000  1.0 0.5776383181
C  C210  1  0.29496000  0.42236000  0.24326000  1.0 0.5776383181
C  C211  1  0.77644000  0.70504000  0.93824000  1.0 -0.0381702413
C  C212  1  0.70504000  0.93824000  0.77644000  1.0 -0.0381702413
C  C213  1  0.93824000  0.77644000  0.70504000  1.0 -0.0381702413
C  C214  1  0.79496000  0.72356000  0.56176000  1.0 -0.0381702413
C  C215  1  0.56176000  0.79496000  0.72356000  1.0 -0.0381702413
C  C216  1  0.72356000  0.56176000  0.79496000  1.0 -0.0381702413
C  C217  1  0.22356000  0.29496000  0.06176000  1.0 -0.0381702413
C  C218  1  0.29496000  0.06176000  0.22356000  1.0 -0.0381702413
C  C219  1  0.06176000  0.22356000  0.29496000  1.0 -0.0381702413
C  C220  1  0.20504000  0.27644000  0.43824000  1.0 -0.0381702413
C  C221  1  0.43824000  0.20504000  0.27644000  1.0 -0.0381702413
C  C222  1  0.27644000  0.43824000  0.20504000  1.0 -0.0381702413
C  C223  1  0.77023000  0.66033000  0.99003000  1.0 -0.0873575422
C  C224  1  0.66033000  0.99003000  0.77023000  1.0 -0.0873575422
C  C225  1  0.99003000  0.77023000  0.66033000  1.0 -0.0873575422
C  C226  1  0.83967000  0.72977000  0.50997000  1.0 -0.0873575422
C  C227  1  0.50997000  0.83967000  0.72977000  1.0 -0.0873575422
C  C228  1  0.72977000  0.50997000  0.83967000  1.0 -0.0873575422
C  C229  1  0.22977000  0.33967000  0.00997000  1.0 -0.0873575422
C  C230  1  0.33967000  0.00997000  0.22977000  1.0 -0.0873575422
C  C231  1  0.00997000  0.22977000  0.33967000  1.0 -0.0873575422
C  C232  1  0.16033000  0.27023000  0.49003000  1.0 -0.0873575422
C  C233  1  0.49003000  0.16033000  0.27023000  1.0 -0.0873575422
C  C234  1  0.27023000  0.49003000  0.16033000  1.0 -0.0873575422
C  C235  1  0.75376000  0.62306000  0.00756000  1.0 -0.2586059322
C  C236  1  0.62306000  0.00756000  0.75376000  1.0 -0.2586059322
C  C237  1  0.00756000  0.75376000  0.62306000  1.0 -0.2586059322
C  C238  1  0.87694000  0.74624000  0.49244000  1.0 -0.2586059322
C  C239  1  0.49244000  0.87694000  0.74624000  1.0 -0.2586059322
C  C240  1  0.74624000  0.49244000  0.87694000  1.0 -0.2586059322
C  C241  1  0.24624000  0.37694000  0.99244000  1.0 -0.2586059322
C  C242  1  0.37694000  0.99244000  0.24624000  1.0 -0.2586059322
C  C243  1  0.99244000  0.24624000  0.37694000  1.0 -0.2586059322
C  C244  1  0.12306000  0.25376000  0.50756000  1.0 -0.2586059322
C  C245  1  0.50756000  0.12306000  0.25376000  1.0 -0.2586059322
C  C246  1  0.25376000  0.50756000  0.12306000  1.0 -0.2586059322
C  C247  1  0.74705000  0.63215000  0.96675000  1.0 0.1718443234
C  C248  1  0.63215000  0.96675000  0.74705000  1.0 0.1718443234
C  C249  1  0.96675000  0.74705000  0.63215000  1.0 0.1718443234
C  C250  1  0.86785000  0.75295000  0.53325000  1.0 0.1718443234
C  C251  1  0.53325000  0.86785000  0.75295000  1.0 0.1718443234
C  C252  1  0.75295000  0.53325000  0.86785000  1.0 0.1718443234
C  C253  1  0.25295000  0.36785000  0.03325000  1.0 0.1718443234
C  C254  1  0.36785000  0.03325000  0.25295000  1.0 0.1718443234
C  C255  1  0.03325000  0.25295000  0.36785000  1.0 0.1718443234
C  C256  1  0.13215000  0.24705000  0.46675000  1.0 0.1718443234
C  C257  1  0.46675000  0.13215000  0.24705000  1.0 0.1718443234
C  C258  1  0.24705000  0.46675000  0.13215000  1.0 0.1718443234
C  C259  1  0.75340000  0.67770000  0.91680000  1.0 -0.3075457712
C  C260  1  0.67770000  0.91680000  0.75340000  1.0 -0.3075457712
C  C261  1  0.91680000  0.75340000  0.67770000  1.0 -0.3075457712
C  C262  1  0.82230000  0.74660000  0.58320000  1.0 -0.3075457712
C  C263  1  0.58320000  0.82230000  0.74660000  1.0 -0.3075457712
C  C264  1  0.74660000  0.58320000  0.82230000  1.0 -0.3075457712
C  C265  1  0.24660000  0.32230000  0.08320000  1.0 -0.3075457712
C  C266  1  0.32230000  0.08320000  0.24660000  1.0 -0.3075457712
C  C267  1  0.08320000  0.24660000  0.32230000  1.0 -0.3075457712
C  C268  1  0.17770000  0.25340000  0.41680000  1.0 -0.3075457712
C  C269  1  0.41680000  0.17770000  0.25340000  1.0 -0.3075457712
C  C270  1  0.25340000  0.41680000  0.17770000  1.0 -0.3075457712
C  C271  1  0.76979000  0.71519000  0.89949000  1.0 -0.079696637
C  C272  1  0.71519000  0.89949000  0.76979000  1.0 -0.079696637
C  C273  1  0.89949000  0.76979000  0.71519000  1.0 -0.079696637
C  C274  1  0.78481000  0.73021000  0.60051000  1.0 -0.079696637
C  C275  1  0.60051000  0.78481000  0.73021000  1.0 -0.079696637
C  C276  1  0.73021000  0.60051000  0.78481000  1.0 -0.079696637
C  C277  1  0.23021000  0.28481000  0.10051000  1.0 -0.079696637
C  C278  1  0.28481000  0.10051000  0.23021000  1.0 -0.079696637
C  C279  1  0.10051000  0.23021000  0.28481000  1.0 -0.079696637
C  C280  1  0.21519000  0.26979000  0.39949000  1.0 -0.079696637
C  C281  1  0.39949000  0.21519000  0.26979000  1.0 -0.079696637
C  C282  1  0.26979000  0.39949000  0.21519000  1.0 -0.079696637
C  C283  1  0.70940000  0.57260000  0.99570000  1.0 0.0093120139
C  C284  1  0.57260000  0.99570000  0.70940000  1.0 0.0093120139
C  C285  1  0.99570000  0.70940000  0.57260000  1.0 0.0093120139
C  C286  1  0.92740000  0.79060000  0.50430000  1.0 0.0093120139
C  C287  1  0.50430000  0.92740000  0.79060000  1.0 0.0093120139
C  C288  1  0.79060000  0.50430000  0.92740000  1.0 0.0093120139
C  C289  1  0.29060000  0.42740000  0.00430000  1.0 0.0093120139
C  C290  1  0.42740000  0.00430000  0.29060000  1.0 0.0093120139
C  C291  1  0.00430000  0.29060000  0.42740000  1.0 0.0093120139
C  C292  1  0.07260000  0.20940000  0.49570000  1.0 0.0093120139
C  C293  1  0.49570000  0.07260000  0.20940000  1.0 0.0093120139
C  C294  1  0.20940000  0.49570000  0.07260000  1.0 0.0093120139
C  C295  1  0.75000000  0.52545000  0.97455000  1.0 -0.0473787291
C  C296  1  0.52545000  0.97455000  0.75000000  1.0 -0.0473787291
C  C297  1  0.97455000  0.75000000  0.52545000  1.0 -0.0473787291
C  C298  1  0.25000000  0.47455000  0.02545000  1.0 -0.0473787291
C  C299  1  0.47455000  0.02545000  0.25000000  1.0 -0.0473787291
C  C300  1  0.02545000  0.25000000  0.47455000  1.0 -0.0473787291
C  C301  1  0.79692000  0.47102000  0.99692000  1.0 0.0402656138
C  C302  1  0.47102000  0.99692000  0.79692000  1.0 0.0402656138
C  C303  1  0.99692000  0.79692000  0.47102000  1.0 0.0402656138
C  C304  1  0.02898000  0.70308000  0.50308000  1.0 0.0402656138
C  C305  1  0.50308000  0.02898000  0.70308000  1.0 0.0402656138
C  C306  1  0.70308000  0.50308000  0.02898000  1.0 0.0402656138
C  C307  1  0.20308000  0.52898000  0.00308000  1.0 0.0402656138
C  C308  1  0.52898000  0.00308000  0.20308000  1.0 0.0402656138
C  C309  1  0.00308000  0.20308000  0.52898000  1.0 0.0402656138
C  C310  1  0.97102000  0.29692000  0.49692000  1.0 0.0402656138
C  C311  1  0.49692000  0.97102000  0.29692000  1.0 0.0402656138
C  C312  1  0.29692000  0.49692000  0.97102000  1.0 0.0402656138
C  C313  1  0.87769000  0.43209000  0.01409000  1.0 0.205166844
C  C314  1  0.43209000  0.01409000  0.87769000  1.0 0.205166844
C  C315  1  0.01409000  0.87769000  0.43209000  1.0 0.205166844
C  C316  1  0.06791000  0.62231000  0.48591000  1.0 0.205166844
C  C317  1  0.48591000  0.06791000  0.62231000  1.0 0.205166844
C  C318  1  0.62231000  0.48591000  0.06791000  1.0 0.205166844
C  C319  1  0.12231000  0.56791000  0.98591000  1.0 0.205166844
C  C320  1  0.56791000  0.98591000  0.12231000  1.0 0.205166844
C  C321  1  0.98591000  0.12231000  0.56791000  1.0 0.205166844
C  C322  1  0.93209000  0.37769000  0.51409000  1.0 0.205166844
C  C323  1  0.51409000  0.93209000  0.37769000  1.0 0.205166844
C  C324  1  0.37769000  0.51409000  0.93209000  1.0 0.205166844
C  C325  1  0.85169000  0.39619000  0.07779000  1.0 -0.4515082862
C  C326  1  0.39619000  0.07779000  0.85169000  1.0 -0.4515082862
C  C327  1  0.07779000  0.85169000  0.39619000  1.0 -0.4515082862
C  C328  1  0.10381000  0.64831000  0.42221000  1.0 -0.4515082862
C  C329  1  0.42221000  0.10381000  0.64831000  1.0 -0.4515082862
C  C330  1  0.64831000  0.42221000  0.10381000  1.0 -0.4515082862
C  C331  1  0.14831000  0.60381000  0.92221000  1.0 -0.4515082862
C  C332  1  0.60381000  0.92221000  0.14831000  1.0 -0.4515082862
C  C333  1  0.92221000  0.14831000  0.60381000  1.0 -0.4515082862
C  C334  1  0.89619000  0.35169000  0.57779000  1.0 -0.4515082862
C  C335  1  0.57779000  0.89619000  0.35169000  1.0 -0.4515082862
C  C336  1  0.35169000  0.57779000  0.89619000  1.0 -0.4515082862
C  C337  1  0.89301000  0.35971000  0.10451000  1.0 -0.0697395533
C  C338  1  0.35971000  0.10451000  0.89301000  1.0 -0.0697395533
C  C339  1  0.10451000  0.89301000  0.35971000  1.0 -0.0697395533
C  C340  1  0.14029000  0.60699000  0.39549000  1.0 -0.0697395533
C  C341  1  0.39549000  0.14029000  0.60699000  1.0 -0.0697395533
C  C342  1  0.60699000  0.39549000  0.14029000  1.0 -0.0697395533
C  C343  1  0.10699000  0.64029000  0.89549000  1.0 -0.0697395533
C  C344  1  0.64029000  0.89549000  0.10699000  1.0 -0.0697395533
C  C345  1  0.89549000  0.10699000  0.64029000  1.0 -0.0697395533
C  C346  1  0.85971000  0.39301000  0.60451000  1.0 -0.0697395533
C  C347  1  0.60451000  0.85971000  0.39301000  1.0 -0.0697395533
C  C348  1  0.39301000  0.60451000  0.85971000  1.0 -0.0697395533
C  C349  1  0.94605000  0.35985000  0.06975000  1.0 -0.0473787291
C  C350  1  0.35985000  0.06975000  0.94605000  1.0 -0.0473787291
C  C351  1  0.06975000  0.94605000  0.35985000  1.0 -0.0473787291
C  C352  1  0.14015000  0.55395000  0.43025000  1.0 -0.0473787291
C  C353  1  0.43025000  0.14015000  0.55395000  1.0 -0.0473787291
C  C354  1  0.55395000  0.43025000  0.14015000  1.0 -0.0473787291
C  C355  1  0.05395000  0.64015000  0.93025000  1.0 -0.0473787291
C  C356  1  0.64015000  0.93025000  0.05395000  1.0 -0.0473787291
C  C357  1  0.93025000  0.05395000  0.64015000  1.0 -0.0473787291
C  C358  1  0.85985000  0.44605000  0.56975000  1.0 -0.0473787291
C  C359  1  0.56975000  0.85985000  0.44605000  1.0 -0.0473787291
C  C360  1  0.44605000  0.56975000  0.85985000  1.0 -0.0473787291
C  C361  1  0.95990000  0.39580000  0.00810000  1.0 -0.1176847791
C  C362  1  0.39580000  0.00810000  0.95990000  1.0 -0.1176847791
C  C363  1  0.00810000  0.95990000  0.39580000  1.0 -0.1176847791
C  C364  1  0.10420000  0.54010000  0.49190000  1.0 -0.1176847791
C  C365  1  0.49190000  0.10420000  0.54010000  1.0 -0.1176847791
C  C366  1  0.54010000  0.49190000  0.10420000  1.0 -0.1176847791
C  C367  1  0.04010000  0.60420000  0.99190000  1.0 -0.1176847791
C  C368  1  0.60420000  0.99190000  0.04010000  1.0 -0.1176847791
C  C369  1  0.99190000  0.04010000  0.60420000  1.0 -0.1176847791
C  C370  1  0.89580000  0.45990000  0.50810000  1.0 -0.1176847791
C  C371  1  0.50810000  0.89580000  0.45990000  1.0 -0.1176847791
C  C372  1  0.45990000  0.50810000  0.89580000  1.0 -0.1176847791
C  C373  1  0.92120000  0.43620000  0.98270000  1.0 -0.2096770195
C  C374  1  0.43620000  0.98270000  0.92120000  1.0 -0.2096770195
C  C375  1  0.98270000  0.92120000  0.43620000  1.0 -0.2096770195
C  C376  1  0.06380000  0.57880000  0.51730000  1.0 -0.2096770195
C  C377  1  0.51730000  0.06380000  0.57880000  1.0 -0.2096770195
C  C378  1  0.57880000  0.51730000  0.06380000  1.0 -0.2096770195
C  C379  1  0.07880000  0.56380000  0.01730000  1.0 -0.2096770195
C  C380  1  0.56380000  0.01730000  0.07880000  1.0 -0.2096770195
C  C381  1  0.01730000  0.07880000  0.56380000  1.0 -0.2096770195
C  C382  1  0.93620000  0.42120000  0.48270000  1.0 -0.2096770195
C  C383  1  0.48270000  0.93620000  0.42120000  1.0 -0.2096770195
C  C384  1  0.42120000  0.48270000  0.93620000  1.0 -0.2096770195
C  C385  1  0.98981000  0.32731000  0.09081000  1.0 0.5886811986
C  C386  1  0.32731000  0.09081000  0.98981000  1.0 0.5886811986
C  C387  1  0.09081000  0.98981000  0.32731000  1.0 0.5886811986
C  C388  1  0.17269000  0.51019000  0.40919000  1.0 0.5886811986
C  C389  1  0.40919000  0.17269000  0.51019000  1.0 0.5886811986
C  C390  1  0.51019000  0.40919000  0.17269000  1.0 0.5886811986
C  C391  1  0.01019000  0.67269000  0.90919000  1.0 0.5886811986
C  C392  1  0.67269000  0.90919000  0.01019000  1.0 0.5886811986
C  C393  1  0.90919000  0.01019000  0.67269000  1.0 0.5886811986
C  C394  1  0.82731000  0.48981000  0.59081000  1.0 0.5886811986
C  C395  1  0.59081000  0.82731000  0.48981000  1.0 0.5886811986
C  C396  1  0.48981000  0.59081000  0.82731000  1.0 0.5886811986
C  C397  1  0.75263000  0.58023000  0.94373000  1.0 -0.0697395533
C  C398  1  0.58023000  0.94373000  0.75263000  1.0 -0.0697395533
C  C399  1  0.94373000  0.75263000  0.58023000  1.0 -0.0697395533
C  C400  1  0.91977000  0.74737000  0.55627000  1.0 -0.0697395533
C  C401  1  0.55627000  0.91977000  0.74737000  1.0 -0.0697395533
C  C402  1  0.74737000  0.55627000  0.91977000  1.0 -0.0697395533
C  C403  1  0.24737000  0.41977000  0.05627000  1.0 -0.0697395533
C  C404  1  0.41977000  0.05627000  0.24737000  1.0 -0.0697395533
C  C405  1  0.05627000  0.24737000  0.41977000  1.0 -0.0697395533
C  C406  1  0.08023000  0.25263000  0.44373000  1.0 -0.0697395533
C  C407  1  0.44373000  0.08023000  0.25263000  1.0 -0.0697395533
C  C408  1  0.25263000  0.44373000  0.08023000  1.0 -0.0697395533
C  C409  1  0.75000000  0.52120000  0.97880000  1.0 -0.0381702413
C  C410  1  0.52120000  0.97880000  0.75000000  1.0 -0.0347292325
C  C411  1  0.97880000  0.75000000  0.52120000  1.0 -0.0347292325
C  C412  1  0.25000000  0.47880000  0.02120000  1.0 -0.0381702413
C  C413  1  0.47880000  0.02120000  0.25000000  1.0 -0.0381702413
C  C414  1  0.02120000  0.25000000  0.47880000  1.0 -0.0381702413
C  C415  1  0.77957000  0.47707000  0.02097000  1.0 -0.0473787291
C  C416  1  0.47707000  0.02097000  0.77957000  1.0 -0.0473787291
C  C417  1  0.02097000  0.77957000  0.47707000  1.0 -0.0473787291
C  C418  1  0.02293000  0.72043000  0.47903000  1.0 -0.0473787291
C  C419  1  0.47903000  0.02293000  0.72043000  1.0 -0.0473787291
C  C420  1  0.72043000  0.47903000  0.02293000  1.0 -0.0473787291
C  C421  1  0.22043000  0.52293000  0.97903000  1.0 -0.0473787291
C  C422  1  0.52293000  0.97903000  0.22043000  1.0 -0.0473787291
C  C423  1  0.97903000  0.22043000  0.52293000  1.0 -0.0473787291
C  C424  1  0.97707000  0.27957000  0.52097000  1.0 -0.0473787291
C  C425  1  0.52097000  0.97707000  0.27957000  1.0 -0.0473787291
C  C426  1  0.27957000  0.52097000  0.97707000  1.0 -0.0473787291
O  O1  1  0.73844000  0.57604000  0.00864000  1.0 -0.1080625977
O  O2  1  0.57604000  0.00864000  0.73844000  1.0 -0.1080625977
O  O3  1  0.00864000  0.73844000  0.57604000  1.0 -0.1080625977
O  O4  1  0.92396000  0.76156000  0.49136000  1.0 -0.1080625977
O  O5  1  0.49136000  0.92396000  0.76156000  1.0 -0.1080625977
O  O6  1  0.76156000  0.49136000  0.92396000  1.0 -0.1080625977
O  O7  1  0.26156000  0.42396000  0.99136000  1.0 -0.1080625977
O  O8  1  0.42396000  0.99136000  0.26156000  1.0 -0.1080625977
O  O9  1  0.99136000  0.26156000  0.42396000  1.0 -0.1080625977
O  O10  1  0.07604000  0.23844000  0.50864000  1.0 -0.1080625977
O  O11  1  0.50864000  0.07604000  0.23844000  1.0 -0.1080625977
O  O12  1  0.23844000  0.50864000  0.07604000  1.0 -0.1080625977
O  O13  1  0.84047000  0.48567000  0.97787000  1.0 -0.0697395533
O  O14  1  0.48567000  0.97787000  0.84047000  1.0 -0.0697395533
O  O15  1  0.97787000  0.84047000  0.48567000  1.0 -0.0697395533
O  O16  1  0.01433000  0.65953000  0.52213000  1.0 -0.0697395533
O  O17  1  0.52213000  0.01433000  0.65953000  1.0 -0.0697395533
O  O18  1  0.65953000  0.52213000  0.01433000  1.0 -0.0697395533
O  O19  1  0.15953000  0.51433000  0.02213000  1.0 -0.0697395533
O  O20  1  0.51433000  0.02213000  0.15953000  1.0 -0.0697395533
O  O21  1  0.02213000  0.15953000  0.51433000  1.0 -0.0697395533
O  O22  1  0.98567000  0.34047000  0.47787000  1.0 -0.0697395533
O  O23  1  0.47787000  0.98567000  0.34047000  1.0 -0.0697395533
O  O24  1  0.34047000  0.47787000  0.98567000  1.0 -0.0697395533
O  O25  1  0.89952000  0.58752000  0.21273000  1.0 -0.1711998334
O  O26  1  0.58752000  0.21273000  0.89952000  1.0 -0.1711998334
O  O27  1  0.21273000  0.89952000  0.58752000  1.0 -0.1711998334
O  O28  1  0.91248000  0.60048000  0.28727000  1.0 -0.1711998334
O  O29  1  0.28727000  0.91248000  0.60048000  1.0 -0.1711998334
O  O30  1  0.60048000  0.28727000  0.91248000  1.0 -0.1711998334
O  O31  1  0.10048000  0.41248000  0.78727000  1.0 -0.1711998334
O  O32  1  0.41248000  0.78727000  0.10048000  1.0 -0.1711998334
O  O33  1  0.78727000  0.10048000  0.41248000  1.0 -0.1711998334
O  O34  1  0.08752000  0.39952000  0.71273000  1.0 -0.1711998334
O  O35  1  0.71273000  0.08752000  0.39952000  1.0 -0.1711998334
O  O36  1  0.39952000  0.71273000  0.08752000  1.0 -0.1711998334
O  O37  1  0.75645000  0.73200000  0.07059000  1.0 -0.4968851036
O  O38  1  0.73200000  0.07059000  0.75645000  1.0 -0.4968851036
O  O39  1  0.07059000  0.75645000  0.73200000  1.0 -0.4968851036
O  O40  1  0.76800000  0.74355000  0.42941000  1.0 -0.4968851036
O  O41  1  0.42941000  0.76800000  0.74355000  1.0 -0.4968851036
O  O42  1  0.74355000  0.42941000  0.76800000  1.0 -0.4968851036
O  O43  1  0.24355000  0.26800000  0.92941000  1.0 -0.4968851036
O  O44  1  0.26800000  0.92941000  0.24355000  1.0 -0.4968851036
O  O45  1  0.92941000  0.24355000  0.26800000  1.0 -0.4968851036
O  O46  1  0.23200000  0.25645000  0.57059000  1.0 -0.4968851036
O  O47  1  0.57059000  0.23200000  0.25645000  1.0 -0.4968851036
O  O48  1  0.25645000  0.57059000  0.23200000  1.0 -0.4968851036
O  O49  1  0.83567000  0.74887000  0.99520000  1.0 -0.5481279393
O  O50  1  0.74887000  0.99520000  0.83567000  1.0 -0.5481279393
O  O51  1  0.99520000  0.83567000  0.74887000  1.0 -0.5481279393
O  O52  1  0.75113000  0.66433000  0.50480000  1.0 -0.5481279393
O  O53  1  0.50480000  0.75113000  0.66433000  1.0 -0.5481279393
O  O54  1  0.66433000  0.50480000  0.75113000  1.0 -0.5481279393
O  O55  1  0.16433000  0.25113000  0.00480000  1.0 -0.5481279393
O  O56  1  0.25113000  0.00480000  0.16433000  1.0 -0.5481279393
O  O57  1  0.00480000  0.16433000  0.25113000  1.0 -0.5481279393
O  O58  1  0.24887000  0.33567000  0.49520000  1.0 -0.5481279393
O  O59  1  0.49520000  0.24887000  0.33567000  1.0 -0.5481279393
O  O60  1  0.33567000  0.49520000  0.24887000  1.0 -0.5481279393
O  O61  1  0.80465000  0.73725000  0.95210000  1.0 -0.4560283225
O  O62  1  0.73725000  0.95210000  0.80465000  1.0 -0.4560283225
O  O63  1  0.95210000  0.80465000  0.73725000  1.0 -0.4560283225
O  O64  1  0.76275000  0.69535000  0.54790000  1.0 -0.4560283225
O  O65  1  0.54790000  0.76275000  0.69535000  1.0 -0.4560283225
O  O66  1  0.69535000  0.54790000  0.76275000  1.0 -0.4560283225
O  O67  1  0.19535000  0.26275000  0.04790000  1.0 -0.4560283225
O  O68  1  0.26275000  0.04790000  0.19535000  1.0 -0.4560283225
O  O69  1  0.04790000  0.19535000  0.26275000  1.0 -0.4560283225
O  O70  1  0.23725000  0.30465000  0.45210000  1.0 -0.4560283225
O  O71  1  0.45210000  0.23725000  0.30465000  1.0 -0.4560283225
O  O72  1  0.30465000  0.45210000  0.23725000  1.0 -0.4560283225
O  O73  1  0.79891000  0.78581000  0.87271000  1.0 -0.3854005338
O  O74  1  0.78581000  0.87271000  0.79891000  1.0 -0.3854005338
O  O75  1  0.87271000  0.79891000  0.78581000  1.0 -0.3854005338
O  O76  1  0.71419000  0.70109000  0.62729000  1.0 -0.3854005338
O  O77  1  0.62729000  0.71419000  0.70109000  1.0 -0.3854005338
O  O78  1  0.70109000  0.62729000  0.71419000  1.0 -0.3854005338
O  O79  1  0.20109000  0.21419000  0.12729000  1.0 -0.3854005338
O  O80  1  0.21419000  0.12729000  0.20109000  1.0 -0.3854005338
O  O81  1  0.12729000  0.20109000  0.21419000  1.0 -0.3854005338
O  O82  1  0.28581000  0.29891000  0.37271000  1.0 -0.3854005338
O  O83  1  0.37271000  0.28581000  0.29891000  1.0 -0.3854005338
O  O84  1  0.29891000  0.37271000  0.28581000  1.0 -0.3854005338
O  O85  1  0.77681000  0.86453000  0.90180000  1.0 -0.738146479
O  O86  1  0.86453000  0.90180000  0.77681000  1.0 -0.738146479
O  O87  1  0.90180000  0.77681000  0.86453000  1.0 -0.738146479
O  O88  1  0.63547000  0.72319000  0.59820000  1.0 -0.738146479
O  O89  1  0.59820000  0.63547000  0.72319000  1.0 -0.738146479
O  O90  1  0.72319000  0.59820000  0.63547000  1.0 -0.738146479
O  O91  1  0.22319000  0.13547000  0.09820000  1.0 -0.738146479
O  O92  1  0.13547000  0.09820000  0.22319000  1.0 -0.738146479
O  O93  1  0.09820000  0.22319000  0.13547000  1.0 -0.738146479
O  O94  1  0.36453000  0.27681000  0.40180000  1.0 -0.738146479
O  O95  1  0.40180000  0.36453000  0.27681000  1.0 -0.738146479
O  O96  1  0.27681000  0.40180000  0.36453000  1.0 -0.738146479
O  O97  1  0.02358000  0.45988000  0.21628000  1.0 -0.2704792992
O  O98  1  0.45988000  0.21628000  0.02358000  1.0 -0.2704792992
O  O99  1  0.21628000  0.02358000  0.45988000  1.0 -0.2704792992
O  O100  1  0.04012000  0.47642000  0.28372000  1.0 -0.2704792992
O  O101  1  0.28372000  0.04012000  0.47642000  1.0 -0.2704792992
O  O102  1  0.47642000  0.28372000  0.04012000  1.0 -0.2704792992
O  O103  1  0.97642000  0.54012000  0.78372000  1.0 -0.2704792992
O  O104  1  0.54012000  0.78372000  0.97642000  1.0 -0.2704792992
O  O105  1  0.78372000  0.97642000  0.54012000  1.0 -0.2704792992
O  O106  1  0.95988000  0.52358000  0.71628000  1.0 -0.2704792992
O  O107  1  0.71628000  0.95988000  0.52358000  1.0 -0.2704792992
O  O108  1  0.52358000  0.71628000  0.95988000  1.0 -0.2704792992
O  O109  1  0.00334000  0.31799000  0.18845000  1.0 -0.5280198646
O  O110  1  0.31799000  0.18845000  0.00334000  1.0 -0.5280198646
O  O111  1  0.18845000  0.00334000  0.31799000  1.0 -0.5280198646
O  O112  1  0.18201000  0.49666000  0.31155000  1.0 -0.5280198646
O  O113  1  0.31155000  0.18201000  0.49666000  1.0 -0.5280198646
O  O114  1  0.49666000  0.31155000  0.18201000  1.0 -0.5280198646
O  O115  1  0.99666000  0.68201000  0.81155000  1.0 -0.5280198646
O  O116  1  0.68201000  0.81155000  0.99666000  1.0 -0.5280198646
O  O117  1  0.81155000  0.99666000  0.68201000  1.0 -0.5280198646
O  O118  1  0.81799000  0.50334000  0.68845000  1.0 -0.5280198646
O  O119  1  0.68845000  0.81799000  0.50334000  1.0 -0.5244419476
O  O120  1  0.50334000  0.68845000  0.81799000  1.0 -0.5280198646
O  O121  1  0.97584000  0.29198000  0.14611000  1.0 -0.5280198646
O  O122  1  0.29198000  0.14611000  0.97584000  1.0 -0.5280198646
O  O123  1  0.14611000  0.97584000  0.29198000  1.0 -0.5280198646
O  O124  1  0.20802000  0.52416000  0.35389000  1.0 -0.5280198646
O  O125  1  0.35389000  0.20802000  0.52416000  1.0 -0.5280198646
O  O126  1  0.52416000  0.35389000  0.20802000  1.0 -0.5280198646
O  O127  1  0.02416000  0.70802000  0.85389000  1.0 -0.5280198646
O  O128  1  0.70802000  0.85389000  0.02416000  1.0 -0.5280198646
O  O129  1  0.85389000  0.02416000  0.70802000  1.0 -0.5280198646
O  O130  1  0.79198000  0.47584000  0.64611000  1.0 -0.5280198646
O  O131  1  0.64611000  0.79198000  0.47584000  1.0 -0.5280198646
O  O132  1  0.47584000  0.64611000  0.79198000  1.0 -0.5280198646
O  O133  1  0.07792000  0.34124000  0.10166000  1.0 -0.5667298437
O  O134  1  0.34124000  0.10166000  0.07792000  1.0 -0.5667298437
O  O135  1  0.10166000  0.07792000  0.34124000  1.0 -0.5667298437
O  O136  1  0.15876000  0.42208000  0.39834000  1.0 -0.5667298437
O  O137  1  0.39834000  0.15876000  0.42208000  1.0 -0.5667298437
O  O138  1  0.42208000  0.39834000  0.15876000  1.0 -0.5667298437
O  O139  1  0.92208000  0.65876000  0.89834000  1.0 -0.5667298437
O  O140  1  0.65876000  0.89834000  0.92208000  1.0 -0.5667298437
O  O141  1  0.89834000  0.92208000  0.65876000  1.0 -0.5667298437
O  O142  1  0.84124000  0.57792000  0.60166000  1.0 -0.5667298437
O  O143  1  0.60166000  0.84124000  0.57792000  1.0 -0.5667298437
O  O144  1  0.57792000  0.60166000  0.84124000  1.0 -0.5667298437
O  O145  1  0.03593000  0.33443000  0.05434000  1.0 -0.5280198646
O  O146  1  0.33443000  0.05434000  0.03593000  1.0 -0.5280198646
O  O147  1  0.05434000  0.03593000  0.33443000  1.0 -0.5280198646
O  O148  1  0.16557000  0.46407000  0.44566000  1.0 -0.5280198646
O  O149  1  0.44566000  0.16557000  0.46407000  1.0 -0.5280198646
O  O150  1  0.46407000  0.44566000  0.16557000  1.0 -0.5280198646
O  O151  1  0.96407000  0.66557000  0.94566000  1.0 -0.5280198646
O  O152  1  0.66557000  0.94566000  0.96407000  1.0 -0.5280198646
O  O153  1  0.94566000  0.96407000  0.66557000  1.0 -0.5280198646
O  O154  1  0.83443000  0.53593000  0.55434000  1.0 -0.5280198646
O  O155  1  0.55434000  0.83443000  0.53593000  1.0 -0.5280198646
O  O156  1  0.53593000  0.55434000  0.83443000  1.0 -0.5280198646
O  O157  1  0.71814000  0.59854000  0.98964000  1.0 -0.0473787291
O  O158  1  0.59854000  0.98964000  0.71814000  1.0 -0.0473787291
O  O159  1  0.98964000  0.71814000  0.59854000  1.0 -0.0473787291
O  O160  1  0.90146000  0.78186000  0.51036000  1.0 -0.0473787291
O  O161  1  0.51036000  0.90146000  0.78186000  1.0 -0.0473787291
O  O162  1  0.78186000  0.51036000  0.90146000  1.0 -0.0473787291
O  O163  1  0.28186000  0.40146000  0.01036000  1.0 -0.0473787291
O  O164  1  0.40146000  0.01036000  0.28186000  1.0 -0.0473787291
O  O165  1  0.01036000  0.28186000  0.40146000  1.0 -0.0473787291
O  O166  1  0.09854000  0.21814000  0.48964000  1.0 -0.0473787291
O  O167  1  0.48964000  0.09854000  0.21814000  1.0 -0.0473787291
O  O168  1  0.21814000  0.48964000  0.09854000  1.0 -0.0473787291
O  O169  1  0.84317000  0.46377000  0.98117000  1.0 -0.0230161337
O  O170  1  0.46377000  0.98117000  0.84317000  1.0 -0.0230161337
O  O171  1  0.98117000  0.84317000  0.46377000  1.0 -0.0230161337
O  O172  1  0.03623000  0.65683000  0.51883000  1.0 -0.0230161337
O  O173  1  0.51883000  0.03623000  0.65683000  1.0 -0.0230161337
O  O174  1  0.65683000  0.51883000  0.03623000  1.0 -0.0230161337
O  O175  1  0.15683000  0.53623000  0.01883000  1.0 -0.0230161337
O  O176  1  0.53623000  0.01883000  0.15683000  1.0 -0.0230161337
O  O177  1  0.01883000  0.15683000  0.53623000  1.0 -0.0230161337
O  O178  1  0.96377000  0.34317000  0.48117000  1.0 -0.0230161337
O  O179  1  0.48117000  0.96377000  0.34317000  1.0 -0.0230161337
O  O180  1  0.34317000  0.48117000  0.96377000  1.0 -0.0230161337
