# DDEC6 charges by PACMAN v1.1 (https://github.com/mtap-research/PACMAN-charge/)
data_RABTEX_FSR_pacman
_symmetry_space_group_name_H-M   'P 1'
_cell_length_a   15.38200000
_cell_length_b   15.38200000
_cell_length_c   23.60090000
_cell_angle_alpha   90.00000000
_cell_angle_beta   90.00000000
_cell_angle_gamma   90.00000000
_symmetry_Int_Tables_number   1
_chemical_formula_structural   CdH30C25N6O5
_chemical_formula_sum   'Cd8 H240 C200 N48 O40'
_cell_volume   5584.11275173
_cell_formula_units_Z   8
loop_
 _symmetry_equiv_pos_site_id
 _symmetry_equiv_pos_as_xyz
  1  'x, y, z'
loop_
 _atom_site_type_symbol
 _atom_site_label
 _atom_site_symmetry_multiplicity
 _atom_site_fract_x
 _atom_site_fract_y
 _atom_site_fract_z
 _atom_site_occupancy
 _atom_site_charge
Cd  Cd1  1  0.37455000  0.49709000  0.41153000  1.0 0.853393887
Cd  Cd2  1  0.62545000  0.50291000  0.91153000  1.0 0.853393887
Cd  Cd3  1  0.00291000  0.87455000  0.66153000  1.0 0.853393887
Cd  Cd4  1  0.99709000  0.12545000  0.16153000  1.0 0.853393887
Cd  Cd5  1  0.12545000  0.99709000  0.83847000  1.0 0.853393887
Cd  Cd6  1  0.87455000  0.00291000  0.33847000  1.0 0.853393887
Cd  Cd7  1  0.49709000  0.37455000  0.58847000  1.0 0.853393887
Cd  Cd8  1  0.50291000  0.62545000  0.08847000  1.0 0.853393887
H  H1  1  0.35650000  0.75765000  0.29863000  1.0 0.1195996159
H  H2  1  0.30817000  0.89022000  0.26238000  1.0 0.130583275
H  H3  1  0.08593000  0.86639000  0.35574000  1.0 0.1421623647
H  H4  1  0.13797000  0.73415000  0.39138000  1.0 0.1195996159
H  H5  1  0.26303000  0.05546000  0.29488000  1.0 0.130583275
H  H6  1  0.17053000  0.16191000  0.24417000  1.0 0.130583275
H  H7  1  0.63276000  0.48697000  0.30847000  1.0 0.1195996159
H  H8  1  0.76352000  0.43827000  0.26882000  1.0 0.130583275
H  H9  1  0.73620000  0.20715000  0.35165000  1.0 0.130583275
H  H10  1  0.60302000  0.25544000  0.38791000  1.0 0.1195996159
H  H11  1  0.92174000  0.39778000  0.28562000  1.0 0.130583275
H  H12  1  0.02377000  0.31147000  0.22714000  1.0 0.130583275
H  H13  1  0.40137000  0.47248000  0.26313000  1.0 0.0688766924
H  H14  1  0.33238000  0.53531000  0.23314000  1.0 0.0688766924
H  H15  1  0.33588000  0.43446000  0.21663000  1.0 0.0688766924
H  H16  1  0.21480000  0.50028000  0.19685000  1.0 0.0875430339
H  H17  1  0.11844000  0.52402000  0.21719000  1.0 0.0688766924
H  H18  1  0.14303000  0.42547000  0.20253000  1.0 0.0790547624
H  H19  1  0.10895000  0.38791000  0.32203000  1.0 0.0875430339
H  H20  1  0.07696000  0.48678000  0.31865000  1.0 0.0460188824
H  H21  1  0.15432000  0.46045000  0.36061000  1.0 0.0688766924
H  H22  1  0.37004000  0.50936000  0.27824000  1.0 0.0688766924
H  H23  1  0.35478000  0.50464000  0.21123000  1.0 0.0688766924
H  H24  1  0.36546000  0.41703000  0.24713000  1.0 0.0688766924
H  H25  1  0.13585000  0.42332000  0.21616000  1.0 0.0995983992
H  H26  1  0.18389000  0.49810000  0.18091000  1.0 0.0320754212
H  H27  1  0.12349000  0.52307000  0.23367000  1.0 0.0995983992
H  H28  1  0.10716000  0.38894000  0.32879000  1.0 0.0875430339
H  H29  1  0.09521000  0.47620000  0.29270000  1.0 0.0644964471
H  H30  1  0.11803000  0.48162000  0.35876000  1.0 0.0402082517
H  H31  1  0.64350000  0.24235000  0.79863000  1.0 0.1195996159
H  H32  1  0.69183000  0.10978000  0.76238000  1.0 0.130583275
H  H33  1  0.91407000  0.13361000  0.85574000  1.0 0.1421623647
H  H34  1  0.86203000  0.26585000  0.89138000  1.0 0.1195996159
H  H35  1  0.73697000  0.94454000  0.79488000  1.0 0.130583275
H  H36  1  0.82947000  0.83809000  0.74417000  1.0 0.130583275
H  H37  1  0.36724000  0.51303000  0.80847000  1.0 0.1195996159
H  H38  1  0.23648000  0.56173000  0.76882000  1.0 0.130583275
H  H39  1  0.26380000  0.79285000  0.85165000  1.0 0.130583275
H  H40  1  0.39698000  0.74456000  0.88791000  1.0 0.1195996159
H  H41  1  0.07826000  0.60222000  0.78562000  1.0 0.130583275
H  H42  1  0.97623000  0.68853000  0.72714000  1.0 0.130583275
H  H43  1  0.59863000  0.52752000  0.76313000  1.0 0.0688766924
H  H44  1  0.66762000  0.46469000  0.73314000  1.0 0.0688766924
H  H45  1  0.66412000  0.56554000  0.71663000  1.0 0.0688766924
H  H46  1  0.78520000  0.49972000  0.69685000  1.0 0.0875430339
H  H47  1  0.88156000  0.47598000  0.71719000  1.0 0.0688766924
H  H48  1  0.85697000  0.57453000  0.70253000  1.0 0.0790547624
H  H49  1  0.89105000  0.61209000  0.82203000  1.0 0.0875430339
H  H50  1  0.92304000  0.51322000  0.81865000  1.0 0.0460188824
H  H51  1  0.84568000  0.53955000  0.86061000  1.0 0.0688766924
H  H52  1  0.62996000  0.49064000  0.77824000  1.0 0.0688766924
H  H53  1  0.64522000  0.49536000  0.71123000  1.0 0.0688766924
H  H54  1  0.63454000  0.58297000  0.74713000  1.0 0.0688766924
H  H55  1  0.86415000  0.57668000  0.71616000  1.0 0.0995983992
H  H56  1  0.81611000  0.50190000  0.68091000  1.0 0.0320754212
H  H57  1  0.87651000  0.47693000  0.73367000  1.0 0.0995983992
H  H58  1  0.89284000  0.61106000  0.82879000  1.0 0.0875430339
H  H59  1  0.90479000  0.52380000  0.79270000  1.0 0.0644964471
H  H60  1  0.88197000  0.51838000  0.85876000  1.0 0.0402082517
H  H61  1  0.74235000  0.85650000  0.54863000  1.0 0.1195996159
H  H62  1  0.60978000  0.80817000  0.51238000  1.0 0.130583275
H  H63  1  0.63361000  0.58593000  0.60574000  1.0 0.1421623647
H  H64  1  0.76585000  0.63797000  0.64138000  1.0 0.1195996159
H  H65  1  0.44454000  0.76303000  0.54488000  1.0 0.130583275
H  H66  1  0.33809000  0.67053000  0.49417000  1.0 0.130583275
H  H67  1  0.01303000  0.13276000  0.55847000  1.0 0.1195996159
H  H68  1  0.06173000  0.26352000  0.51882000  1.0 0.130583275
H  H69  1  0.29285000  0.23620000  0.60165000  1.0 0.130583275
H  H70  1  0.24456000  0.10302000  0.63791000  1.0 0.1195996159
H  H71  1  0.10222000  0.42174000  0.53562000  1.0 0.130583275
H  H72  1  0.18853000  0.52377000  0.47714000  1.0 0.130583275
H  H73  1  0.02752000  0.90137000  0.51313000  1.0 0.0688766924
H  H74  1  0.96469000  0.83238000  0.48314000  1.0 0.0688766924
H  H75  1  0.06554000  0.83588000  0.46663000  1.0 0.0688766924
H  H76  1  0.99972000  0.71480000  0.44685000  1.0 0.0875430339
H  H77  1  0.97598000  0.61844000  0.46719000  1.0 0.0688766924
H  H78  1  0.07453000  0.64303000  0.45253000  1.0 0.0790547624
H  H79  1  0.11209000  0.60895000  0.57203000  1.0 0.0875430339
H  H80  1  0.01322000  0.57696000  0.56865000  1.0 0.0460188824
H  H81  1  0.03955000  0.65432000  0.61061000  1.0 0.0688766924
H  H82  1  0.99064000  0.87004000  0.52824000  1.0 0.0688766924
H  H83  1  0.99536000  0.85478000  0.46123000  1.0 0.0688766924
H  H84  1  0.08297000  0.86546000  0.49713000  1.0 0.0688766924
H  H85  1  0.07668000  0.63585000  0.46616000  1.0 0.0995983992
H  H86  1  0.00190000  0.68389000  0.43091000  1.0 0.0320754212
H  H87  1  0.97693000  0.62349000  0.48367000  1.0 0.0995983992
H  H88  1  0.11106000  0.60716000  0.57879000  1.0 0.0875430339
H  H89  1  0.02380000  0.59521000  0.54270000  1.0 0.0644964471
H  H90  1  0.01838000  0.61803000  0.60876000  1.0 0.0402082517
H  H91  1  0.25765000  0.14350000  0.04863000  1.0 0.1195996159
H  H92  1  0.39022000  0.19183000  0.01238000  1.0 0.130583275
H  H93  1  0.36639000  0.41407000  0.10574000  1.0 0.1421623647
H  H94  1  0.23415000  0.36203000  0.14138000  1.0 0.1195996159
H  H95  1  0.55546000  0.23697000  0.04488000  1.0 0.130583275
H  H96  1  0.66191000  0.32947000  0.99417000  1.0 0.130583275
H  H97  1  0.98697000  0.86724000  0.05847000  1.0 0.1195996159
H  H98  1  0.93827000  0.73648000  0.01882000  1.0 0.130583275
H  H99  1  0.70715000  0.76380000  0.10165000  1.0 0.130583275
H  H100  1  0.75544000  0.89698000  0.13791000  1.0 0.1195996159
H  H101  1  0.89778000  0.57826000  0.03562000  1.0 0.130583275
H  H102  1  0.81147000  0.47623000  0.97714000  1.0 0.130583275
H  H103  1  0.97248000  0.09863000  0.01313000  1.0 0.0688766924
H  H104  1  0.03531000  0.16762000  0.98314000  1.0 0.0688766924
H  H105  1  0.93446000  0.16412000  0.96663000  1.0 0.0688766924
H  H106  1  0.00028000  0.28520000  0.94685000  1.0 0.0875430339
H  H107  1  0.02402000  0.38156000  0.96719000  1.0 0.0688766924
H  H108  1  0.92547000  0.35697000  0.95253000  1.0 0.0790547624
H  H109  1  0.88791000  0.39105000  0.07203000  1.0 0.0875430339
H  H110  1  0.98678000  0.42304000  0.06865000  1.0 0.0460188824
H  H111  1  0.96045000  0.34568000  0.11061000  1.0 0.0688766924
H  H112  1  0.00936000  0.12996000  0.02824000  1.0 0.0688766924
H  H113  1  0.00464000  0.14522000  0.96123000  1.0 0.0688766924
H  H114  1  0.91703000  0.13454000  0.99713000  1.0 0.0688766924
H  H115  1  0.92332000  0.36415000  0.96616000  1.0 0.0995983992
H  H116  1  0.99810000  0.31611000  0.93091000  1.0 0.0320754212
H  H117  1  0.02307000  0.37651000  0.98367000  1.0 0.0995983992
H  H118  1  0.88894000  0.39284000  0.07879000  1.0 0.0875430339
H  H119  1  0.97620000  0.40479000  0.04270000  1.0 0.0644964471
H  H120  1  0.98162000  0.38197000  0.10876000  1.0 0.0402082517
H  H121  1  0.14350000  0.25765000  0.95137000  1.0 0.1195996159
H  H122  1  0.19183000  0.39022000  0.98762000  1.0 0.130583275
H  H123  1  0.41407000  0.36639000  0.89426000  1.0 0.1421623647
H  H124  1  0.36203000  0.23415000  0.85862000  1.0 0.1195996159
H  H125  1  0.23697000  0.55546000  0.95512000  1.0 0.130583275
H  H126  1  0.32947000  0.66191000  0.00583000  1.0 0.130583275
H  H127  1  0.86724000  0.98697000  0.94153000  1.0 0.1195996159
H  H128  1  0.73648000  0.93827000  0.98118000  1.0 0.130583275
H  H129  1  0.76380000  0.70715000  0.89835000  1.0 0.130583275
H  H130  1  0.89698000  0.75544000  0.86209000  1.0 0.1195996159
H  H131  1  0.57826000  0.89778000  0.96438000  1.0 0.130583275
H  H132  1  0.47623000  0.81147000  0.02286000  1.0 0.130583275
H  H133  1  0.09863000  0.97248000  0.98687000  1.0 0.0688766924
H  H134  1  0.16762000  0.03531000  0.01686000  1.0 0.0688766924
H  H135  1  0.16412000  0.93446000  0.03337000  1.0 0.0688766924
H  H136  1  0.28520000  0.00028000  0.05315000  1.0 0.0875430339
H  H137  1  0.38156000  0.02402000  0.03281000  1.0 0.0688766924
H  H138  1  0.35697000  0.92547000  0.04747000  1.0 0.0790547624
H  H139  1  0.39105000  0.88791000  0.92797000  1.0 0.0875430339
H  H140  1  0.42304000  0.98678000  0.93135000  1.0 0.0460188824
H  H141  1  0.34568000  0.96045000  0.88939000  1.0 0.0688766924
H  H142  1  0.12996000  0.00936000  0.97176000  1.0 0.0688766924
H  H143  1  0.14522000  0.00464000  0.03877000  1.0 0.0688766924
H  H144  1  0.13454000  0.91703000  0.00287000  1.0 0.0688766924
H  H145  1  0.36415000  0.92332000  0.03384000  1.0 0.0995983992
H  H146  1  0.31611000  0.99810000  0.06909000  1.0 0.0320754212
H  H147  1  0.37651000  0.02307000  0.01633000  1.0 0.0995983992
H  H148  1  0.39284000  0.88894000  0.92121000  1.0 0.0875430339
H  H149  1  0.40479000  0.97620000  0.95730000  1.0 0.0644964471
H  H150  1  0.38197000  0.98162000  0.89124000  1.0 0.0402082517
H  H151  1  0.85650000  0.74235000  0.45137000  1.0 0.1195996159
H  H152  1  0.80817000  0.60978000  0.48762000  1.0 0.130583275
H  H153  1  0.58593000  0.63361000  0.39426000  1.0 0.1421623647
H  H154  1  0.63797000  0.76585000  0.35862000  1.0 0.1195996159
H  H155  1  0.76303000  0.44454000  0.45512000  1.0 0.130583275
H  H156  1  0.67053000  0.33809000  0.50583000  1.0 0.130583275
H  H157  1  0.13276000  0.01303000  0.44153000  1.0 0.1195996159
H  H158  1  0.26352000  0.06173000  0.48118000  1.0 0.130583275
H  H159  1  0.23620000  0.29285000  0.39835000  1.0 0.130583275
H  H160  1  0.10302000  0.24456000  0.36209000  1.0 0.1195996159
H  H161  1  0.42174000  0.10222000  0.46438000  1.0 0.130583275
H  H162  1  0.52377000  0.18853000  0.52286000  1.0 0.130583275
H  H163  1  0.90137000  0.02752000  0.48687000  1.0 0.0688766924
H  H164  1  0.83238000  0.96469000  0.51686000  1.0 0.0688766924
H  H165  1  0.83588000  0.06554000  0.53337000  1.0 0.0688766924
H  H166  1  0.71480000  0.99972000  0.55315000  1.0 0.0875430339
H  H167  1  0.61844000  0.97598000  0.53281000  1.0 0.0688766924
H  H168  1  0.64303000  0.07453000  0.54747000  1.0 0.0790547624
H  H169  1  0.60895000  0.11209000  0.42797000  1.0 0.0875430339
H  H170  1  0.57696000  0.01322000  0.43135000  1.0 0.0460188824
H  H171  1  0.65432000  0.03955000  0.38939000  1.0 0.0688766924
H  H172  1  0.87004000  0.99064000  0.47176000  1.0 0.0688766924
H  H173  1  0.85478000  0.99536000  0.53877000  1.0 0.0688766924
H  H174  1  0.86546000  0.08297000  0.50287000  1.0 0.0688766924
H  H175  1  0.63585000  0.07668000  0.53384000  1.0 0.0995983992
H  H176  1  0.68389000  0.00190000  0.56909000  1.0 0.0320754212
H  H177  1  0.62349000  0.97693000  0.51633000  1.0 0.0995983992
H  H178  1  0.60716000  0.11106000  0.42121000  1.0 0.0875430339
H  H179  1  0.59521000  0.02380000  0.45730000  1.0 0.0644964471
H  H180  1  0.61803000  0.01838000  0.39124000  1.0 0.0402082517
H  H181  1  0.75765000  0.35650000  0.70137000  1.0 0.1195996159
H  H182  1  0.89022000  0.30817000  0.73762000  1.0 0.130583275
H  H183  1  0.86639000  0.08593000  0.64426000  1.0 0.1421623647
H  H184  1  0.73415000  0.13797000  0.60862000  1.0 0.1195996159
H  H185  1  0.05546000  0.26303000  0.70512000  1.0 0.130583275
H  H186  1  0.16191000  0.17053000  0.75583000  1.0 0.130583275
H  H187  1  0.48697000  0.63276000  0.69153000  1.0 0.1195996159
H  H188  1  0.43827000  0.76352000  0.73118000  1.0 0.130583275
H  H189  1  0.20715000  0.73620000  0.64835000  1.0 0.130583275
H  H190  1  0.25544000  0.60302000  0.61209000  1.0 0.1195996159
H  H191  1  0.39778000  0.92174000  0.71438000  1.0 0.130583275
H  H192  1  0.31147000  0.02377000  0.77286000  1.0 0.130583275
H  H193  1  0.47248000  0.40137000  0.73687000  1.0 0.0688766924
H  H194  1  0.53531000  0.33238000  0.76686000  1.0 0.0688766924
H  H195  1  0.43446000  0.33588000  0.78337000  1.0 0.0688766924
H  H196  1  0.50028000  0.21480000  0.80315000  1.0 0.0875430339
H  H197  1  0.52402000  0.11844000  0.78281000  1.0 0.0688766924
H  H198  1  0.42547000  0.14303000  0.79747000  1.0 0.0790547624
H  H199  1  0.38791000  0.10895000  0.67797000  1.0 0.0875430339
H  H200  1  0.48678000  0.07696000  0.68135000  1.0 0.0460188824
H  H201  1  0.46045000  0.15432000  0.63939000  1.0 0.0688766924
H  H202  1  0.50936000  0.37004000  0.72176000  1.0 0.0688766924
H  H203  1  0.50464000  0.35478000  0.78877000  1.0 0.0688766924
H  H204  1  0.41703000  0.36546000  0.75287000  1.0 0.0688766924
H  H205  1  0.42332000  0.13585000  0.78384000  1.0 0.0995983992
H  H206  1  0.49810000  0.18389000  0.81909000  1.0 0.0320754212
H  H207  1  0.52307000  0.12349000  0.76633000  1.0 0.0995983992
H  H208  1  0.38894000  0.10716000  0.67121000  1.0 0.0875430339
H  H209  1  0.47620000  0.09521000  0.70730000  1.0 0.0644964471
H  H210  1  0.48162000  0.11803000  0.64124000  1.0 0.0402082517
H  H211  1  0.24235000  0.64350000  0.20137000  1.0 0.1195996159
H  H212  1  0.10978000  0.69183000  0.23762000  1.0 0.130583275
H  H213  1  0.13361000  0.91407000  0.14426000  1.0 0.1421623647
H  H214  1  0.26585000  0.86203000  0.10862000  1.0 0.1195996159
H  H215  1  0.94454000  0.73697000  0.20512000  1.0 0.130583275
H  H216  1  0.83809000  0.82947000  0.25583000  1.0 0.130583275
H  H217  1  0.51303000  0.36724000  0.19153000  1.0 0.1195996159
H  H218  1  0.56173000  0.23648000  0.23118000  1.0 0.130583275
H  H219  1  0.79285000  0.26380000  0.14835000  1.0 0.130583275
H  H220  1  0.74456000  0.39698000  0.11209000  1.0 0.1195996159
H  H221  1  0.60222000  0.07826000  0.21438000  1.0 0.130583275
H  H222  1  0.68853000  0.97623000  0.27286000  1.0 0.130583275
H  H223  1  0.52752000  0.59863000  0.23687000  1.0 0.0688766924
H  H224  1  0.46469000  0.66762000  0.26686000  1.0 0.0688766924
H  H225  1  0.56554000  0.66412000  0.28337000  1.0 0.0688766924
H  H226  1  0.49972000  0.78520000  0.30315000  1.0 0.0875430339
H  H227  1  0.47598000  0.88156000  0.28281000  1.0 0.0688766924
H  H228  1  0.57453000  0.85697000  0.29747000  1.0 0.0790547624
H  H229  1  0.61209000  0.89105000  0.17797000  1.0 0.0875430339
H  H230  1  0.51322000  0.92304000  0.18135000  1.0 0.0460188824
H  H231  1  0.53955000  0.84568000  0.13939000  1.0 0.0688766924
H  H232  1  0.49064000  0.62996000  0.22176000  1.0 0.0688766924
H  H233  1  0.49536000  0.64522000  0.28877000  1.0 0.0688766924
H  H234  1  0.58297000  0.63454000  0.25287000  1.0 0.0688766924
H  H235  1  0.57668000  0.86415000  0.28384000  1.0 0.0995983992
H  H236  1  0.50190000  0.81611000  0.31909000  1.0 0.0320754212
H  H237  1  0.47693000  0.87651000  0.26633000  1.0 0.0995983992
H  H238  1  0.61106000  0.89284000  0.17121000  1.0 0.0875430339
H  H239  1  0.52380000  0.90479000  0.20730000  1.0 0.0644964471
H  H240  1  0.51838000  0.88197000  0.14124000  1.0 0.0402082517
C  C1  1  0.28730000  0.64940000  0.37370000  1.0 0.4957408353
C  C2  1  0.25250000  0.73300000  0.34834000  1.0 -0.0369773547
C  C3  1  0.30170000  0.77990000  0.31020000  1.0 -0.1338177838
C  C4  1  0.27340000  0.85820000  0.28832000  1.0 -0.1986795942
C  C5  1  0.19220000  0.88900000  0.30552000  1.0 0.1511936977
C  C6  1  0.14070000  0.84420000  0.34410000  1.0 -0.1986795942
C  C7  1  0.17210000  0.76600000  0.36500000  1.0 -0.1391169161
C  C8  1  0.20700000  0.04490000  0.27950000  1.0 -0.1001191393
C  C9  1  0.15590000  0.10290000  0.25130000  1.0 -0.0309809407
C  C10  1  0.08490000  0.98230000  0.25355000  1.0 0.1881489425
C  C11  1  0.51930000  0.40780000  0.37512000  1.0 0.5287301585
C  C12  1  0.60400000  0.37510000  0.35122000  1.0 -0.0309809407
C  C13  1  0.65300000  0.42990000  0.31640000  1.0 -0.1001191393
C  C14  1  0.73110000  0.40140000  0.29327000  1.0 -0.1986795942
C  C15  1  0.76150000  0.31830000  0.30629000  1.0 0.1588755443
C  C16  1  0.71470000  0.26320000  0.34225000  1.0 -0.1928785288
C  C17  1  0.63590000  0.29250000  0.36390000  1.0 -0.1056985998
C  C18  1  0.91240000  0.34060000  0.27170000  1.0 -0.1195823283
C  C19  1  0.96790000  0.29300000  0.23930000  1.0 -0.0512521758
C  C20  1  0.85360000  0.21370000  0.25218000  1.0 0.1996517691
C  C21  1  0.27700000  0.45640000  0.29370000  1.0 0.247584407
C  C22  1  0.34240000  0.47640000  0.24760000  1.0 -0.3374815297
C  C23  1  0.16450000  0.48010000  0.21870000  1.0 -0.3012077653
C  C24  1  0.12750000  0.44880000  0.32370000  1.0 -0.357169538
C  C25  1  0.23260000  0.44820000  0.30830000  1.0 0.2412921514
C  C26  1  0.71270000  0.35060000  0.87370000  1.0 0.4947942539
C  C27  1  0.74750000  0.26700000  0.84834000  1.0 -0.0369773547
C  C28  1  0.69830000  0.22010000  0.81020000  1.0 -0.1338177838
C  C29  1  0.72660000  0.14180000  0.78832000  1.0 -0.1986795942
C  C30  1  0.80780000  0.11100000  0.80552000  1.0 0.1511936977
C  C31  1  0.85930000  0.15580000  0.84410000  1.0 -0.1986795942
C  C32  1  0.82790000  0.23400000  0.86500000  1.0 -0.1391169161
C  C33  1  0.79300000  0.95510000  0.77950000  1.0 -0.1001191393
C  C34  1  0.84410000  0.89710000  0.75130000  1.0 -0.0309809407
C  C35  1  0.91510000  0.01770000  0.75355000  1.0 0.1881489425
C  C36  1  0.48070000  0.59220000  0.87512000  1.0 0.5287301585
C  C37  1  0.39600000  0.62490000  0.85122000  1.0 -0.0309809407
C  C38  1  0.34700000  0.57010000  0.81640000  1.0 -0.1001191393
C  C39  1  0.26890000  0.59860000  0.79327000  1.0 -0.1986795942
C  C40  1  0.23850000  0.68170000  0.80629000  1.0 0.1588755443
C  C41  1  0.28530000  0.73680000  0.84225000  1.0 -0.1928785288
C  C42  1  0.36410000  0.70750000  0.86390000  1.0 -0.1056985998
C  C43  1  0.08760000  0.65940000  0.77170000  1.0 -0.1195823283
C  C44  1  0.03210000  0.70700000  0.73930000  1.0 -0.0512521758
C  C45  1  0.14640000  0.78630000  0.75218000  1.0 0.1996517691
C  C46  1  0.72300000  0.54360000  0.79370000  1.0 0.247584407
C  C47  1  0.65760000  0.52360000  0.74760000  1.0 -0.3374815297
C  C48  1  0.83550000  0.51990000  0.71870000  1.0 -0.3012077653
C  C49  1  0.87250000  0.55120000  0.82370000  1.0 -0.357169538
C  C50  1  0.76740000  0.55180000  0.80830000  1.0 0.2412921514
C  C51  1  0.85060000  0.78730000  0.62370000  1.0 0.4947942539
C  C52  1  0.76700000  0.75250000  0.59834000  1.0 -0.0369773547
C  C53  1  0.72010000  0.80170000  0.56020000  1.0 -0.1338177838
C  C54  1  0.64180000  0.77340000  0.53832000  1.0 -0.1986795942
C  C55  1  0.61100000  0.69220000  0.55552000  1.0 0.1511936977
C  C56  1  0.65580000  0.64070000  0.59410000  1.0 -0.1986795942
C  C57  1  0.73400000  0.67210000  0.61500000  1.0 -0.1391169161
C  C58  1  0.45510000  0.70700000  0.52950000  1.0 -0.1001191393
C  C59  1  0.39710000  0.65590000  0.50130000  1.0 -0.0309809407
C  C60  1  0.51770000  0.58490000  0.50355000  1.0 0.1881489425
C  C61  1  0.09220000  0.01930000  0.62512000  1.0 0.5287301585
C  C62  1  0.12490000  0.10400000  0.60122000  1.0 -0.0309809407
C  C63  1  0.07010000  0.15300000  0.56640000  1.0 -0.1001191393
C  C64  1  0.09860000  0.23110000  0.54327000  1.0 -0.1986795942
C  C65  1  0.18170000  0.26150000  0.55629000  1.0 0.1588755443
C  C66  1  0.23680000  0.21470000  0.59225000  1.0 -0.1928785288
C  C67  1  0.20750000  0.13590000  0.61390000  1.0 -0.1056985998
C  C68  1  0.15940000  0.41240000  0.52170000  1.0 -0.1195823283
C  C69  1  0.20700000  0.46790000  0.48930000  1.0 -0.0512521758
C  C70  1  0.28630000  0.35360000  0.50218000  1.0 0.1996517691
C  C71  1  0.04360000  0.77700000  0.54370000  1.0 0.247584407
C  C72  1  0.02360000  0.84240000  0.49760000  1.0 -0.3374815297
C  C73  1  0.01990000  0.66450000  0.46870000  1.0 -0.3012077653
C  C74  1  0.05120000  0.62750000  0.57370000  1.0 -0.357169538
C  C75  1  0.05180000  0.73260000  0.55830000  1.0 0.2412921514
C  C76  1  0.14940000  0.21270000  0.12370000  1.0 0.4957408353
C  C77  1  0.23300000  0.24750000  0.09834000  1.0 -0.0369773547
C  C78  1  0.27990000  0.19830000  0.06020000  1.0 -0.1338177838
C  C79  1  0.35820000  0.22660000  0.03832000  1.0 -0.1986795942
C  C80  1  0.38900000  0.30780000  0.05552000  1.0 0.1511936977
C  C81  1  0.34420000  0.35930000  0.09410000  1.0 -0.1986795942
C  C82  1  0.26600000  0.32790000  0.11500000  1.0 -0.1391169161
C  C83  1  0.54490000  0.29300000  0.02950000  1.0 -0.1001191393
C  C84  1  0.60290000  0.34410000  0.00130000  1.0 -0.0309809407
C  C85  1  0.48230000  0.41510000  0.00355000  1.0 0.1881489425
C  C86  1  0.90780000  0.98070000  0.12512000  1.0 0.5287301585
C  C87  1  0.87510000  0.89600000  0.10122000  1.0 -0.0309809407
C  C88  1  0.92990000  0.84700000  0.06640000  1.0 -0.1001191393
C  C89  1  0.90140000  0.76890000  0.04327000  1.0 -0.1986795942
C  C90  1  0.81830000  0.73850000  0.05629000  1.0 0.1588755443
C  C91  1  0.76320000  0.78530000  0.09225000  1.0 -0.1928785288
C  C92  1  0.79250000  0.86410000  0.11390000  1.0 -0.1056985998
C  C93  1  0.84060000  0.58760000  0.02170000  1.0 -0.1195823283
C  C94  1  0.79300000  0.53210000  0.98930000  1.0 -0.0512521758
C  C95  1  0.71370000  0.64640000  0.00218000  1.0 0.1996517691
C  C96  1  0.95640000  0.22300000  0.04370000  1.0 0.247584407
C  C97  1  0.97640000  0.15760000  0.99760000  1.0 -0.3374815297
C  C98  1  0.98010000  0.33550000  0.96870000  1.0 -0.3012077653
C  C99  1  0.94880000  0.37250000  0.07370000  1.0 -0.357169538
C  C100  1  0.94820000  0.26740000  0.05830000  1.0 0.2412921514
C  C101  1  0.21270000  0.14940000  0.87630000  1.0 0.4957408353
C  C102  1  0.24750000  0.23300000  0.90166000  1.0 -0.0369773547
C  C103  1  0.19830000  0.27990000  0.93980000  1.0 -0.1338177838
C  C104  1  0.22660000  0.35820000  0.96168000  1.0 -0.1986795942
C  C105  1  0.30780000  0.38900000  0.94448000  1.0 0.1511936977
C  C106  1  0.35930000  0.34420000  0.90590000  1.0 -0.1986795942
C  C107  1  0.32790000  0.26600000  0.88500000  1.0 -0.1391169161
C  C108  1  0.29300000  0.54490000  0.97050000  1.0 -0.1001191393
C  C109  1  0.34410000  0.60290000  0.99870000  1.0 -0.0309809407
C  C110  1  0.41510000  0.48230000  0.99645000  1.0 0.1881489425
C  C111  1  0.98070000  0.90780000  0.87488000  1.0 0.5287301585
C  C112  1  0.89600000  0.87510000  0.89878000  1.0 -0.0309809407
C  C113  1  0.84700000  0.92990000  0.93360000  1.0 -0.1001191393
C  C114  1  0.76890000  0.90140000  0.95673000  1.0 -0.1986795942
C  C115  1  0.73850000  0.81830000  0.94371000  1.0 0.1588755443
C  C116  1  0.78530000  0.76320000  0.90775000  1.0 -0.1928785288
C  C117  1  0.86410000  0.79250000  0.88610000  1.0 -0.1056985998
C  C118  1  0.58760000  0.84060000  0.97830000  1.0 -0.1195823283
C  C119  1  0.53210000  0.79300000  0.01070000  1.0 -0.0512521758
C  C120  1  0.64640000  0.71370000  0.99782000  1.0 0.1996517691
C  C121  1  0.22300000  0.95640000  0.95630000  1.0 0.247584407
C  C122  1  0.15760000  0.97640000  0.00240000  1.0 -0.3374815297
C  C123  1  0.33550000  0.98010000  0.03130000  1.0 -0.3012077653
C  C124  1  0.37250000  0.94880000  0.92630000  1.0 -0.357169538
C  C125  1  0.26740000  0.94820000  0.94170000  1.0 0.2412921514
C  C126  1  0.78730000  0.85060000  0.37630000  1.0 0.4947942539
C  C127  1  0.75250000  0.76700000  0.40166000  1.0 -0.0369773547
C  C128  1  0.80170000  0.72010000  0.43980000  1.0 -0.1338177838
C  C129  1  0.77340000  0.64180000  0.46168000  1.0 -0.1986795942
C  C130  1  0.69220000  0.61100000  0.44448000  1.0 0.1511936977
C  C131  1  0.64070000  0.65580000  0.40590000  1.0 -0.1986795942
C  C132  1  0.67210000  0.73400000  0.38500000  1.0 -0.1391169161
C  C133  1  0.70700000  0.45510000  0.47050000  1.0 -0.1001191393
C  C134  1  0.65590000  0.39710000  0.49870000  1.0 -0.0309809407
C  C135  1  0.58490000  0.51770000  0.49645000  1.0 0.1881489425
C  C136  1  0.01930000  0.09220000  0.37488000  1.0 0.5287301585
C  C137  1  0.10400000  0.12490000  0.39878000  1.0 -0.0309809407
C  C138  1  0.15300000  0.07010000  0.43360000  1.0 -0.1001191393
C  C139  1  0.23110000  0.09860000  0.45673000  1.0 -0.1986795942
C  C140  1  0.26150000  0.18170000  0.44371000  1.0 0.1588755443
C  C141  1  0.21470000  0.23680000  0.40775000  1.0 -0.1928785288
C  C142  1  0.13590000  0.20750000  0.38610000  1.0 -0.1056985998
C  C143  1  0.41240000  0.15940000  0.47830000  1.0 -0.1195823283
C  C144  1  0.46790000  0.20700000  0.51070000  1.0 -0.0512521758
C  C145  1  0.35360000  0.28630000  0.49782000  1.0 0.1996517691
C  C146  1  0.77700000  0.04360000  0.45630000  1.0 0.247584407
C  C147  1  0.84240000  0.02360000  0.50240000  1.0 -0.3374815297
C  C148  1  0.66450000  0.01990000  0.53130000  1.0 -0.3012077653
C  C149  1  0.62750000  0.05120000  0.42630000  1.0 -0.357169538
C  C150  1  0.73260000  0.05180000  0.44170000  1.0 0.2412921514
C  C151  1  0.64940000  0.28730000  0.62630000  1.0 0.4957408353
C  C152  1  0.73300000  0.25250000  0.65166000  1.0 -0.0369773547
C  C153  1  0.77990000  0.30170000  0.68980000  1.0 -0.1338177838
C  C154  1  0.85820000  0.27340000  0.71168000  1.0 -0.1986795942
C  C155  1  0.88900000  0.19220000  0.69448000  1.0 0.1511936977
C  C156  1  0.84420000  0.14070000  0.65590000  1.0 -0.1986795942
C  C157  1  0.76600000  0.17210000  0.63500000  1.0 -0.1391169161
C  C158  1  0.04490000  0.20700000  0.72050000  1.0 -0.1001191393
C  C159  1  0.10290000  0.15590000  0.74870000  1.0 -0.0309809407
C  C160  1  0.98230000  0.08490000  0.74645000  1.0 0.1881489425
C  C161  1  0.40780000  0.51930000  0.62488000  1.0 0.5287301585
C  C162  1  0.37510000  0.60400000  0.64878000  1.0 -0.0309809407
C  C163  1  0.42990000  0.65300000  0.68360000  1.0 -0.1001191393
C  C164  1  0.40140000  0.73110000  0.70673000  1.0 -0.1986795942
C  C165  1  0.31830000  0.76150000  0.69371000  1.0 0.1588755443
C  C166  1  0.26320000  0.71470000  0.65775000  1.0 -0.1928785288
C  C167  1  0.29250000  0.63590000  0.63610000  1.0 -0.1056985998
C  C168  1  0.34060000  0.91240000  0.72830000  1.0 -0.1195823283
C  C169  1  0.29300000  0.96790000  0.76070000  1.0 -0.0512521758
C  C170  1  0.21370000  0.85360000  0.74782000  1.0 0.1996517691
C  C171  1  0.45640000  0.27700000  0.70630000  1.0 0.247584407
C  C172  1  0.47640000  0.34240000  0.75240000  1.0 -0.3374815297
C  C173  1  0.48010000  0.16450000  0.78130000  1.0 -0.3012077653
C  C174  1  0.44880000  0.12750000  0.67630000  1.0 -0.357169538
C  C175  1  0.44820000  0.23260000  0.69170000  1.0 0.2412921514
C  C176  1  0.35060000  0.71270000  0.12630000  1.0 0.4947942539
C  C177  1  0.26700000  0.74750000  0.15166000  1.0 -0.0369773547
C  C178  1  0.22010000  0.69830000  0.18980000  1.0 -0.1338177838
C  C179  1  0.14180000  0.72660000  0.21168000  1.0 -0.1986795942
C  C180  1  0.11100000  0.80780000  0.19448000  1.0 0.1511936977
C  C181  1  0.15580000  0.85930000  0.15590000  1.0 -0.1986795942
C  C182  1  0.23400000  0.82790000  0.13500000  1.0 -0.1391169161
C  C183  1  0.95510000  0.79300000  0.22050000  1.0 -0.1001191393
C  C184  1  0.89710000  0.84410000  0.24870000  1.0 -0.0309809407
C  C185  1  0.01770000  0.91510000  0.24645000  1.0 0.1881489425
C  C186  1  0.59220000  0.48070000  0.12488000  1.0 0.5287301585
C  C187  1  0.62490000  0.39600000  0.14878000  1.0 -0.0309809407
C  C188  1  0.57010000  0.34700000  0.18360000  1.0 -0.1001191393
C  C189  1  0.59860000  0.26890000  0.20673000  1.0 -0.1986795942
C  C190  1  0.68170000  0.23850000  0.19371000  1.0 0.1588755443
C  C191  1  0.73680000  0.28530000  0.15775000  1.0 -0.1928785288
C  C192  1  0.70750000  0.36410000  0.13610000  1.0 -0.1056985998
C  C193  1  0.65940000  0.08760000  0.22830000  1.0 -0.1195823283
C  C194  1  0.70700000  0.03210000  0.26070000  1.0 -0.0512521758
C  C195  1  0.78630000  0.14640000  0.24782000  1.0 0.1996517691
C  C196  1  0.54360000  0.72300000  0.20630000  1.0 0.247584407
C  C197  1  0.52360000  0.65760000  0.25240000  1.0 -0.3374815297
C  C198  1  0.51990000  0.83550000  0.28130000  1.0 -0.3012077653
C  C199  1  0.55120000  0.87250000  0.17630000  1.0 -0.357169538
C  C200  1  0.55180000  0.76740000  0.19170000  1.0 0.2412921514
N  N1  1  0.83980000  0.28960000  0.28020000  1.0 -0.0309809407
N  N2  1  0.93050000  0.21350000  0.22693000  1.0 -0.3374815297
N  N3  1  0.16170000  0.96890000  0.28118000  1.0 -0.0309809407
N  N4  1  0.08010000  0.06310000  0.23476000  1.0 -0.3287133344
N  N5  1  0.19080000  0.46560000  0.27870000  1.0 0.0875430339
N  N6  1  0.24150000  0.47360000  0.25740000  1.0 0.0402082517
N  N7  1  0.16020000  0.71040000  0.78020000  1.0 -0.0309809407
N  N8  1  0.06950000  0.78650000  0.72693000  1.0 -0.3374815297
N  N9  1  0.83830000  0.03110000  0.78118000  1.0 -0.0309809407
N  N10  1  0.91990000  0.93690000  0.73476000  1.0 -0.3287133344
N  N11  1  0.80920000  0.53440000  0.77870000  1.0 0.0875430339
N  N12  1  0.75850000  0.52640000  0.75740000  1.0 0.0402082517
N  N13  1  0.21040000  0.33980000  0.53020000  1.0 -0.0309809407
N  N14  1  0.28650000  0.43050000  0.47693000  1.0 -0.3374815297
N  N15  1  0.53110000  0.66170000  0.53118000  1.0 -0.0309809407
N  N16  1  0.43690000  0.58010000  0.48476000  1.0 -0.3287133344
N  N17  1  0.03440000  0.69080000  0.52870000  1.0 0.0995983992
N  N18  1  0.02640000  0.74150000  0.50740000  1.0 0.0402082517
N  N19  1  0.78960000  0.66020000  0.03020000  1.0 -0.0309809407
N  N20  1  0.71350000  0.56950000  0.97693000  1.0 -0.3374815297
N  N21  1  0.46890000  0.33830000  0.03118000  1.0 -0.0309809407
N  N22  1  0.56310000  0.41990000  0.98476000  1.0 -0.3287133344
N  N23  1  0.96560000  0.30920000  0.02870000  1.0 0.0875430339
N  N24  1  0.97360000  0.25850000  0.00740000  1.0 0.0402082517
N  N25  1  0.66020000  0.78960000  0.96980000  1.0 -0.0309809407
N  N26  1  0.56950000  0.71350000  0.02307000  1.0 -0.3374815297
N  N27  1  0.33830000  0.46890000  0.96882000  1.0 -0.0309809407
N  N28  1  0.41990000  0.56310000  0.01524000  1.0 -0.3287133344
N  N29  1  0.30920000  0.96560000  0.97130000  1.0 0.0995983992
N  N30  1  0.25850000  0.97360000  0.99260000  1.0 0.0402082517
N  N31  1  0.33980000  0.21040000  0.46980000  1.0 -0.0309809407
N  N32  1  0.43050000  0.28650000  0.52307000  1.0 -0.3374815297
N  N33  1  0.66170000  0.53110000  0.46882000  1.0 -0.0309809407
N  N34  1  0.58010000  0.43690000  0.51524000  1.0 -0.3287133344
N  N35  1  0.69080000  0.03440000  0.47130000  1.0 0.0995983992
N  N36  1  0.74150000  0.02640000  0.49260000  1.0 0.0402082517
N  N37  1  0.28960000  0.83980000  0.71980000  1.0 -0.0309809407
N  N38  1  0.21350000  0.93050000  0.77307000  1.0 -0.3374815297
N  N39  1  0.96890000  0.16170000  0.71882000  1.0 -0.0309809407
N  N40  1  0.06310000  0.08010000  0.76524000  1.0 -0.3287133344
N  N41  1  0.46560000  0.19080000  0.72130000  1.0 0.0875430339
N  N42  1  0.47360000  0.24150000  0.74260000  1.0 0.0402082517
N  N43  1  0.71040000  0.16020000  0.21980000  1.0 -0.0309809407
N  N44  1  0.78650000  0.06950000  0.27307000  1.0 -0.3374815297
N  N45  1  0.03110000  0.83830000  0.21882000  1.0 -0.0309809407
N  N46  1  0.93690000  0.91990000  0.26524000  1.0 -0.3287133344
N  N47  1  0.53440000  0.80920000  0.22130000  1.0 0.0875430339
N  N48  1  0.52640000  0.75850000  0.24260000  1.0 0.0402082517
O  O1  1  0.35910000  0.62150000  0.35631000  1.0 -0.5432857827
O  O2  1  0.24440000  0.61300000  0.41133000  1.0 -0.5592693383
O  O3  1  0.50530000  0.48840000  0.37023000  1.0 -0.5592693383
O  O4  1  0.46800000  0.35560000  0.39774000  1.0 -0.5592693383
O  O5  1  0.29110000  0.42870000  0.34280000  1.0 -0.4223434881
O  O6  1  0.64090000  0.37850000  0.85631000  1.0 -0.5432857827
O  O7  1  0.75560000  0.38700000  0.91133000  1.0 -0.5592693383
O  O8  1  0.49470000  0.51160000  0.87023000  1.0 -0.5651222423
O  O9  1  0.53200000  0.64440000  0.89774000  1.0 -0.5592693383
O  O10  1  0.70890000  0.57130000  0.84280000  1.0 -0.4223434881
O  O11  1  0.87850000  0.85910000  0.60631000  1.0 -0.5432857827
O  O12  1  0.88700000  0.74440000  0.66133000  1.0 -0.5592693383
O  O13  1  0.01160000  0.00530000  0.62023000  1.0 -0.5592693383
O  O14  1  0.14440000  0.96800000  0.64774000  1.0 -0.5592693383
O  O15  1  0.07130000  0.79110000  0.59280000  1.0 -0.4223434881
O  O16  1  0.12150000  0.14090000  0.10631000  1.0 -0.5432857827
O  O17  1  0.11300000  0.25560000  0.16133000  1.0 -0.5592693383
O  O18  1  0.98840000  0.99470000  0.12023000  1.0 -0.5592693383
O  O19  1  0.85560000  0.03200000  0.14774000  1.0 -0.5592693383
O  O20  1  0.92870000  0.20890000  0.09280000  1.0 -0.4223434881
O  O21  1  0.14090000  0.12150000  0.89369000  1.0 -0.5432857827
O  O22  1  0.25560000  0.11300000  0.83867000  1.0 -0.5592693383
O  O23  1  0.99470000  0.98840000  0.87977000  1.0 -0.5592693383
O  O24  1  0.03200000  0.85560000  0.85226000  1.0 -0.5592693383
O  O25  1  0.20890000  0.92870000  0.90720000  1.0 -0.4223434881
O  O26  1  0.85910000  0.87850000  0.39369000  1.0 -0.5432857827
O  O27  1  0.74440000  0.88700000  0.33867000  1.0 -0.5592693383
O  O28  1  0.00530000  0.01160000  0.37977000  1.0 -0.5592693383
O  O29  1  0.96800000  0.14440000  0.35226000  1.0 -0.5592693383
O  O30  1  0.79110000  0.07130000  0.40720000  1.0 -0.4223434881
O  O31  1  0.62150000  0.35910000  0.64369000  1.0 -0.5432857827
O  O32  1  0.61300000  0.24440000  0.58867000  1.0 -0.5592693383
O  O33  1  0.48840000  0.50530000  0.62977000  1.0 -0.5592693383
O  O34  1  0.35560000  0.46800000  0.60226000  1.0 -0.5592693383
O  O35  1  0.42870000  0.29110000  0.65720000  1.0 -0.4223434881
O  O36  1  0.37850000  0.64090000  0.14369000  1.0 -0.5432857827
O  O37  1  0.38700000  0.75560000  0.08867000  1.0 -0.5592693383
O  O38  1  0.51160000  0.49470000  0.12977000  1.0 -0.5592693383
O  O39  1  0.64440000  0.53200000  0.10226000  1.0 -0.5592693383
O  O40  1  0.57130000  0.70890000  0.15720000  1.0 -0.4223434881
