# DDEC6 charges by PACMAN v1.1 (https://github.com/mtap-research/PACMAN-charge/)
data_RACHUA_ASR_pacman
_symmetry_space_group_name_H-M   'P 1'
_cell_length_a   21.56000000
_cell_length_b   21.56000000
_cell_length_c   77.81400000
_cell_angle_alpha   90.00000000
_cell_angle_beta   90.00000000
_cell_angle_gamma   120.00000000
_symmetry_Int_Tables_number   1
_chemical_formula_structural   Zn4H42C57O13
_chemical_formula_sum   'Zn48 H504 C684 O156'
_cell_volume   31324.62534500
_cell_formula_units_Z   12
loop_
 _symmetry_equiv_pos_site_id
 _symmetry_equiv_pos_as_xyz
  1  'x, y, z'
loop_
 _atom_site_type_symbol
 _atom_site_label
 _atom_site_symmetry_multiplicity
 _atom_site_fract_x
 _atom_site_fract_y
 _atom_site_fract_z
 _atom_site_occupancy
 _atom_site_charge
Zn  Zn1  1  0.64154000  0.23016000  0.52114000  1.0 0.9287182702
Zn  Zn2  1  0.58862000  0.35846000  0.85447000  1.0 0.9287182702
Zn  Zn3  1  0.76984000  0.41138000  0.18780000  1.0 0.9287182702
Zn  Zn4  1  0.35846000  0.76984000  0.02114000  1.0 0.9287182702
Zn  Zn5  1  0.41138000  0.64154000  0.35447000  1.0 0.9287182702
Zn  Zn6  1  0.23016000  0.58862000  0.68780000  1.0 0.9287182702
Zn  Zn7  1  0.65477000  0.32749000  0.55203000  1.0 0.9287182702
Zn  Zn8  1  0.67272000  0.34523000  0.88536000  1.0 0.9287182702
Zn  Zn9  1  0.67251000  0.32728000  0.21869000  1.0 0.9287182702
Zn  Zn10  1  0.34523000  0.67251000  0.05203000  1.0 0.9287182702
Zn  Zn11  1  0.32728000  0.65477000  0.38536000  1.0 0.9287182702
Zn  Zn12  1  0.32749000  0.67272000  0.71869000  1.0 0.9287182702
Zn  Zn13  1  0.56960000  0.32795000  0.51978000  1.0 0.9358058039
Zn  Zn14  1  0.75835000  0.43040000  0.85311000  1.0 0.9358058039
Zn  Zn15  1  0.67205000  0.24165000  0.18644000  1.0 0.9358058039
Zn  Zn16  1  0.43040000  0.67205000  0.01978000  1.0 0.9358058039
Zn  Zn17  1  0.24165000  0.56960000  0.35311000  1.0 0.9358058039
Zn  Zn18  1  0.32795000  0.75835000  0.68644000  1.0 0.9358058039
Zn  Zn19  1  0.74265000  0.40206000  0.51816000  1.0 0.9784698251
Zn  Zn20  1  0.65941000  0.25735000  0.85149000  1.0 0.9784698251
Zn  Zn21  1  0.59794000  0.34059000  0.18482000  1.0 0.9784698251
Zn  Zn22  1  0.25735000  0.59794000  0.01816000  1.0 0.9784698251
Zn  Zn23  1  0.34059000  0.74265000  0.35149000  1.0 0.9784698251
Zn  Zn24  1  0.40206000  0.65941000  0.68482000  1.0 0.9784698251
Zn  Zn25  1  0.23016000  0.64154000  0.14553000  1.0 0.9287182702
Zn  Zn26  1  0.35846000  0.58862000  0.81220000  1.0 0.9287182702
Zn  Zn27  1  0.41138000  0.76984000  0.47886000  1.0 0.9287182702
Zn  Zn28  1  0.76984000  0.35846000  0.64553000  1.0 0.9287182702
Zn  Zn29  1  0.64154000  0.41138000  0.31220000  1.0 0.9287182702
Zn  Zn30  1  0.58862000  0.23016000  0.97886000  1.0 0.9287182702
Zn  Zn31  1  0.32749000  0.65477000  0.11464000  1.0 0.9287182702
Zn  Zn32  1  0.34523000  0.67272000  0.78131000  1.0 0.9287182702
Zn  Zn33  1  0.32728000  0.67251000  0.44797000  1.0 0.9287182702
Zn  Zn34  1  0.67251000  0.34523000  0.61464000  1.0 0.9287182702
Zn  Zn35  1  0.65477000  0.32728000  0.28131000  1.0 0.9287182702
Zn  Zn36  1  0.67272000  0.32749000  0.94797000  1.0 0.9287182702
Zn  Zn37  1  0.32795000  0.56960000  0.14689000  1.0 0.9358058039
Zn  Zn38  1  0.43040000  0.75835000  0.81356000  1.0 0.9358058039
Zn  Zn39  1  0.24165000  0.67205000  0.48022000  1.0 0.9358058039
Zn  Zn40  1  0.67205000  0.43040000  0.64689000  1.0 0.9358058039
Zn  Zn41  1  0.56960000  0.24165000  0.31356000  1.0 0.9358058039
Zn  Zn42  1  0.75835000  0.32795000  0.98022000  1.0 0.9358058039
Zn  Zn43  1  0.40206000  0.74265000  0.14851000  1.0 0.9784698251
Zn  Zn44  1  0.25735000  0.65941000  0.81518000  1.0 0.9784698251
Zn  Zn45  1  0.34059000  0.59794000  0.48184000  1.0 0.9784698251
Zn  Zn46  1  0.59794000  0.25735000  0.64851000  1.0 0.9784698251
Zn  Zn47  1  0.74265000  0.34059000  0.31518000  1.0 0.9784698251
Zn  Zn48  1  0.65941000  0.40206000  0.98184000  1.0 0.9784698251
H  H1  1  0.67930000  0.20620000  0.58907000  1.0 0.1297542048
H  H2  1  0.52690000  0.32070000  0.92240000  1.0 0.1297542048
H  H3  1  0.79380000  0.47310000  0.25573000  1.0 0.1297542048
H  H4  1  0.32070000  0.79380000  0.08907000  1.0 0.1297542048
H  H5  1  0.47310000  0.67930000  0.42240000  1.0 0.1297542048
H  H6  1  0.20620000  0.52690000  0.75573000  1.0 0.1297542048
H  H7  1  0.60110000  0.96980000  0.57387000  1.0 0.1222770258
H  H8  1  0.36870000  0.39890000  0.90720000  1.0 0.1222770258
H  H9  1  0.03020000  0.63130000  0.24053000  1.0 0.1222770258
H  H10  1  0.39890000  0.03020000  0.07387000  1.0 0.1222770258
H  H11  1  0.63130000  0.60110000  0.40720000  1.0 0.1222770258
H  H12  1  0.96980000  0.36870000  0.74053000  1.0 0.1222770258
H  H13  1  0.60140000  0.04850000  0.55327000  1.0 0.1222770258
H  H14  1  0.44710000  0.39860000  0.88660000  1.0 0.1222770258
H  H15  1  0.95150000  0.55290000  0.21993000  1.0 0.1222770258
H  H16  1  0.39860000  0.95150000  0.05327000  1.0 0.1222770258
H  H17  1  0.55290000  0.60140000  0.38660000  1.0 0.1222770258
H  H18  1  0.04850000  0.44710000  0.71993000  1.0 0.1222770258
H  H19  1  0.68320000  0.15960000  0.62177000  1.0 0.1297542048
H  H20  1  0.47640000  0.31680000  0.95510000  1.0 0.1297542048
H  H21  1  0.84040000  0.52360000  0.28843000  1.0 0.1297542048
H  H22  1  0.31680000  0.84040000  0.12177000  1.0 0.1297542048
H  H23  1  0.52360000  0.68320000  0.45510000  1.0 0.1297542048
H  H24  1  0.15960000  0.47640000  0.78843000  1.0 0.1297542048
H  H25  1  0.74900000  0.15150000  0.61587000  1.0 0.1297542048
H  H26  1  0.40250000  0.25100000  0.94920000  1.0 0.1297542048
H  H27  1  0.84850000  0.59750000  0.28253000  1.0 0.1297542048
H  H28  1  0.25100000  0.84850000  0.11587000  1.0 0.1297542048
H  H29  1  0.59750000  0.74900000  0.44920000  1.0 0.1297542048
H  H30  1  0.15150000  0.40250000  0.78253000  1.0 0.1297542048
H  H31  1  0.69680000  0.99800000  0.60597000  1.0 0.1297542048
H  H32  1  0.30120000  0.30320000  0.93930000  1.0 0.1297542048
H  H33  1  0.00200000  0.69880000  0.27263000  1.0 0.1297542048
H  H34  1  0.30320000  0.00200000  0.10597000  1.0 0.1297542048
H  H35  1  0.69880000  0.69680000  0.43930000  1.0 0.1297542048
H  H36  1  0.99800000  0.30120000  0.77263000  1.0 0.1297542048
H  H37  1  0.61290000  0.95310000  0.60887000  1.0 0.1222770258
H  H38  1  0.34020000  0.38710000  0.94220000  1.0 0.1222770258
H  H39  1  0.04690000  0.65980000  0.27553000  1.0 0.1222770258
H  H40  1  0.38710000  0.04690000  0.10887000  1.0 0.1297542048
H  H41  1  0.65980000  0.61290000  0.44220000  1.0 0.1297542048
H  H42  1  0.95310000  0.34020000  0.77553000  1.0 0.1297542048
H  H43  1  0.55350000  0.00550000  0.62357000  1.0 0.1297542048
H  H44  1  0.45200000  0.44650000  0.95690000  1.0 0.1297542048
H  H45  1  0.99450000  0.54800000  0.29023000  1.0 0.1297542048
H  H46  1  0.44650000  0.99450000  0.12357000  1.0 0.1297542048
H  H47  1  0.54800000  0.55350000  0.45690000  1.0 0.1297542048
H  H48  1  0.00550000  0.45200000  0.79023000  1.0 0.1297542048
H  H49  1  0.58880000  0.06570000  0.63777000  1.0 0.1297542048
H  H50  1  0.47690000  0.41120000  0.97110000  1.0 0.1297542048
H  H51  1  0.93430000  0.52310000  0.30443000  1.0 0.1361428827
H  H52  1  0.41120000  0.93430000  0.13777000  1.0 0.1297542048
H  H53  1  0.52310000  0.58880000  0.47110000  1.0 0.1297542048
H  H54  1  0.06570000  0.47690000  0.80443000  1.0 0.1297542048
H  H55  1  0.74190000  0.03200000  0.63417000  1.0 0.1297542048
H  H56  1  0.29010000  0.25810000  0.96750000  1.0 0.1297542048
H  H57  1  0.96800000  0.70990000  0.30083000  1.0 0.1297542048
H  H58  1  0.25810000  0.96800000  0.13417000  1.0 0.1297542048
H  H59  1  0.70990000  0.74190000  0.46750000  1.0 0.1297542048
H  H60  1  0.03200000  0.29010000  0.80083000  1.0 0.1297542048
H  H61  1  0.73060000  0.08490000  0.64617000  1.0 0.1297542048
H  H62  1  0.35430000  0.26940000  0.97950000  1.0 0.1222770258
H  H63  1  0.91510000  0.64570000  0.31283000  1.0 0.1222770258
H  H64  1  0.26940000  0.91510000  0.14617000  1.0 0.1297542048
H  H65  1  0.64570000  0.73060000  0.47950000  1.0 0.1297542048
H  H66  1  0.08490000  0.35430000  0.81283000  1.0 0.1222770258
H  H67  1  0.47890000  0.91380000  0.65107000  1.0 0.1297542048
H  H68  1  0.43490000  0.52110000  0.98440000  1.0 0.1297542048
H  H69  1  0.08620000  0.56510000  0.31773000  1.0 0.1297542048
H  H70  1  0.52110000  0.08620000  0.15107000  1.0 0.1297542048
H  H71  1  0.56510000  0.47890000  0.48440000  1.0 0.1297542048
H  H72  1  0.91380000  0.43490000  0.81773000  1.0 0.1297542048
H  H73  1  0.60210000  0.85560000  0.67637000  1.0 0.1222770258
H  H74  1  0.25350000  0.39790000  0.00970000  1.0 0.1222770258
H  H75  1  0.14440000  0.74650000  0.34303000  1.0 0.1222770258
H  H76  1  0.39790000  0.14440000  0.17637000  1.0 0.1222770258
H  H77  1  0.74650000  0.60210000  0.50970000  1.0 0.1222770258
H  H78  1  0.85560000  0.25350000  0.84303000  1.0 0.1222770258
H  H79  1  0.70410000  0.94310000  0.66217000  1.0 0.1297542048
H  H80  1  0.23900000  0.29590000  0.99550000  1.0 0.1297542048
H  H81  1  0.05690000  0.76100000  0.32883000  1.0 0.1297542048
H  H82  1  0.29590000  0.05690000  0.16217000  1.0 0.1297542048
H  H83  1  0.76100000  0.70410000  0.49550000  1.0 0.1297542048
H  H84  1  0.94310000  0.23900000  0.82883000  1.0 0.1297542048
H  H85  1  0.49500000  0.07850000  0.48387000  1.0 0.1361428827
H  H86  1  0.58350000  0.50500000  0.81720000  1.0 0.1361428827
H  H87  1  0.92150000  0.41650000  0.15053000  1.0 0.1361428827
H  H88  1  0.50500000  0.92150000  0.98387000  1.0 0.1361428827
H  H89  1  0.41650000  0.49500000  0.31720000  1.0 0.1361428827
H  H90  1  0.07850000  0.58350000  0.65053000  1.0 0.1361428827
H  H91  1  0.27630000  0.07610000  0.48387000  1.0 0.1297542048
H  H92  1  0.79980000  0.72370000  0.81720000  1.0 0.1297542048
H  H93  1  0.92390000  0.20020000  0.15053000  1.0 0.1297542048
H  H94  1  0.72370000  0.92390000  0.98387000  1.0 0.1297542048
H  H95  1  0.20020000  0.27630000  0.31720000  1.0 0.1297542048
H  H96  1  0.07610000  0.79980000  0.65053000  1.0 0.1297542048
H  H97  1  0.37030000  0.15920000  0.49997000  1.0 0.1222770258
H  H98  1  0.78890000  0.62970000  0.83330000  1.0 0.1222770258
H  H99  1  0.84080000  0.21110000  0.16663000  1.0 0.1222770258
H  H100  1  0.62970000  0.84080000  0.99997000  1.0 0.1222770258
H  H101  1  0.21110000  0.37030000  0.33333333  1.0 0.1222770258
H  H102  1  0.15920000  0.78890000  0.66666667  1.0 0.1222770258
H  H103  1  0.43240000  0.98830000  0.45517000  1.0 0.1297542048
H  H104  1  0.55590000  0.56760000  0.78850000  1.0 0.1297542048
H  H105  1  0.01170000  0.44410000  0.12183000  1.0 0.1297542048
H  H106  1  0.56760000  0.01170000  0.95517000  1.0 0.1297542048
H  H107  1  0.44410000  0.43240000  0.28850000  1.0 0.1297542048
H  H108  1  0.98830000  0.55590000  0.62183000  1.0 0.1297542048
H  H109  1  0.38500000  0.93060000  0.46917000  1.0 0.1297542048
H  H110  1  0.54560000  0.61500000  0.80250000  1.0 0.1297542048
H  H111  1  0.06940000  0.45440000  0.13583000  1.0 0.1297542048
H  H112  1  0.61500000  0.06940000  0.96917000  1.0 0.1297542048
H  H113  1  0.45440000  0.38500000  0.30250000  1.0 0.1297542048
H  H114  1  0.93060000  0.54560000  0.63583000  1.0 0.1297542048
H  H115  1  0.24850000  0.91670000  0.47207000  1.0 0.1222770258
H  H116  1  0.66820000  0.75150000  0.80540000  1.0 0.1222770258
H  H117  1  0.08330000  0.33180000  0.13873000  1.0 0.1222770258
H  H118  1  0.75150000  0.08330000  0.97207000  1.0 0.1222770258
H  H119  1  0.33180000  0.24850000  0.30540000  1.0 0.1222770258
H  H120  1  0.91670000  0.66820000  0.63873000  1.0 0.1222770258
H  H121  1  0.23740000  0.96650000  0.45897000  1.0 0.1297542048
H  H122  1  0.72910000  0.76260000  0.79230000  1.0 0.1297542048
H  H123  1  0.03350000  0.27090000  0.12563000  1.0 0.1297542048
H  H124  1  0.76260000  0.03350000  0.95897000  1.0 0.1297542048
H  H125  1  0.27090000  0.23740000  0.29230000  1.0 0.1297542048
H  H126  1  0.96650000  0.72910000  0.62563000  1.0 0.1297542048
H  H127  1  0.30400000  0.84560000  0.45287000  1.0 0.1297542048
H  H128  1  0.54160000  0.69600000  0.78620000  1.0 0.1297542048
H  H129  1  0.15440000  0.45840000  0.11953000  1.0 0.1297542048
H  H130  1  0.69600000  0.15440000  0.95287000  1.0 0.1297542048
H  H131  1  0.45840000  0.30400000  0.28620000  1.0 0.1297542048
H  H132  1  0.84560000  0.54160000  0.61953000  1.0 0.1297542048
H  H133  1  0.23760000  0.84910000  0.44537000  1.0 0.1297542048
H  H134  1  0.61150000  0.76240000  0.77870000  1.0 0.1297542048
H  H135  1  0.15090000  0.38850000  0.11203000  1.0 0.1297542048
H  H136  1  0.76240000  0.15090000  0.94537000  1.0 0.1297542048
H  H137  1  0.38850000  0.23760000  0.27870000  1.0 0.1297542048
H  H138  1  0.84910000  0.61150000  0.61203000  1.0 0.1297542048
H  H139  1  0.38280000  0.04080000  0.43757000  1.0 0.1222770258
H  H140  1  0.65800000  0.61720000  0.77090000  1.0 0.1222770258
H  H141  1  0.95920000  0.34200000  0.10423000  1.0 0.1222770258
H  H142  1  0.61720000  0.95920000  0.93757000  1.0 0.1222770258
H  H143  1  0.34200000  0.38280000  0.27090000  1.0 0.1222770258
H  H144  1  0.04080000  0.65800000  0.60423000  1.0 0.1222770258
H  H145  1  0.30040000  0.00350000  0.43327000  1.0 0.1222770258
H  H146  1  0.70310000  0.69960000  0.76660000  1.0 0.1222770258
H  H147  1  0.99650000  0.29690000  0.09993000  1.0 0.1297542048
H  H148  1  0.69960000  0.99650000  0.93327000  1.0 0.1222770258
H  H149  1  0.29690000  0.30040000  0.26660000  1.0 0.1222770258
H  H150  1  0.00350000  0.70310000  0.59993000  1.0 0.1222770258
H  H151  1  0.30100000  0.78390000  0.42017000  1.0 0.1297542048
H  H152  1  0.48290000  0.69900000  0.75350000  1.0 0.1297542048
H  H153  1  0.21610000  0.51710000  0.08683000  1.0 0.1297542048
H  H154  1  0.69900000  0.21610000  0.92017000  1.0 0.1297542048
H  H155  1  0.51710000  0.30100000  0.25350000  1.0 0.1297542048
H  H156  1  0.78390000  0.48290000  0.58683000  1.0 0.1297542048
H  H157  1  0.39260000  0.93080000  0.38297000  1.0 0.1222770258
H  H158  1  0.53820000  0.60740000  0.71630000  1.0 0.1222770258
H  H159  1  0.06920000  0.46180000  0.04963000  1.0 0.1222770258
H  H160  1  0.60740000  0.06920000  0.88297000  1.0 0.1222770258
H  H161  1  0.46180000  0.39260000  0.21630000  1.0 0.1222770258
H  H162  1  0.93080000  0.53820000  0.54963000  1.0 0.1222770258
H  H163  1  0.39850000  0.01830000  0.40057000  1.0 0.1222770258
H  H164  1  0.61980000  0.60150000  0.73390000  1.0 0.1222770258
H  H165  1  0.98170000  0.38020000  0.06723000  1.0 0.1222770258
H  H166  1  0.60150000  0.98170000  0.90057000  1.0 0.1222770258
H  H167  1  0.38020000  0.39850000  0.23390000  1.0 0.1222770258
H  H168  1  0.01830000  0.61980000  0.56723000  1.0 0.1222770258
H  H169  1  0.88440000  0.39700000  0.49607000  1.0 0.1297542048
H  H170  1  0.51260000  0.11560000  0.82940000  1.0 0.1297542048
H  H171  1  0.60300000  0.48740000  0.16273000  1.0 0.1297542048
H  H172  1  0.11560000  0.60300000  0.99607000  1.0 0.1297542048
H  H173  1  0.48740000  0.88440000  0.32940000  1.0 0.1297542048
H  H174  1  0.39700000  0.51260000  0.66273000  1.0 0.1297542048
H  H175  1  0.88040000  0.19630000  0.47197000  1.0 0.1297542048
H  H176  1  0.31590000  0.11960000  0.80530000  1.0 0.1297542048
H  H177  1  0.80370000  0.68410000  0.13863000  1.0 0.1297542048
H  H178  1  0.11960000  0.80370000  0.97197000  1.0 0.1297542048
H  H179  1  0.68410000  0.88040000  0.30530000  1.0 0.1297542048
H  H180  1  0.19630000  0.31590000  0.63863000  1.0 0.1297542048
H  H181  1  0.79170000  0.18600000  0.49007000  1.0 0.1222770258
H  H182  1  0.39430000  0.20830000  0.82340000  1.0 0.1222770258
H  H183  1  0.81400000  0.60570000  0.15673000  1.0 0.1222770258
H  H184  1  0.20830000  0.81400000  0.99007000  1.0 0.1222770258
H  H185  1  0.60570000  0.79170000  0.32340000  1.0 0.1222770258
H  H186  1  0.18600000  0.39430000  0.65673000  1.0 0.1222770258
H  H187  1  0.97160000  0.46710000  0.46697000  1.0 0.1297542048
H  H188  1  0.49550000  0.02840000  0.80030000  1.0 0.1297542048
H  H189  1  0.53290000  0.50450000  0.13363000  1.0 0.1297542048
H  H190  1  0.02840000  0.53290000  0.96697000  1.0 0.1297542048
H  H191  1  0.50450000  0.97160000  0.30030000  1.0 0.1297542048
H  H192  1  0.46710000  0.49550000  0.63363000  1.0 0.1297542048
H  H193  1  0.03020000  0.46020000  0.47747000  1.0 0.1297542048
H  H194  1  0.43000000  0.96980000  0.81080000  1.0 0.1297542048
H  H195  1  0.53980000  0.57000000  0.14413000  1.0 0.1297542048
H  H196  1  0.96980000  0.53980000  0.97747000  1.0 0.1297542048
H  H197  1  0.57000000  0.03020000  0.31080000  1.0 0.1297542048
H  H198  1  0.46020000  0.43000000  0.64413000  1.0 0.1297542048
H  H199  1  0.98550000  0.30370000  0.44917000  1.0 0.1222770258
H  H200  1  0.31820000  0.01450000  0.78250000  1.0 0.1222770258
H  H201  1  0.69630000  0.68180000  0.11583000  1.0 0.1222770258
H  H202  1  0.01450000  0.69630000  0.94917000  1.0 0.1222770258
H  H203  1  0.68180000  0.98550000  0.28250000  1.0 0.1222770258
H  H204  1  0.30370000  0.31820000  0.61583000  1.0 0.1222770258
H  H205  1  0.03990000  0.33770000  0.46457000  1.0 0.1222770258
H  H206  1  0.29780000  0.96010000  0.79790000  1.0 0.1222770258
H  H207  1  0.66230000  0.70220000  0.13123000  1.0 0.1222770258
H  H208  1  0.96010000  0.66230000  0.96457000  1.0 0.1222770258
H  H209  1  0.70220000  0.03990000  0.29790000  1.0 0.1222770258
H  H210  1  0.33770000  0.29780000  0.63123000  1.0 0.1222770258
H  H211  1  0.10440000  0.50880000  0.45177000  1.0 0.1297542048
H  H212  1  0.40440000  0.89560000  0.78510000  1.0 0.1297542048
H  H213  1  0.49120000  0.59560000  0.11843000  1.0 0.1297542048
H  H214  1  0.89560000  0.49120000  0.95177000  1.0 0.1297542048
H  H215  1  0.59560000  0.10440000  0.28510000  1.0 0.1297542048
H  H216  1  0.50880000  0.40440000  0.61843000  1.0 0.1297542048
H  H217  1  0.11820000  0.44360000  0.45257000  1.0 0.1361428827
H  H218  1  0.32540000  0.88180000  0.78590000  1.0 0.1361428827
H  H219  1  0.55640000  0.67460000  0.11923000  1.0 0.1361428827
H  H220  1  0.88180000  0.55640000  0.95257000  1.0 0.1361428827
H  H221  1  0.67460000  0.11820000  0.28590000  1.0 0.1361428827
H  H222  1  0.44360000  0.32540000  0.61923000  1.0 0.1361428827
H  H223  1  0.92710000  0.35500000  0.43777000  1.0 0.1222770258
H  H224  1  0.42790000  0.07290000  0.77110000  1.0 0.1222770258
H  H225  1  0.64500000  0.57210000  0.10443000  1.0 0.1222770258
H  H226  1  0.07290000  0.64500000  0.93777000  1.0 0.1222770258
H  H227  1  0.57210000  0.92710000  0.27110000  1.0 0.1222770258
H  H228  1  0.35500000  0.42790000  0.60443000  1.0 0.1222770258
H  H229  1  0.94900000  0.43650000  0.43897000  1.0 0.1222770258
H  H230  1  0.48750000  0.05100000  0.77230000  1.0 0.1222770258
H  H231  1  0.56350000  0.51250000  0.10563000  1.0 0.1222770258
H  H232  1  0.05100000  0.56350000  0.93897000  1.0 0.1222770258
H  H233  1  0.51250000  0.94900000  0.27230000  1.0 0.1222770258
H  H234  1  0.43650000  0.48750000  0.60563000  1.0 0.1222770258
H  H235  1  0.18940000  0.51560000  0.42187000  1.0 0.1297542048
H  H236  1  0.32620000  0.81060000  0.75520000  1.0 0.1297542048
H  H237  1  0.48440000  0.67380000  0.08853000  1.0 0.1297542048
H  H238  1  0.81060000  0.48440000  0.92187000  1.0 0.1297542048
H  H239  1  0.67380000  0.18940000  0.25520000  1.0 0.1297542048
H  H240  1  0.51560000  0.32620000  0.58853000  1.0 0.1297542048
H  H241  1  0.04520000  0.44320000  0.38287000  1.0 0.1222770258
H  H242  1  0.39800000  0.95480000  0.71620000  1.0 0.1222770258
H  H243  1  0.55680000  0.60200000  0.04953000  1.0 0.1222770258
H  H244  1  0.95480000  0.55680000  0.88287000  1.0 0.1222770258
H  H245  1  0.60200000  0.04520000  0.21620000  1.0 0.1222770258
H  H246  1  0.44320000  0.39800000  0.54953000  1.0 0.1222770258
H  H247  1  0.95760000  0.39370000  0.40197000  1.0 0.1222770258
H  H248  1  0.43610000  0.04240000  0.73530000  1.0 0.1222770258
H  H249  1  0.60630000  0.56390000  0.06863000  1.0 0.1222770258
H  H250  1  0.04240000  0.60630000  0.90197000  1.0 0.1222770258
H  H251  1  0.56390000  0.95760000  0.23530000  1.0 0.1222770258
H  H252  1  0.39370000  0.43610000  0.56863000  1.0 0.1222770258
H  H253  1  0.20620000  0.67930000  0.07760000  1.0 0.1297542048
H  H254  1  0.32070000  0.52690000  0.74427000  1.0 0.1297542048
H  H255  1  0.47310000  0.79380000  0.41093000  1.0 0.1297542048
H  H256  1  0.79380000  0.32070000  0.57760000  1.0 0.1297542048
H  H257  1  0.67930000  0.47310000  0.24427000  1.0 0.1297542048
H  H258  1  0.52690000  0.20620000  0.91093000  1.0 0.1297542048
H  H259  1  0.96980000  0.60110000  0.09280000  1.0 0.1222770258
H  H260  1  0.39890000  0.36870000  0.75947000  1.0 0.1222770258
H  H261  1  0.63130000  0.03020000  0.42613000  1.0 0.1222770258
H  H262  1  0.03020000  0.39890000  0.59280000  1.0 0.1222770258
H  H263  1  0.60110000  0.63130000  0.25947000  1.0 0.1222770258
H  H264  1  0.36870000  0.96980000  0.92613000  1.0 0.1222770258
H  H265  1  0.04850000  0.60140000  0.11340000  1.0 0.1222770258
H  H266  1  0.39860000  0.44710000  0.78007000  1.0 0.1222770258
H  H267  1  0.55290000  0.95150000  0.44673000  1.0 0.1222770258
H  H268  1  0.95150000  0.39860000  0.61340000  1.0 0.1222770258
H  H269  1  0.60140000  0.55290000  0.28007000  1.0 0.1222770258
H  H270  1  0.44710000  0.04850000  0.94673000  1.0 0.1222770258
H  H271  1  0.15960000  0.68320000  0.04490000  1.0 0.1297542048
H  H272  1  0.31680000  0.47640000  0.71157000  1.0 0.1297542048
H  H273  1  0.52360000  0.84040000  0.37823000  1.0 0.1297542048
H  H274  1  0.84040000  0.31680000  0.54490000  1.0 0.1297542048
H  H275  1  0.68320000  0.52360000  0.21157000  1.0 0.1297542048
H  H276  1  0.47640000  0.15960000  0.87823000  1.0 0.1297542048
H  H277  1  0.15150000  0.74900000  0.05080000  1.0 0.1297542048
H  H278  1  0.25100000  0.40250000  0.71747000  1.0 0.1297542048
H  H279  1  0.59750000  0.84850000  0.38413000  1.0 0.1297542048
H  H280  1  0.84850000  0.25100000  0.55080000  1.0 0.1297542048
H  H281  1  0.74900000  0.59750000  0.21747000  1.0 0.1297542048
H  H282  1  0.40250000  0.15150000  0.88413000  1.0 0.1297542048
H  H283  1  0.99800000  0.69680000  0.06070000  1.0 0.1297542048
H  H284  1  0.30320000  0.30120000  0.72737000  1.0 0.1297542048
H  H285  1  0.69880000  0.00200000  0.39403000  1.0 0.1297542048
H  H286  1  0.00200000  0.30320000  0.56070000  1.0 0.1297542048
H  H287  1  0.69680000  0.69880000  0.22737000  1.0 0.1297542048
H  H288  1  0.30120000  0.99800000  0.89403000  1.0 0.1297542048
H  H289  1  0.95310000  0.61290000  0.05780000  1.0 0.1297542048
H  H290  1  0.38710000  0.34020000  0.72447000  1.0 0.1297542048
H  H291  1  0.65980000  0.04690000  0.39113000  1.0 0.1297542048
H  H292  1  0.04690000  0.38710000  0.55780000  1.0 0.1297542048
H  H293  1  0.61290000  0.65980000  0.22447000  1.0 0.1297542048
H  H294  1  0.34020000  0.95310000  0.89113000  1.0 0.1222770258
H  H295  1  0.00550000  0.55350000  0.04310000  1.0 0.1297542048
H  H296  1  0.44650000  0.45200000  0.70977000  1.0 0.1297542048
H  H297  1  0.54800000  0.99450000  0.37643000  1.0 0.1297542048
H  H298  1  0.99450000  0.44650000  0.54310000  1.0 0.1297542048
H  H299  1  0.55350000  0.54800000  0.20977000  1.0 0.1297542048
H  H300  1  0.45200000  0.00550000  0.87643000  1.0 0.1297542048
H  H301  1  0.06570000  0.58880000  0.02890000  1.0 0.1297542048
H  H302  1  0.41120000  0.47690000  0.69557000  1.0 0.1361428827
H  H303  1  0.52310000  0.93430000  0.36223000  1.0 0.1297542048
H  H304  1  0.93430000  0.41120000  0.52890000  1.0 0.1297542048
H  H305  1  0.58880000  0.52310000  0.19557000  1.0 0.1361428827
H  H306  1  0.47690000  0.06570000  0.86223000  1.0 0.1297542048
H  H307  1  0.03200000  0.74190000  0.03250000  1.0 0.1297542048
H  H308  1  0.25810000  0.29010000  0.69917000  1.0 0.1297542048
H  H309  1  0.70990000  0.96800000  0.36583000  1.0 0.1297542048
H  H310  1  0.96800000  0.25810000  0.53250000  1.0 0.1297542048
H  H311  1  0.74190000  0.70990000  0.19917000  1.0 0.1297542048
H  H312  1  0.29010000  0.03200000  0.86583000  1.0 0.1297542048
H  H313  1  0.08490000  0.73060000  0.02050000  1.0 0.1297542048
H  H314  1  0.26940000  0.35430000  0.68717000  1.0 0.1222770258
H  H315  1  0.64570000  0.91510000  0.35383000  1.0 0.1297542048
H  H316  1  0.91510000  0.26940000  0.52050000  1.0 0.1297542048
H  H317  1  0.73060000  0.64570000  0.18717000  1.0 0.1222770258
H  H318  1  0.35430000  0.08490000  0.85383000  1.0 0.1297542048
H  H319  1  0.91380000  0.47890000  0.01560000  1.0 0.1297542048
H  H320  1  0.52110000  0.43490000  0.68227000  1.0 0.1297542048
H  H321  1  0.56510000  0.08620000  0.34893000  1.0 0.1297542048
H  H322  1  0.08620000  0.52110000  0.51560000  1.0 0.1297542048
H  H323  1  0.47890000  0.56510000  0.18227000  1.0 0.1297542048
H  H324  1  0.43490000  0.91380000  0.84893000  1.0 0.1297542048
H  H325  1  0.85560000  0.60210000  0.99030000  1.0 0.1222770258
H  H326  1  0.39790000  0.25350000  0.65697000  1.0 0.1222770258
H  H327  1  0.74650000  0.14440000  0.32363000  1.0 0.1222770258
H  H328  1  0.14440000  0.39790000  0.49030000  1.0 0.1222770258
H  H329  1  0.60210000  0.74650000  0.15697000  1.0 0.1222770258
H  H330  1  0.25350000  0.85560000  0.82363000  1.0 0.1222770258
H  H331  1  0.94310000  0.70410000  0.00450000  1.0 0.1297542048
H  H332  1  0.29590000  0.23900000  0.67117000  1.0 0.1297542048
H  H333  1  0.76100000  0.05690000  0.33783000  1.0 0.1297542048
H  H334  1  0.05690000  0.29590000  0.50450000  1.0 0.1297542048
H  H335  1  0.70410000  0.76100000  0.17117000  1.0 0.1297542048
H  H336  1  0.23900000  0.94310000  0.83783000  1.0 0.1297542048
H  H337  1  0.07850000  0.49500000  0.18280000  1.0 0.1361428827
H  H338  1  0.50500000  0.58350000  0.84947000  1.0 0.1361428827
H  H339  1  0.41650000  0.92150000  0.51613000  1.0 0.1361428827
H  H340  1  0.92150000  0.50500000  0.68280000  1.0 0.1361428827
H  H341  1  0.49500000  0.41650000  0.34947000  1.0 0.1361428827
H  H342  1  0.58350000  0.07850000  0.01613000  1.0 0.1361428827
H  H343  1  0.07610000  0.27630000  0.18280000  1.0 0.1297542048
H  H344  1  0.72370000  0.79980000  0.84947000  1.0 0.1297542048
H  H345  1  0.20020000  0.92390000  0.51613000  1.0 0.1297542048
H  H346  1  0.92390000  0.72370000  0.68280000  1.0 0.1297542048
H  H347  1  0.27630000  0.20020000  0.34947000  1.0 0.1297542048
H  H348  1  0.79980000  0.07610000  0.01613000  1.0 0.1297542048
H  H349  1  0.15920000  0.37030000  0.16670000  1.0 0.1222770258
H  H350  1  0.62970000  0.78890000  0.83337000  1.0 0.1222770258
H  H351  1  0.21110000  0.84080000  0.50003000  1.0 0.1222770258
H  H352  1  0.84080000  0.62970000  0.66666667  1.0 0.1222770258
H  H353  1  0.37030000  0.21110000  0.33337000  1.0 0.1222770258
H  H354  1  0.78890000  0.15920000  0.00003000  1.0 0.1222770258
H  H355  1  0.98830000  0.43240000  0.21150000  1.0 0.1297542048
H  H356  1  0.56760000  0.55590000  0.87817000  1.0 0.1297542048
H  H357  1  0.44410000  0.01170000  0.54483000  1.0 0.1297542048
H  H358  1  0.01170000  0.56760000  0.71150000  1.0 0.1297542048
H  H359  1  0.43240000  0.44410000  0.37817000  1.0 0.1297542048
H  H360  1  0.55590000  0.98830000  0.04483000  1.0 0.1297542048
H  H361  1  0.93060000  0.38500000  0.19750000  1.0 0.1297542048
H  H362  1  0.61500000  0.54560000  0.86417000  1.0 0.1297542048
H  H363  1  0.45440000  0.06940000  0.53083000  1.0 0.1297542048
H  H364  1  0.06940000  0.61500000  0.69750000  1.0 0.1297542048
H  H365  1  0.38500000  0.45440000  0.36417000  1.0 0.1297542048
H  H366  1  0.54560000  0.93060000  0.03083000  1.0 0.1297542048
H  H367  1  0.91670000  0.24850000  0.19460000  1.0 0.1222770258
H  H368  1  0.75150000  0.66820000  0.86127000  1.0 0.1222770258
H  H369  1  0.33180000  0.08330000  0.52793000  1.0 0.1222770258
H  H370  1  0.08330000  0.75150000  0.69460000  1.0 0.1222770258
H  H371  1  0.24850000  0.33180000  0.36127000  1.0 0.1222770258
H  H372  1  0.66820000  0.91670000  0.02793000  1.0 0.1222770258
H  H373  1  0.96650000  0.23740000  0.20770000  1.0 0.1297542048
H  H374  1  0.76260000  0.72910000  0.87437000  1.0 0.1297542048
H  H375  1  0.27090000  0.03350000  0.54103000  1.0 0.1297542048
H  H376  1  0.03350000  0.76260000  0.70770000  1.0 0.1297542048
H  H377  1  0.23740000  0.27090000  0.37437000  1.0 0.1297542048
H  H378  1  0.72910000  0.96650000  0.04103000  1.0 0.1297542048
H  H379  1  0.84560000  0.30400000  0.21380000  1.0 0.1297542048
H  H380  1  0.69600000  0.54160000  0.88047000  1.0 0.1297542048
H  H381  1  0.45840000  0.15440000  0.54713000  1.0 0.1297542048
H  H382  1  0.15440000  0.69600000  0.71380000  1.0 0.1297542048
H  H383  1  0.30400000  0.45840000  0.38047000  1.0 0.1297542048
H  H384  1  0.54160000  0.84560000  0.04713000  1.0 0.1297542048
H  H385  1  0.84910000  0.23760000  0.22130000  1.0 0.1297542048
H  H386  1  0.76240000  0.61150000  0.88797000  1.0 0.1297542048
H  H387  1  0.38850000  0.15090000  0.55463000  1.0 0.1297542048
H  H388  1  0.15090000  0.76240000  0.72130000  1.0 0.1297542048
H  H389  1  0.23760000  0.38850000  0.38797000  1.0 0.1297542048
H  H390  1  0.61150000  0.84910000  0.05463000  1.0 0.1297542048
H  H391  1  0.04080000  0.38280000  0.22910000  1.0 0.1222770258
H  H392  1  0.61720000  0.65800000  0.89577000  1.0 0.1222770258
H  H393  1  0.34200000  0.95920000  0.56243000  1.0 0.1222770258
H  H394  1  0.95920000  0.61720000  0.72910000  1.0 0.1222770258
H  H395  1  0.38280000  0.34200000  0.39577000  1.0 0.1222770258
H  H396  1  0.65800000  0.04080000  0.06243000  1.0 0.1222770258
H  H397  1  0.00350000  0.30040000  0.23340000  1.0 0.1222770258
H  H398  1  0.69960000  0.70310000  0.90007000  1.0 0.1222770258
H  H399  1  0.29690000  0.99650000  0.56673000  1.0 0.1222770258
H  H400  1  0.99650000  0.69960000  0.73340000  1.0 0.1222770258
H  H401  1  0.30040000  0.29690000  0.40007000  1.0 0.1222770258
H  H402  1  0.70310000  0.00350000  0.06673000  1.0 0.1222770258
H  H403  1  0.78390000  0.30100000  0.24650000  1.0 0.1297542048
H  H404  1  0.69900000  0.48290000  0.91317000  1.0 0.1297542048
H  H405  1  0.51710000  0.21610000  0.57983000  1.0 0.1297542048
H  H406  1  0.21610000  0.69900000  0.74650000  1.0 0.1297542048
H  H407  1  0.30100000  0.51710000  0.41317000  1.0 0.1297542048
H  H408  1  0.48290000  0.78390000  0.07983000  1.0 0.1297542048
H  H409  1  0.93080000  0.39260000  0.28370000  1.0 0.1222770258
H  H410  1  0.60740000  0.53820000  0.95037000  1.0 0.1222770258
H  H411  1  0.46180000  0.06920000  0.61703000  1.0 0.1222770258
H  H412  1  0.06920000  0.60740000  0.78370000  1.0 0.1222770258
H  H413  1  0.39260000  0.46180000  0.45037000  1.0 0.1222770258
H  H414  1  0.53820000  0.93080000  0.11703000  1.0 0.1222770258
H  H415  1  0.01830000  0.39850000  0.26610000  1.0 0.1222770258
H  H416  1  0.60150000  0.61980000  0.93277000  1.0 0.1222770258
H  H417  1  0.38020000  0.98170000  0.59943000  1.0 0.1222770258
H  H418  1  0.98170000  0.60150000  0.76610000  1.0 0.1222770258
H  H419  1  0.39850000  0.38020000  0.43277000  1.0 0.1222770258
H  H420  1  0.61980000  0.01830000  0.09943000  1.0 0.1222770258
H  H421  1  0.39700000  0.88440000  0.17060000  1.0 0.1297542048
H  H422  1  0.11560000  0.51260000  0.83727000  1.0 0.1297542048
H  H423  1  0.48740000  0.60300000  0.50393000  1.0 0.1297542048
H  H424  1  0.60300000  0.11560000  0.67060000  1.0 0.1297542048
H  H425  1  0.88440000  0.48740000  0.33727000  1.0 0.1297542048
H  H426  1  0.51260000  0.39700000  0.00393000  1.0 0.1297542048
H  H427  1  0.19630000  0.88040000  0.19470000  1.0 0.1297542048
H  H428  1  0.11960000  0.31590000  0.86137000  1.0 0.1297542048
H  H429  1  0.68410000  0.80370000  0.52803000  1.0 0.1297542048
H  H430  1  0.80370000  0.11960000  0.69470000  1.0 0.1297542048
H  H431  1  0.88040000  0.68410000  0.36137000  1.0 0.1297542048
H  H432  1  0.31590000  0.19630000  0.02803000  1.0 0.1297542048
H  H433  1  0.18600000  0.79170000  0.17660000  1.0 0.1222770258
H  H434  1  0.20830000  0.39430000  0.84327000  1.0 0.1222770258
H  H435  1  0.60570000  0.81400000  0.50993000  1.0 0.1222770258
H  H436  1  0.81400000  0.20830000  0.67660000  1.0 0.1222770258
H  H437  1  0.79170000  0.60570000  0.34327000  1.0 0.1222770258
H  H438  1  0.39430000  0.18600000  0.00993000  1.0 0.1222770258
H  H439  1  0.46710000  0.97160000  0.19970000  1.0 0.1297542048
H  H440  1  0.02840000  0.49550000  0.86637000  1.0 0.1297542048
H  H441  1  0.50450000  0.53290000  0.53303000  1.0 0.1297542048
H  H442  1  0.53290000  0.02840000  0.69970000  1.0 0.1297542048
H  H443  1  0.97160000  0.50450000  0.36637000  1.0 0.1297542048
H  H444  1  0.49550000  0.46710000  0.03303000  1.0 0.1297542048
H  H445  1  0.46020000  0.03020000  0.18920000  1.0 0.1297542048
H  H446  1  0.96980000  0.43000000  0.85587000  1.0 0.1297542048
H  H447  1  0.57000000  0.53980000  0.52253000  1.0 0.1297542048
H  H448  1  0.53980000  0.96980000  0.68920000  1.0 0.1297542048
H  H449  1  0.03020000  0.57000000  0.35587000  1.0 0.1297542048
H  H450  1  0.43000000  0.46020000  0.02253000  1.0 0.1297542048
H  H451  1  0.30370000  0.98550000  0.21750000  1.0 0.1222770258
H  H452  1  0.01450000  0.31820000  0.88417000  1.0 0.1222770258
H  H453  1  0.68180000  0.69630000  0.55083000  1.0 0.1222770258
H  H454  1  0.69630000  0.01450000  0.71750000  1.0 0.1222770258
H  H455  1  0.98550000  0.68180000  0.38417000  1.0 0.1222770258
H  H456  1  0.31820000  0.30370000  0.05083000  1.0 0.1222770258
H  H457  1  0.33770000  0.03990000  0.20210000  1.0 0.1222770258
H  H458  1  0.96010000  0.29780000  0.86877000  1.0 0.1222770258
H  H459  1  0.70220000  0.66230000  0.53543000  1.0 0.1222770258
H  H460  1  0.66230000  0.96010000  0.70210000  1.0 0.1222770258
H  H461  1  0.03990000  0.70220000  0.36877000  1.0 0.1222770258
H  H462  1  0.29780000  0.33770000  0.03543000  1.0 0.1222770258
H  H463  1  0.50880000  0.10440000  0.21490000  1.0 0.1297542048
H  H464  1  0.89560000  0.40440000  0.88157000  1.0 0.1297542048
H  H465  1  0.59560000  0.49120000  0.54823000  1.0 0.1297542048
H  H466  1  0.49120000  0.89560000  0.71490000  1.0 0.1297542048
H  H467  1  0.10440000  0.59560000  0.38157000  1.0 0.1297542048
H  H468  1  0.40440000  0.50880000  0.04823000  1.0 0.1297542048
H  H469  1  0.44360000  0.11820000  0.21410000  1.0 0.1361428827
H  H470  1  0.88180000  0.32540000  0.88077000  1.0 0.1361428827
H  H471  1  0.67460000  0.55640000  0.54743000  1.0 0.1361428827
H  H472  1  0.55640000  0.88180000  0.71410000  1.0 0.1361428827
H  H473  1  0.11820000  0.67460000  0.38077000  1.0 0.1361428827
H  H474  1  0.32540000  0.44360000  0.04743000  1.0 0.1361428827
H  H475  1  0.35500000  0.92710000  0.22890000  1.0 0.1222770258
H  H476  1  0.07290000  0.42790000  0.89557000  1.0 0.1222770258
H  H477  1  0.57210000  0.64500000  0.56223000  1.0 0.1222770258
H  H478  1  0.64500000  0.07290000  0.72890000  1.0 0.1222770258
H  H479  1  0.92710000  0.57210000  0.39557000  1.0 0.1222770258
H  H480  1  0.42790000  0.35500000  0.06223000  1.0 0.1222770258
H  H481  1  0.43650000  0.94900000  0.22770000  1.0 0.1222770258
H  H482  1  0.05100000  0.48750000  0.89437000  1.0 0.1222770258
H  H483  1  0.51250000  0.56350000  0.56103000  1.0 0.1222770258
H  H484  1  0.56350000  0.05100000  0.72770000  1.0 0.1222770258
H  H485  1  0.94900000  0.51250000  0.39437000  1.0 0.1222770258
H  H486  1  0.48750000  0.43650000  0.06103000  1.0 0.1222770258
H  H487  1  0.51560000  0.18940000  0.24480000  1.0 0.1297542048
H  H488  1  0.81060000  0.32620000  0.91147000  1.0 0.1297542048
H  H489  1  0.67380000  0.48440000  0.57813000  1.0 0.1297542048
H  H490  1  0.48440000  0.81060000  0.74480000  1.0 0.1297542048
H  H491  1  0.18940000  0.67380000  0.41147000  1.0 0.1297542048
H  H492  1  0.32620000  0.51560000  0.07813000  1.0 0.1297542048
H  H493  1  0.44320000  0.04520000  0.28380000  1.0 0.1222770258
H  H494  1  0.95480000  0.39800000  0.95047000  1.0 0.1222770258
H  H495  1  0.60200000  0.55680000  0.61713000  1.0 0.1222770258
H  H496  1  0.55680000  0.95480000  0.78380000  1.0 0.1222770258
H  H497  1  0.04520000  0.60200000  0.45047000  1.0 0.1222770258
H  H498  1  0.39800000  0.44320000  0.11713000  1.0 0.1222770258
H  H499  1  0.39370000  0.95760000  0.26470000  1.0 0.1222770258
H  H500  1  0.04240000  0.43610000  0.93137000  1.0 0.1222770258
H  H501  1  0.56390000  0.60630000  0.59803000  1.0 0.1222770258
H  H502  1  0.60630000  0.04240000  0.76470000  1.0 0.1222770258
H  H503  1  0.95760000  0.56390000  0.43137000  1.0 0.1222770258
H  H504  1  0.43610000  0.39370000  0.09803000  1.0 0.1222770258
C  C1  1  0.64150000  0.13700000  0.56949000  1.0 -0.0407197413
C  C2  1  0.49550000  0.35850000  0.90282000  1.0 -0.0407197413
C  C3  1  0.86300000  0.50450000  0.23615000  1.0 -0.0407197413
C  C4  1  0.35850000  0.86300000  0.06949000  1.0 -0.0407197413
C  C5  1  0.50450000  0.64150000  0.40282000  1.0 -0.0407197413
C  C6  1  0.13700000  0.49550000  0.73615000  1.0 -0.0407197413
C  C7  1  0.66504000  0.15946000  0.58585000  1.0 -0.1623798966
C  C8  1  0.49442000  0.33496000  0.91918000  1.0 -0.1623798966
C  C9  1  0.84054000  0.50558000  0.25251000  1.0 -0.1623798966
C  C10  1  0.33496000  0.84054000  0.08585000  1.0 -0.1623798966
C  C11  1  0.50558000  0.66504000  0.41918000  1.0 -0.1623798966
C  C12  1  0.15946000  0.49442000  0.75251000  1.0 -0.1623798966
C  C13  1  0.66750000  0.11270000  0.59753000  1.0 0.0793604195
C  C14  1  0.44520000  0.33250000  0.93086000  1.0 0.0793604195
C  C15  1  0.88730000  0.55480000  0.26419000  1.0 0.0715513546
C  C16  1  0.33250000  0.88730000  0.09753000  1.0 0.0715513546
C  C17  1  0.55480000  0.66750000  0.43086000  1.0 0.0793604195
C  C18  1  0.11270000  0.44520000  0.76419000  1.0 0.0793604195
C  C19  1  0.64300000  0.04130000  0.59346000  1.0 0.0793604195
C  C20  1  0.39830000  0.35700000  0.92679000  1.0 0.0793604195
C  C21  1  0.95870000  0.60170000  0.26012000  1.0 0.0793604195
C  C22  1  0.35700000  0.95870000  0.09346000  1.0 0.0793604195
C  C23  1  0.60170000  0.64300000  0.42679000  1.0 0.0793604195
C  C24  1  0.04130000  0.39830000  0.76012000  1.0 0.0793604195
C  C25  1  0.61770000  0.01740000  0.57677000  1.0 -0.1780635416
C  C26  1  0.39970000  0.38230000  0.91010000  1.0 -0.1780635416
C  C27  1  0.98260000  0.60030000  0.24343000  1.0 -0.1780635416
C  C28  1  0.38230000  0.98260000  0.07677000  1.0 -0.1780635416
C  C29  1  0.60030000  0.61770000  0.41010000  1.0 -0.1780635416
C  C30  1  0.01740000  0.39970000  0.74343000  1.0 -0.1780635416
C  C31  1  0.61700000  0.06400000  0.56439000  1.0 -0.1192205321
C  C32  1  0.44700000  0.38300000  0.89772000  1.0 -0.1192205321
C  C33  1  0.93600000  0.55300000  0.23105000  1.0 -0.1192205321
C  C34  1  0.38300000  0.93600000  0.06439000  1.0 -0.1192205321
C  C35  1  0.55300000  0.61700000  0.39772000  1.0 -0.1192205321
C  C36  1  0.06400000  0.44700000  0.73105000  1.0 -0.1192205321
C  C37  1  0.69720000  0.12890000  0.61584000  1.0 -0.2907556444
C  C38  1  0.43170000  0.30280000  0.94917000  1.0 -0.2907556444
C  C39  1  0.87110000  0.56830000  0.28250000  1.0 -0.2907556444
C  C40  1  0.30280000  0.87110000  0.11584000  1.0 -0.2907556444
C  C41  1  0.56830000  0.69720000  0.44917000  1.0 -0.2907556444
C  C42  1  0.12890000  0.43170000  0.78250000  1.0 -0.2907556444
C  C43  1  0.66160000  0.05240000  0.62426000  1.0 0.2140281817
C  C44  1  0.39080000  0.33840000  0.95759000  1.0 0.2140281817
C  C45  1  0.94760000  0.60920000  0.29092000  1.0 0.2140281817
C  C46  1  0.33840000  0.94760000  0.12426000  1.0 0.2140281817
C  C47  1  0.60920000  0.66160000  0.45759000  1.0 0.2140281817
C  C48  1  0.05240000  0.39080000  0.79092000  1.0 0.2140281817
C  C49  1  0.65370000  0.00090000  0.60763000  1.0 -0.3166343047
C  C50  1  0.34720000  0.34630000  0.94096000  1.0 -0.3166343047
C  C51  1  0.99910000  0.65280000  0.27429000  1.0 -0.3166343047
C  C52  1  0.34630000  0.99910000  0.10763000  1.0 -0.3166343047
C  C53  1  0.65280000  0.65370000  0.44096000  1.0 -0.3166343047
C  C54  1  0.00090000  0.34720000  0.77429000  1.0 -0.3166343047
C  C55  1  0.59130000  0.02700000  0.63203000  1.0 -0.2907556444
C  C56  1  0.43570000  0.40870000  0.96536000  1.0 -0.2907556444
C  C57  1  0.97300000  0.56430000  0.29869000  1.0 -0.2907556444
C  C58  1  0.40870000  0.97300000  0.13203000  1.0 -0.2907556444
C  C59  1  0.56430000  0.59130000  0.46536000  1.0 -0.2907556444
C  C60  1  0.02700000  0.43570000  0.79869000  1.0 -0.2907556444
C  C61  1  0.58630000  0.97060000  0.64511000  1.0 0.0514807733
C  C62  1  0.38430000  0.41370000  0.97844000  1.0 0.0514807733
C  C63  1  0.02940000  0.61570000  0.31177000  1.0 0.0514807733
C  C64  1  0.41370000  0.02940000  0.14511000  1.0 0.0514807733
C  C65  1  0.61570000  0.58630000  0.47844000  1.0 0.0514807733
C  C66  1  0.97060000  0.38430000  0.81177000  1.0 0.0514807733
C  C67  1  0.65030000  0.98050000  0.64853000  1.0 0.0598324767
C  C68  1  0.33020000  0.34970000  0.98186000  1.0 0.0598324767
C  C69  1  0.01950000  0.66980000  0.31519000  1.0 0.0598324767
C  C70  1  0.34970000  0.01950000  0.14853000  1.0 0.0598324767
C  C71  1  0.66980000  0.65030000  0.48186000  1.0 0.0598324767
C  C72  1  0.98050000  0.33020000  0.81519000  1.0 0.0598324767
C  C73  1  0.70670000  0.04260000  0.63889000  1.0 -0.2907556444
C  C74  1  0.33590000  0.29330000  0.97222000  1.0 -0.2907556444
C  C75  1  0.95740000  0.66410000  0.30555000  1.0 -0.2907556444
C  C76  1  0.29330000  0.95740000  0.13889000  1.0 -0.2907556444
C  C77  1  0.66410000  0.70670000  0.47222000  1.0 -0.2907556444
C  C78  1  0.04260000  0.33590000  0.80555000  1.0 -0.2907556444
C  C79  1  0.52300000  0.91760000  0.65335000  1.0 -0.150916797
C  C80  1  0.39460000  0.47700000  0.98668000  1.0 -0.150916797
C  C81  1  0.08240000  0.60540000  0.32001000  1.0 -0.150916797
C  C82  1  0.47700000  0.08240000  0.15335000  1.0 -0.150916797
C  C83  1  0.60540000  0.52300000  0.48668000  1.0 -0.150916797
C  C84  1  0.91760000  0.39460000  0.82001000  1.0 -0.150916797
C  C85  1  0.52850000  0.87270000  0.66456000  1.0 -0.0511424857
C  C86  1  0.34420000  0.47150000  0.99789000  1.0 -0.0511424857
C  C87  1  0.12730000  0.65580000  0.33122000  1.0 -0.0511424857
C  C88  1  0.47150000  0.12730000  0.16456000  1.0 -0.0511424857
C  C89  1  0.65580000  0.52850000  0.49789000  1.0 -0.0511424857
C  C90  1  0.87270000  0.34420000  0.83122000  1.0 -0.0511424857
C  C91  1  0.59730000  0.88440000  0.66817000  1.0 -0.1002641959
C  C92  1  0.28710000  0.40270000  0.00150000  1.0 -0.1002641959
C  C93  1  0.11560000  0.71290000  0.33483000  1.0 -0.1002641959
C  C94  1  0.40270000  0.11560000  0.16817000  1.0 -0.1002641959
C  C95  1  0.71290000  0.59730000  0.50150000  1.0 -0.1002641959
C  C96  1  0.88440000  0.28710000  0.83483000  1.0 -0.1002641959
C  C97  1  0.65920000  0.93750000  0.65995000  1.0 -0.1780635416
C  C98  1  0.27830000  0.34080000  0.99328000  1.0 -0.1780635416
C  C99  1  0.06250000  0.72170000  0.32661000  1.0 -0.1780635416
C  C100  1  0.34080000  0.06250000  0.15995000  1.0 -0.1780635416
C  C101  1  0.72170000  0.65920000  0.49328000  1.0 -0.1780635416
C  C102  1  0.93750000  0.27830000  0.82661000  1.0 -0.1780635416
C  C103  1  0.46480000  0.81730000  0.67385000  1.0 0.5794266376
C  C104  1  0.35250000  0.53520000  0.00718000  1.0 0.5794266376
C  C105  1  0.18270000  0.64750000  0.34051000  1.0 0.5794266376
C  C106  1  0.53520000  0.18270000  0.17385000  1.0 0.5794266376
C  C107  1  0.64750000  0.46480000  0.50718000  1.0 0.5794266376
C  C108  1  0.81730000  0.35250000  0.84051000  1.0 0.5794266376
C  C109  1  0.64215000  0.18851000  0.55665000  1.0 0.5794266376
C  C110  1  0.54636000  0.35785000  0.88998000  1.0 0.5794266376
C  C111  1  0.81149000  0.45364000  0.22331000  1.0 0.5794266376
C  C112  1  0.35785000  0.81149000  0.05665000  1.0 0.5794266376
C  C113  1  0.45364000  0.64215000  0.38998000  1.0 0.5794266376
C  C114  1  0.18851000  0.54636000  0.72331000  1.0 0.5794266376
C  C115  1  0.44370000  0.13360000  0.49324000  1.0 -0.1112447583
C  C116  1  0.68990000  0.55630000  0.82657000  1.0 -0.1112447583
C  C117  1  0.86640000  0.31010000  0.15990000  1.0 -0.1112447583
C  C118  1  0.55630000  0.86640000  0.99324000  1.0 -0.1112447583
C  C119  1  0.31010000  0.44370000  0.32657000  1.0 -0.1112447583
C  C120  1  0.13360000  0.68990000  0.65990000  1.0 -0.1112447583
C  C121  1  0.45240000  0.07950000  0.48355000  1.0 -0.1623798966
C  C122  1  0.62710000  0.54760000  0.81688000  1.0 -0.1623798966
C  C123  1  0.92050000  0.37290000  0.15021000  1.0 -0.1623798966
C  C124  1  0.54760000  0.92050000  0.98355000  1.0 -0.1623798966
C  C125  1  0.37290000  0.45240000  0.31688000  1.0 -0.1623798966
C  C126  1  0.07950000  0.62710000  0.65021000  1.0 -0.1623798966
C  C127  1  0.39550000  0.03150000  0.47424000  1.0 0.0598324767
C  C128  1  0.63600000  0.60450000  0.80757000  1.0 0.0598324767
C  C129  1  0.96850000  0.36400000  0.14090000  1.0 0.0598324767
C  C130  1  0.60450000  0.96850000  0.97424000  1.0 0.0598324767
C  C131  1  0.36400000  0.39550000  0.30757000  1.0 0.0598324767
C  C132  1  0.03150000  0.63600000  0.64090000  1.0 0.0598324767
C  C133  1  0.32970000  0.02760000  0.47514000  1.0 0.0793604195
C  C134  1  0.69790000  0.67030000  0.80847000  1.0 0.0715513546
C  C135  1  0.97240000  0.30210000  0.14180000  1.0 0.0793604195
C  C136  1  0.67030000  0.97240000  0.97514000  1.0 0.0715513546
C  C137  1  0.30210000  0.32970000  0.30847000  1.0 0.0793604195
C  C138  1  0.02760000  0.69790000  0.64180000  1.0 0.0793604195
C  C139  1  0.31980000  0.07690000  0.48404000  1.0 -0.1651815411
C  C140  1  0.75710000  0.68020000  0.81737000  1.0 -0.1623798966
C  C141  1  0.92310000  0.24290000  0.15070000  1.0 -0.1651815411
C  C142  1  0.68020000  0.92310000  0.98404000  1.0 -0.1623798966
C  C143  1  0.24290000  0.31980000  0.31737000  1.0 -0.1623798966
C  C144  1  0.07690000  0.75710000  0.65070000  1.0 -0.1651815411
C  C145  1  0.37700000  0.12730000  0.49325000  1.0 -0.0931821775
C  C146  1  0.75030000  0.62300000  0.82658000  1.0 -0.0931821775
C  C147  1  0.87270000  0.24970000  0.15991000  1.0 -0.0931821775
C  C148  1  0.62300000  0.87270000  0.99325000  1.0 -0.0931821775
C  C149  1  0.24970000  0.37700000  0.32658000  1.0 -0.0931821775
C  C150  1  0.12730000  0.75030000  0.65991000  1.0 -0.0931821775
C  C151  1  0.39060000  0.97110000  0.46248000  1.0 -0.282554001
C  C152  1  0.58050000  0.60940000  0.79581000  1.0 -0.282554001
C  C153  1  0.02890000  0.41950000  0.12914000  1.0 -0.282554001
C  C154  1  0.60940000  0.02890000  0.96248000  1.0 -0.282554001
C  C155  1  0.41950000  0.39060000  0.29581000  1.0 -0.282554001
C  C156  1  0.97110000  0.58050000  0.62914000  1.0 -0.282554001
C  C157  1  0.32290000  0.95150000  0.45195000  1.0 0.2140281817
C  C158  1  0.62860000  0.67710000  0.78528000  1.0 0.2140281817
C  C159  1  0.04850000  0.37140000  0.11861000  1.0 0.2140281817
C  C160  1  0.67710000  0.04850000  0.95195000  1.0 0.2140281817
C  C161  1  0.37140000  0.32290000  0.28528000  1.0 0.2140281817
C  C162  1  0.95150000  0.62860000  0.61861000  1.0 0.2140281817
C  C163  1  0.27260000  0.95840000  0.46475000  1.0 -0.2907556444
C  C164  1  0.68580000  0.72740000  0.79808000  1.0 -0.2907556444
C  C165  1  0.04160000  0.31420000  0.13141000  1.0 -0.2907556444
C  C166  1  0.72740000  0.04160000  0.96475000  1.0 -0.2907556444
C  C167  1  0.31420000  0.27260000  0.29808000  1.0 -0.2907556444
C  C168  1  0.95840000  0.68580000  0.63141000  1.0 -0.2907556444
C  C169  1  0.28950000  0.87280000  0.44563000  1.0 -0.282554001
C  C170  1  0.58330000  0.71050000  0.77896000  1.0 -0.282554001
C  C171  1  0.12720000  0.41670000  0.11229000  1.0 -0.282554001
C  C172  1  0.71050000  0.12720000  0.94563000  1.0 -0.282554001
C  C173  1  0.41670000  0.28950000  0.27896000  1.0 -0.282554001
C  C174  1  0.87280000  0.58330000  0.61229000  1.0 -0.282554001
C  C175  1  0.32020000  0.88200000  0.42754000  1.0 0.0598324767
C  C176  1  0.56180000  0.67980000  0.76087000  1.0 0.0598324767
C  C177  1  0.11800000  0.43820000  0.09420000  1.0 0.0598324767
C  C178  1  0.67980000  0.11800000  0.92754000  1.0 0.0598324767
C  C179  1  0.43820000  0.32020000  0.26087000  1.0 0.0715513546
C  C180  1  0.88200000  0.56180000  0.59420000  1.0 0.0598324767
C  C181  1  0.34890000  0.95130000  0.42203000  1.0 0.0893435448
C  C182  1  0.60240000  0.65110000  0.75536000  1.0 0.0893435448
C  C183  1  0.04870000  0.39760000  0.08869000  1.0 0.0893435448
C  C184  1  0.65110000  0.04870000  0.92203000  1.0 0.0893435448
C  C185  1  0.39760000  0.34890000  0.25536000  1.0 0.0893435448
C  C186  1  0.95130000  0.60240000  0.58869000  1.0 0.0893435448
C  C187  1  0.33930000  0.99500000  0.43610000  1.0 -0.3010713892
C  C188  1  0.65570000  0.66070000  0.76943000  1.0 -0.3010713892
C  C189  1  0.00500000  0.34430000  0.10276000  1.0 -0.3010713892
C  C190  1  0.66070000  0.00500000  0.93610000  1.0 -0.3010713892
C  C191  1  0.34430000  0.33930000  0.26943000  1.0 -0.3010713892
C  C192  1  0.99500000  0.65570000  0.60276000  1.0 -0.3010713892
C  C193  1  0.31930000  0.83080000  0.41646000  1.0 -0.150916797
C  C194  1  0.51150000  0.68070000  0.74979000  1.0 -0.150916797
C  C195  1  0.16920000  0.48850000  0.08312000  1.0 -0.150916797
C  C196  1  0.68070000  0.16920000  0.91646000  1.0 -0.150916797
C  C197  1  0.48850000  0.31930000  0.24979000  1.0 -0.150916797
C  C198  1  0.83080000  0.51150000  0.58312000  1.0 -0.150916797
C  C199  1  0.34570000  0.84950000  0.39971000  1.0 -0.0599677301
C  C200  1  0.50380000  0.65430000  0.73304000  1.0 -0.0599677301
C  C201  1  0.15050000  0.49620000  0.06637000  1.0 -0.0599677301
C  C202  1  0.65430000  0.15050000  0.89971000  1.0 -0.0599677301
C  C203  1  0.49620000  0.34570000  0.23304000  1.0 -0.0599677301
C  C204  1  0.84950000  0.50380000  0.56637000  1.0 -0.0599677301
C  C205  1  0.37480000  0.91920000  0.39417000  1.0 -0.1112447583
C  C206  1  0.54440000  0.62520000  0.72750000  1.0 -0.1112447583
C  C207  1  0.08080000  0.45560000  0.06083000  1.0 -0.1112447583
C  C208  1  0.62520000  0.08080000  0.89417000  1.0 -0.1112447583
C  C209  1  0.45560000  0.37480000  0.22750000  1.0 -0.1112447583
C  C210  1  0.91920000  0.54440000  0.56083000  1.0 -0.1112447583
C  C211  1  0.37830000  0.97130000  0.40447000  1.0 -0.1623798966
C  C212  1  0.59300000  0.62170000  0.73780000  1.0 -0.1623798966
C  C213  1  0.02870000  0.40700000  0.07113000  1.0 -0.1623798966
C  C214  1  0.62170000  0.02870000  0.90447000  1.0 -0.1623798966
C  C215  1  0.40700000  0.37830000  0.23780000  1.0 -0.1623798966
C  C216  1  0.97130000  0.59300000  0.57113000  1.0 -0.1623798966
C  C217  1  0.34040000  0.79210000  0.38860000  1.0 0.5862912649
C  C218  1  0.45170000  0.65960000  0.72193000  1.0 0.5862912649
C  C219  1  0.20790000  0.54830000  0.05526000  1.0 0.5862912649
C  C220  1  0.65960000  0.20790000  0.88860000  1.0 0.5862912649
C  C221  1  0.54830000  0.34040000  0.22193000  1.0 0.5862912649
C  C222  1  0.79210000  0.45170000  0.55526000  1.0 0.5862912649
C  C223  1  0.49910000  0.18370000  0.50363000  1.0 0.5486210597
C  C224  1  0.68460000  0.50090000  0.83696000  1.0 0.5486210597
C  C225  1  0.81630000  0.31540000  0.17029000  1.0 0.5486210597
C  C226  1  0.50090000  0.81630000  0.00363000  1.0 0.5486210597
C  C227  1  0.31540000  0.49910000  0.33696000  1.0 0.5486210597
C  C228  1  0.18370000  0.68460000  0.67029000  1.0 0.5486210597
C  C229  1  0.82880000  0.29120000  0.49453000  1.0 -0.0275791871
C  C230  1  0.46240000  0.17120000  0.82786000  1.0 -0.0275791871
C  C231  1  0.70880000  0.53760000  0.16119000  1.0 -0.0275791871
C  C232  1  0.17120000  0.70880000  0.99453000  1.0 -0.0275791871
C  C233  1  0.53760000  0.82880000  0.32786000  1.0 -0.0275791871
C  C234  1  0.29120000  0.46240000  0.66119000  1.0 -0.0275791871
C  C235  1  0.88180000  0.35770000  0.49048000  1.0 -0.1623798966
C  C236  1  0.47590000  0.11820000  0.82381000  1.0 -0.1623798966
C  C237  1  0.64230000  0.52410000  0.15714000  1.0 -0.1623798966
C  C238  1  0.11820000  0.64230000  0.99048000  1.0 -0.1623798966
C  C239  1  0.52410000  0.88180000  0.32381000  1.0 -0.1623798966
C  C240  1  0.35770000  0.47590000  0.65714000  1.0 -0.1623798966
C  C241  1  0.93190000  0.36850000  0.47828000  1.0 0.0715513546
C  C242  1  0.43660000  0.06810000  0.81161000  1.0 0.0715513546
C  C243  1  0.63150000  0.56340000  0.14494000  1.0 0.0715513546
C  C244  1  0.06810000  0.63150000  0.97828000  1.0 0.0715513546
C  C245  1  0.56340000  0.93190000  0.31161000  1.0 0.0715513546
C  C246  1  0.36850000  0.43660000  0.64494000  1.0 0.0715513546
C  C247  1  0.93580000  0.30720000  0.47163000  1.0 0.0793604195
C  C248  1  0.37140000  0.06420000  0.80496000  1.0 0.0793604195
C  C249  1  0.69280000  0.62860000  0.13829000  1.0 0.0793604195
C  C250  1  0.06420000  0.69280000  0.97163000  1.0 0.0793604195
C  C251  1  0.62860000  0.93580000  0.30496000  1.0 0.0793604195
C  C252  1  0.30720000  0.37140000  0.63829000  1.0 0.0793604195
C  C253  1  0.88080000  0.23690000  0.47627000  1.0 -0.1860778418
C  C254  1  0.35610000  0.11920000  0.80960000  1.0 -0.1860778418
C  C255  1  0.76310000  0.64390000  0.14293000  1.0 -0.1860778418
C  C256  1  0.11920000  0.76310000  0.97627000  1.0 -0.1860778418
C  C257  1  0.64390000  0.88080000  0.30960000  1.0 -0.1860778418
C  C258  1  0.23690000  0.35610000  0.64293000  1.0 -0.1860778418
C  C259  1  0.82890000  0.23150000  0.48723000  1.0 -0.1192205321
C  C260  1  0.40260000  0.17110000  0.82056000  1.0 -0.1192205321
C  C261  1  0.76850000  0.59740000  0.15389000  1.0 -0.1192205321
C  C262  1  0.17110000  0.76850000  0.98723000  1.0 -0.1192205321
C  C263  1  0.59740000  0.82890000  0.32056000  1.0 -0.1192205321
C  C264  1  0.23150000  0.40260000  0.65389000  1.0 -0.1192205321
C  C265  1  0.98950000  0.43520000  0.46986000  1.0 -0.3010713892
C  C266  1  0.44570000  0.01050000  0.80319000  1.0 -0.3010713892
C  C267  1  0.56480000  0.55430000  0.13652000  1.0 -0.3010713892
C  C268  1  0.01050000  0.56480000  0.96986000  1.0 -0.3010713892
C  C269  1  0.55430000  0.98950000  0.30319000  1.0 -0.3010713892
C  C270  1  0.43520000  0.44570000  0.63652000  1.0 -0.3010713892
C  C271  1  0.01050000  0.41170000  0.45425000  1.0 0.2034404601
C  C272  1  0.40120000  0.98950000  0.78758000  1.0 0.2034404601
C  C273  1  0.58830000  0.59880000  0.12091000  1.0 0.2034404601
C  C274  1  0.98950000  0.58830000  0.95425000  1.0 0.2034404601
C  C275  1  0.59880000  0.01050000  0.28758000  1.0 0.2034404601
C  C276  1  0.41170000  0.40120000  0.62091000  1.0 0.2034404601
C  C277  1  0.99790000  0.33440000  0.45919000  1.0 -0.282554001
C  C278  1  0.33650000  0.00210000  0.79252000  1.0 -0.282554001
C  C279  1  0.66560000  0.66350000  0.12585000  1.0 -0.282554001
C  C280  1  0.00210000  0.66560000  0.95919000  1.0 -0.282554001
C  C281  1  0.66350000  0.99790000  0.29252000  1.0 -0.282554001
C  C282  1  0.33440000  0.33650000  0.62585000  1.0 -0.282554001
C  C283  1  0.08680000  0.45990000  0.44806000  1.0 -0.3166343047
C  C284  1  0.37310000  0.91320000  0.78139000  1.0 -0.3166343047
C  C285  1  0.54010000  0.62690000  0.11472000  1.0 -0.3166343047
C  C286  1  0.91320000  0.54010000  0.94806000  1.0 -0.3166343047
C  C287  1  0.62690000  0.08680000  0.28139000  1.0 -0.3166343047
C  C288  1  0.45990000  0.37310000  0.61472000  1.0 -0.3166343047
C  C289  1  0.08460000  0.45560000  0.42887000  1.0 0.0598324767
C  C290  1  0.37100000  0.91540000  0.76220000  1.0 0.0598324767
C  C291  1  0.54440000  0.62900000  0.09553000  1.0 0.0598324767
C  C292  1  0.91540000  0.54440000  0.92887000  1.0 0.0598324767
C  C293  1  0.62900000  0.08460000  0.26220000  1.0 0.0598324767
C  C294  1  0.45560000  0.37100000  0.59553000  1.0 0.0598324767
C  C295  1  0.01680000  0.41990000  0.42424000  1.0 0.0514807733
C  C296  1  0.40310000  0.98320000  0.75757000  1.0 0.0514807733
C  C297  1  0.58010000  0.59690000  0.09090000  1.0 0.0514807733
C  C298  1  0.98320000  0.58010000  0.92424000  1.0 0.0514807733
C  C299  1  0.59690000  0.01680000  0.25757000  1.0 0.0514807733
C  C300  1  0.41990000  0.40310000  0.59090000  1.0 0.0514807733
C  C301  1  0.96717000  0.40350000  0.43867000  1.0 -0.3060459482
C  C302  1  0.43633000  0.03283000  0.77200000  1.0 -0.3060459482
C  C303  1  0.59650000  0.56367000  0.10533000  1.0 -0.3060459482
C  C304  1  0.03283000  0.59650000  0.93867000  1.0 -0.3060459482
C  C305  1  0.56367000  0.96717000  0.27200000  1.0 -0.3060459482
C  C306  1  0.40350000  0.43633000  0.60533000  1.0 -0.3060459482
C  C307  1  0.14264000  0.48983000  0.41776000  1.0 -0.150916797
C  C308  1  0.34719000  0.85736000  0.75109000  1.0 -0.150916797
C  C309  1  0.51017000  0.65281000  0.08442000  1.0 -0.150916797
C  C310  1  0.85736000  0.51017000  0.91776000  1.0 -0.150916797
C  C311  1  0.65281000  0.14264000  0.25109000  1.0 -0.150916797
C  C312  1  0.48983000  0.34719000  0.58442000  1.0 -0.150916797
C  C313  1  0.12770000  0.48390000  0.40005000  1.0 -0.0407197413
C  C314  1  0.35620000  0.87230000  0.73338000  1.0 -0.0407197413
C  C315  1  0.51610000  0.64380000  0.06671000  1.0 -0.0407197413
C  C316  1  0.87230000  0.51610000  0.90005000  1.0 -0.0407197413
C  C317  1  0.64380000  0.12770000  0.23338000  1.0 -0.0407197413
C  C318  1  0.48390000  0.35620000  0.56671000  1.0 -0.0407197413
C  C319  1  0.05600000  0.44680000  0.39454000  1.0 -0.1112447583
C  C320  1  0.39080000  0.94400000  0.72787000  1.0 -0.1112447583
C  C321  1  0.55320000  0.60920000  0.06120000  1.0 -0.1112447583
C  C322  1  0.94400000  0.55320000  0.89454000  1.0 -0.1112447583
C  C323  1  0.60920000  0.05600000  0.22787000  1.0 -0.1112447583
C  C324  1  0.44680000  0.39080000  0.56120000  1.0 -0.1112447583
C  C325  1  0.00470000  0.41750000  0.40590000  1.0 -0.150916797
C  C326  1  0.41280000  0.99530000  0.73923000  1.0 -0.150916797
C  C327  1  0.58250000  0.58720000  0.07256000  1.0 -0.150916797
C  C328  1  0.99530000  0.58250000  0.90590000  1.0 -0.150916797
C  C329  1  0.58720000  0.00470000  0.23923000  1.0 -0.150916797
C  C330  1  0.41750000  0.41280000  0.57256000  1.0 -0.150916797
C  C331  1  0.18790000  0.52400000  0.38777000  1.0 0.5794266376
C  C332  1  0.33610000  0.81210000  0.72110000  1.0 0.5794266376
C  C333  1  0.47600000  0.66390000  0.05443000  1.0 0.5794266376
C  C334  1  0.81210000  0.47600000  0.88777000  1.0 0.5794266376
C  C335  1  0.66390000  0.18790000  0.22110000  1.0 0.5794266376
C  C336  1  0.52400000  0.33610000  0.55443000  1.0 0.5794266376
C  C337  1  0.77050000  0.28220000  0.50708000  1.0 0.563092546
C  C338  1  0.51170000  0.22950000  0.84041000  1.0 0.563092546
C  C339  1  0.71780000  0.48830000  0.17374000  1.0 0.563092546
C  C340  1  0.22950000  0.71780000  0.00708000  1.0 0.563092546
C  C341  1  0.48830000  0.77050000  0.34041000  1.0 0.563092546
C  C342  1  0.28220000  0.51170000  0.67374000  1.0 0.563092546
C  C343  1  0.13700000  0.64150000  0.09718000  1.0 -0.0407197413
C  C344  1  0.35850000  0.49550000  0.76385000  1.0 -0.0407197413
C  C345  1  0.50450000  0.86300000  0.43051000  1.0 -0.0407197413
C  C346  1  0.86300000  0.35850000  0.59718000  1.0 -0.0407197413
C  C347  1  0.64150000  0.50450000  0.26385000  1.0 -0.0407197413
C  C348  1  0.49550000  0.13700000  0.93051000  1.0 -0.0407197413
C  C349  1  0.15946000  0.66504000  0.08082000  1.0 -0.1623798966
C  C350  1  0.33496000  0.49442000  0.74749000  1.0 -0.1623798966
C  C351  1  0.50558000  0.84054000  0.41415000  1.0 -0.1623798966
C  C352  1  0.84054000  0.33496000  0.58082000  1.0 -0.1623798966
C  C353  1  0.66504000  0.50558000  0.24749000  1.0 -0.1623798966
C  C354  1  0.49442000  0.15946000  0.91415000  1.0 -0.1623798966
C  C355  1  0.11270000  0.66750000  0.06914000  1.0 0.0715513546
C  C356  1  0.33250000  0.44520000  0.73581000  1.0 0.0793604195
C  C357  1  0.55480000  0.88730000  0.40247000  1.0 0.0715513546
C  C358  1  0.88730000  0.33250000  0.56914000  1.0 0.0793604195
C  C359  1  0.66750000  0.55480000  0.23581000  1.0 0.0715513546
C  C360  1  0.44520000  0.11270000  0.90247000  1.0 0.0793604195
C  C361  1  0.04130000  0.64300000  0.07321000  1.0 0.0793604195
C  C362  1  0.35700000  0.39830000  0.73988000  1.0 0.0793604195
C  C363  1  0.60170000  0.95870000  0.40654000  1.0 0.0793604195
C  C364  1  0.95870000  0.35700000  0.57321000  1.0 0.0793604195
C  C365  1  0.64300000  0.60170000  0.23988000  1.0 0.0793604195
C  C366  1  0.39830000  0.04130000  0.90654000  1.0 0.0793604195
C  C367  1  0.01740000  0.61770000  0.08990000  1.0 -0.1780635416
C  C368  1  0.38230000  0.39970000  0.75657000  1.0 -0.1780635416
C  C369  1  0.60030000  0.98260000  0.42323000  1.0 -0.1780635416
C  C370  1  0.98260000  0.38230000  0.58990000  1.0 -0.1780635416
C  C371  1  0.61770000  0.60030000  0.25657000  1.0 -0.1780635416
C  C372  1  0.39970000  0.01740000  0.92323000  1.0 -0.1780635416
C  C373  1  0.06400000  0.61700000  0.10228000  1.0 -0.1192205321
C  C374  1  0.38300000  0.44700000  0.76895000  1.0 -0.1192205321
C  C375  1  0.55300000  0.93600000  0.43561000  1.0 -0.1192205321
C  C376  1  0.93600000  0.38300000  0.60228000  1.0 -0.1192205321
C  C377  1  0.61700000  0.55300000  0.26895000  1.0 -0.1192205321
C  C378  1  0.44700000  0.06400000  0.93561000  1.0 -0.1192205321
C  C379  1  0.12890000  0.69720000  0.05083000  1.0 -0.2907556444
C  C380  1  0.30280000  0.43170000  0.71750000  1.0 -0.2907556444
C  C381  1  0.56830000  0.87110000  0.38416000  1.0 -0.2907556444
C  C382  1  0.87110000  0.30280000  0.55083000  1.0 -0.2907556444
C  C383  1  0.69720000  0.56830000  0.21750000  1.0 -0.2907556444
C  C384  1  0.43170000  0.12890000  0.88416000  1.0 -0.2907556444
C  C385  1  0.05240000  0.66160000  0.04241000  1.0 0.2152600351
C  C386  1  0.33840000  0.39080000  0.70908000  1.0 0.2140281817
C  C387  1  0.60920000  0.94760000  0.37574000  1.0 0.2140281817
C  C388  1  0.94760000  0.33840000  0.54241000  1.0 0.2140281817
C  C389  1  0.66160000  0.60920000  0.20908000  1.0 0.2140281817
C  C390  1  0.39080000  0.05240000  0.87574000  1.0 0.2140281817
C  C391  1  0.00090000  0.65370000  0.05904000  1.0 -0.3166343047
C  C392  1  0.34630000  0.34720000  0.72571000  1.0 -0.3166343047
C  C393  1  0.65280000  0.99910000  0.39237000  1.0 -0.3166343047
C  C394  1  0.99910000  0.34630000  0.55904000  1.0 -0.3166343047
C  C395  1  0.65370000  0.65280000  0.22571000  1.0 -0.3166343047
C  C396  1  0.34720000  0.00090000  0.89237000  1.0 -0.3166343047
C  C397  1  0.02700000  0.59130000  0.03464000  1.0 -0.2907556444
C  C398  1  0.40870000  0.43570000  0.70131000  1.0 -0.2907556444
C  C399  1  0.56430000  0.97300000  0.36797000  1.0 -0.2907556444
C  C400  1  0.97300000  0.40870000  0.53464000  1.0 -0.2907556444
C  C401  1  0.59130000  0.56430000  0.20131000  1.0 -0.2907556444
C  C402  1  0.43570000  0.02700000  0.86797000  1.0 -0.2907556444
C  C403  1  0.97060000  0.58630000  0.02156000  1.0 0.0514807733
C  C404  1  0.41370000  0.38430000  0.68823000  1.0 0.0514807733
C  C405  1  0.61570000  0.02940000  0.35489000  1.0 0.0514807733
C  C406  1  0.02940000  0.41370000  0.52156000  1.0 0.0514807733
C  C407  1  0.58630000  0.61570000  0.18823000  1.0 0.0514807733
C  C408  1  0.38430000  0.97060000  0.85489000  1.0 0.0514807733
C  C409  1  0.98050000  0.65030000  0.01814000  1.0 0.0598324767
C  C410  1  0.34970000  0.33020000  0.68481000  1.0 0.0598324767
C  C411  1  0.66980000  0.01950000  0.35147000  1.0 0.0598324767
C  C412  1  0.01950000  0.34970000  0.51814000  1.0 0.0598324767
C  C413  1  0.65030000  0.66980000  0.18481000  1.0 0.0598324767
C  C414  1  0.33020000  0.98050000  0.85147000  1.0 0.0598324767
C  C415  1  0.04260000  0.70670000  0.02778000  1.0 -0.2907556444
C  C416  1  0.29330000  0.33590000  0.69445000  1.0 -0.2907556444
C  C417  1  0.66410000  0.95740000  0.36111000  1.0 -0.2907556444
C  C418  1  0.95740000  0.29330000  0.52778000  1.0 -0.2907556444
C  C419  1  0.70670000  0.66410000  0.19445000  1.0 -0.2907556444
C  C420  1  0.33590000  0.04260000  0.86111000  1.0 -0.2907556444
C  C421  1  0.91760000  0.52300000  0.01332000  1.0 -0.150916797
C  C422  1  0.47700000  0.39460000  0.67999000  1.0 -0.150916797
C  C423  1  0.60540000  0.08240000  0.34665000  1.0 -0.150916797
C  C424  1  0.08240000  0.47700000  0.51332000  1.0 -0.150916797
C  C425  1  0.52300000  0.60540000  0.17999000  1.0 -0.150916797
C  C426  1  0.39460000  0.91760000  0.84665000  1.0 -0.150916797
C  C427  1  0.87270000  0.52850000  0.00211000  1.0 -0.0511424857
C  C428  1  0.47150000  0.34420000  0.66878000  1.0 -0.0511424857
C  C429  1  0.65580000  0.12730000  0.33544000  1.0 -0.0511424857
C  C430  1  0.12730000  0.47150000  0.50211000  1.0 -0.0511424857
C  C431  1  0.52850000  0.65580000  0.16878000  1.0 -0.0511424857
C  C432  1  0.34420000  0.87270000  0.83544000  1.0 -0.0511424857
C  C433  1  0.88440000  0.59730000  0.99850000  1.0 -0.1002641959
C  C434  1  0.40270000  0.28710000  0.66517000  1.0 -0.1002641959
C  C435  1  0.71290000  0.11560000  0.33183000  1.0 -0.1002641959
C  C436  1  0.11560000  0.40270000  0.49850000  1.0 -0.1002641959
C  C437  1  0.59730000  0.71290000  0.16517000  1.0 -0.1002641959
C  C438  1  0.28710000  0.88440000  0.83183000  1.0 -0.1002641959
C  C439  1  0.93750000  0.65920000  0.00672000  1.0 -0.1780635416
C  C440  1  0.34080000  0.27830000  0.67339000  1.0 -0.1780635416
C  C441  1  0.72170000  0.06250000  0.34005000  1.0 -0.1780635416
C  C442  1  0.06250000  0.34080000  0.50672000  1.0 -0.1780635416
C  C443  1  0.65920000  0.72170000  0.17339000  1.0 -0.1780635416
C  C444  1  0.27830000  0.93750000  0.84005000  1.0 -0.1780635416
C  C445  1  0.81730000  0.46480000  0.99282000  1.0 0.5794266376
C  C446  1  0.53520000  0.35250000  0.65949000  1.0 0.5794266376
C  C447  1  0.64750000  0.18270000  0.32615000  1.0 0.5794266376
C  C448  1  0.18270000  0.53520000  0.49282000  1.0 0.5794266376
C  C449  1  0.46480000  0.64750000  0.15949000  1.0 0.5794266376
C  C450  1  0.35250000  0.81730000  0.82615000  1.0 0.5794266376
C  C451  1  0.18851000  0.64215000  0.11002000  1.0 0.5794266376
C  C452  1  0.35785000  0.54636000  0.77669000  1.0 0.5794266376
C  C453  1  0.45364000  0.81149000  0.44335000  1.0 0.5794266376
C  C454  1  0.81149000  0.35785000  0.61002000  1.0 0.5794266376
C  C455  1  0.64215000  0.45364000  0.27669000  1.0 0.5794266376
C  C456  1  0.54636000  0.18851000  0.94335000  1.0 0.5794266376
C  C457  1  0.13360000  0.44370000  0.17343000  1.0 -0.1112447583
C  C458  1  0.55630000  0.68990000  0.84010000  1.0 -0.1112447583
C  C459  1  0.31010000  0.86640000  0.50676000  1.0 -0.1112447583
C  C460  1  0.86640000  0.55630000  0.67343000  1.0 -0.1112447583
C  C461  1  0.44370000  0.31010000  0.34010000  1.0 -0.1112447583
C  C462  1  0.68990000  0.13360000  0.00676000  1.0 -0.1112447583
C  C463  1  0.07950000  0.45240000  0.18312000  1.0 -0.1623798966
C  C464  1  0.54760000  0.62710000  0.84979000  1.0 -0.1623798966
C  C465  1  0.37290000  0.92050000  0.51645000  1.0 -0.1623798966
C  C466  1  0.92050000  0.54760000  0.68312000  1.0 -0.1623798966
C  C467  1  0.45240000  0.37290000  0.34979000  1.0 -0.1623798966
C  C468  1  0.62710000  0.07950000  0.01645000  1.0 -0.1623798966
C  C469  1  0.03150000  0.39550000  0.19243000  1.0 0.0598324767
C  C470  1  0.60450000  0.63600000  0.85910000  1.0 0.0598324767
C  C471  1  0.36400000  0.96850000  0.52576000  1.0 0.0598324767
C  C472  1  0.96850000  0.60450000  0.69243000  1.0 0.0598324767
C  C473  1  0.39550000  0.36400000  0.35910000  1.0 0.0598324767
C  C474  1  0.63600000  0.03150000  0.02576000  1.0 0.0598324767
C  C475  1  0.02760000  0.32970000  0.19153000  1.0 0.0793604195
C  C476  1  0.67030000  0.69790000  0.85820000  1.0 0.0715513546
C  C477  1  0.30210000  0.97240000  0.52486000  1.0 0.0715513546
C  C478  1  0.97240000  0.67030000  0.69153000  1.0 0.0793604195
C  C479  1  0.32970000  0.30210000  0.35820000  1.0 0.0793604195
C  C480  1  0.69790000  0.02760000  0.02486000  1.0 0.0793604195
C  C481  1  0.07690000  0.31980000  0.18263000  1.0 -0.1651815411
C  C482  1  0.68020000  0.75710000  0.84930000  1.0 -0.1623798966
C  C483  1  0.24290000  0.92310000  0.51596000  1.0 -0.1651815411
C  C484  1  0.92310000  0.68020000  0.68263000  1.0 -0.1623798966
C  C485  1  0.31980000  0.24290000  0.34930000  1.0 -0.1623798966
C  C486  1  0.75710000  0.07690000  0.01596000  1.0 -0.1623798966
C  C487  1  0.12730000  0.37700000  0.17342000  1.0 -0.0931821775
C  C488  1  0.62300000  0.75030000  0.84009000  1.0 -0.0931821775
C  C489  1  0.24970000  0.87270000  0.50675000  1.0 -0.0931821775
C  C490  1  0.87270000  0.62300000  0.67342000  1.0 -0.0931821775
C  C491  1  0.37700000  0.24970000  0.34009000  1.0 -0.0931821775
C  C492  1  0.75030000  0.12730000  0.00675000  1.0 -0.0931821775
C  C493  1  0.97110000  0.39060000  0.20419000  1.0 -0.282554001
C  C494  1  0.60940000  0.58050000  0.87086000  1.0 -0.282554001
C  C495  1  0.41950000  0.02890000  0.53752000  1.0 -0.282554001
C  C496  1  0.02890000  0.60940000  0.70419000  1.0 -0.282554001
C  C497  1  0.39060000  0.41950000  0.37086000  1.0 -0.282554001
C  C498  1  0.58050000  0.97110000  0.03752000  1.0 -0.282554001
C  C499  1  0.95150000  0.32290000  0.21472000  1.0 0.2152600351
C  C500  1  0.67710000  0.62860000  0.88139000  1.0 0.2140281817
C  C501  1  0.37140000  0.04850000  0.54805000  1.0 0.2152600351
C  C502  1  0.04850000  0.67710000  0.71472000  1.0 0.2140281817
C  C503  1  0.32290000  0.37140000  0.38139000  1.0 0.2140281817
C  C504  1  0.62860000  0.95150000  0.04805000  1.0 0.2140281817
C  C505  1  0.95840000  0.27260000  0.20192000  1.0 -0.2907556444
C  C506  1  0.72740000  0.68580000  0.86859000  1.0 -0.2907556444
C  C507  1  0.31420000  0.04160000  0.53525000  1.0 -0.2907556444
C  C508  1  0.04160000  0.72740000  0.70192000  1.0 -0.2907556444
C  C509  1  0.27260000  0.31420000  0.36859000  1.0 -0.2907556444
C  C510  1  0.68580000  0.95840000  0.03525000  1.0 -0.2907556444
C  C511  1  0.87280000  0.28950000  0.22104000  1.0 -0.282554001
C  C512  1  0.71050000  0.58330000  0.88771000  1.0 -0.282554001
C  C513  1  0.41670000  0.12720000  0.55437000  1.0 -0.282554001
C  C514  1  0.12720000  0.71050000  0.72104000  1.0 -0.282554001
C  C515  1  0.28950000  0.41670000  0.38771000  1.0 -0.282554001
C  C516  1  0.58330000  0.87280000  0.05437000  1.0 -0.282554001
C  C517  1  0.88200000  0.32020000  0.23913000  1.0 0.0715513546
C  C518  1  0.67980000  0.56180000  0.90580000  1.0 0.0598324767
C  C519  1  0.43820000  0.11800000  0.57246000  1.0 0.0598324767
C  C520  1  0.11800000  0.67980000  0.73913000  1.0 0.0598324767
C  C521  1  0.32020000  0.43820000  0.40580000  1.0 0.0598324767
C  C522  1  0.56180000  0.88200000  0.07246000  1.0 0.0715513546
C  C523  1  0.95130000  0.34890000  0.24464000  1.0 0.0893435448
C  C524  1  0.65110000  0.60240000  0.91131000  1.0 0.0893435448
C  C525  1  0.39760000  0.04870000  0.57797000  1.0 0.0893435448
C  C526  1  0.04870000  0.65110000  0.74464000  1.0 0.0893435448
C  C527  1  0.34890000  0.39760000  0.41131000  1.0 0.0893435448
C  C528  1  0.60240000  0.95130000  0.07797000  1.0 0.0893435448
C  C529  1  0.99500000  0.33930000  0.23057000  1.0 -0.3010713892
C  C530  1  0.66070000  0.65570000  0.89724000  1.0 -0.3010713892
C  C531  1  0.34430000  0.00500000  0.56390000  1.0 -0.3010713892
C  C532  1  0.00500000  0.66070000  0.73057000  1.0 -0.3010713892
C  C533  1  0.33930000  0.34430000  0.39724000  1.0 -0.3010713892
C  C534  1  0.65570000  0.99500000  0.06390000  1.0 -0.3010713892
C  C535  1  0.83080000  0.31930000  0.25021000  1.0 -0.150916797
C  C536  1  0.68070000  0.51150000  0.91688000  1.0 -0.150916797
C  C537  1  0.48850000  0.16920000  0.58354000  1.0 -0.150916797
C  C538  1  0.16920000  0.68070000  0.75021000  1.0 -0.150916797
C  C539  1  0.31930000  0.48850000  0.41688000  1.0 -0.150916797
C  C540  1  0.51150000  0.83080000  0.08354000  1.0 -0.150916797
C  C541  1  0.84950000  0.34570000  0.26696000  1.0 -0.0599677301
C  C542  1  0.65430000  0.50380000  0.93363000  1.0 -0.0599677301
C  C543  1  0.49620000  0.15050000  0.60029000  1.0 -0.0599677301
C  C544  1  0.15050000  0.65430000  0.76696000  1.0 -0.0599677301
C  C545  1  0.34570000  0.49620000  0.43363000  1.0 -0.0599677301
C  C546  1  0.50380000  0.84950000  0.10029000  1.0 -0.0599677301
C  C547  1  0.91920000  0.37480000  0.27250000  1.0 -0.1112447583
C  C548  1  0.62520000  0.54440000  0.93917000  1.0 -0.1112447583
C  C549  1  0.45560000  0.08080000  0.60583000  1.0 -0.1112447583
C  C550  1  0.08080000  0.62520000  0.77250000  1.0 -0.1112447583
C  C551  1  0.37480000  0.45560000  0.43917000  1.0 -0.1112447583
C  C552  1  0.54440000  0.91920000  0.10583000  1.0 -0.1112447583
C  C553  1  0.97130000  0.37830000  0.26220000  1.0 -0.1623798966
C  C554  1  0.62170000  0.59300000  0.92887000  1.0 -0.1623798966
C  C555  1  0.40700000  0.02870000  0.59553000  1.0 -0.1623798966
C  C556  1  0.02870000  0.62170000  0.76220000  1.0 -0.1623798966
C  C557  1  0.37830000  0.40700000  0.42887000  1.0 -0.1623798966
C  C558  1  0.59300000  0.97130000  0.09553000  1.0 -0.1623798966
C  C559  1  0.79210000  0.34040000  0.27807000  1.0 0.5862912649
C  C560  1  0.65960000  0.45170000  0.94474000  1.0 0.5862912649
C  C561  1  0.54830000  0.20790000  0.61140000  1.0 0.5862912649
C  C562  1  0.20790000  0.65960000  0.77807000  1.0 0.5862912649
C  C563  1  0.34040000  0.54830000  0.44474000  1.0 0.5862912649
C  C564  1  0.45170000  0.79210000  0.11140000  1.0 0.5862912649
C  C565  1  0.18370000  0.49910000  0.16304000  1.0 0.5486210597
C  C566  1  0.50090000  0.68460000  0.82971000  1.0 0.5486210597
C  C567  1  0.31540000  0.81630000  0.49637000  1.0 0.5486210597
C  C568  1  0.81630000  0.50090000  0.66304000  1.0 0.5486210597
C  C569  1  0.49910000  0.31540000  0.32971000  1.0 0.5486210597
C  C570  1  0.68460000  0.18370000  0.99637000  1.0 0.5486210597
C  C571  1  0.29120000  0.82880000  0.17214000  1.0 -0.0275791871
C  C572  1  0.17120000  0.46240000  0.83881000  1.0 -0.0275791871
C  C573  1  0.53760000  0.70880000  0.50547000  1.0 -0.0275791871
C  C574  1  0.70880000  0.17120000  0.67214000  1.0 -0.0275791871
C  C575  1  0.82880000  0.53760000  0.33881000  1.0 -0.0275791871
C  C576  1  0.46240000  0.29120000  0.00547000  1.0 -0.0275791871
C  C577  1  0.35770000  0.88180000  0.17619000  1.0 -0.1623798966
C  C578  1  0.11820000  0.47590000  0.84286000  1.0 -0.1623798966
C  C579  1  0.52410000  0.64230000  0.50952000  1.0 -0.1623798966
C  C580  1  0.64230000  0.11820000  0.67619000  1.0 -0.1623798966
C  C581  1  0.88180000  0.52410000  0.34286000  1.0 -0.1623798966
C  C582  1  0.47590000  0.35770000  0.00952000  1.0 -0.1623798966
C  C583  1  0.36850000  0.93190000  0.18839000  1.0 0.0715513546
C  C584  1  0.06810000  0.43660000  0.85506000  1.0 0.0715513546
C  C585  1  0.56340000  0.63150000  0.52172000  1.0 0.0715513546
C  C586  1  0.63150000  0.06810000  0.68839000  1.0 0.0715513546
C  C587  1  0.93190000  0.56340000  0.35506000  1.0 0.0715513546
C  C588  1  0.43660000  0.36850000  0.02172000  1.0 0.0715513546
C  C589  1  0.30720000  0.93580000  0.19504000  1.0 0.0793604195
C  C590  1  0.06420000  0.37140000  0.86171000  1.0 0.0793604195
C  C591  1  0.62860000  0.69280000  0.52837000  1.0 0.0793604195
C  C592  1  0.69280000  0.06420000  0.69504000  1.0 0.0793604195
C  C593  1  0.93580000  0.62860000  0.36171000  1.0 0.0793604195
C  C594  1  0.37140000  0.30720000  0.02837000  1.0 0.0793604195
C  C595  1  0.23690000  0.88080000  0.19040000  1.0 -0.1860778418
C  C596  1  0.11920000  0.35610000  0.85707000  1.0 -0.1860778418
C  C597  1  0.64390000  0.76310000  0.52373000  1.0 -0.1860778418
C  C598  1  0.76310000  0.11920000  0.69040000  1.0 -0.1860778418
C  C599  1  0.88080000  0.64390000  0.35707000  1.0 -0.1860778418
C  C600  1  0.35610000  0.23690000  0.02373000  1.0 -0.1860778418
C  C601  1  0.23150000  0.82890000  0.17944000  1.0 -0.1192205321
C  C602  1  0.17110000  0.40260000  0.84611000  1.0 -0.1192205321
C  C603  1  0.59740000  0.76850000  0.51277000  1.0 -0.1192205321
C  C604  1  0.76850000  0.17110000  0.67944000  1.0 -0.1192205321
C  C605  1  0.82890000  0.59740000  0.34611000  1.0 -0.1192205321
C  C606  1  0.40260000  0.23150000  0.01277000  1.0 -0.1192205321
C  C607  1  0.43520000  0.98950000  0.19681000  1.0 -0.3010713892
C  C608  1  0.01050000  0.44570000  0.86348000  1.0 -0.3010713892
C  C609  1  0.55430000  0.56480000  0.53014000  1.0 -0.3010713892
C  C610  1  0.56480000  0.01050000  0.69681000  1.0 -0.3010713892
C  C611  1  0.98950000  0.55430000  0.36348000  1.0 -0.3010713892
C  C612  1  0.44570000  0.43520000  0.03014000  1.0 -0.3010713892
C  C613  1  0.41170000  0.01050000  0.21242000  1.0 0.2034404601
C  C614  1  0.98950000  0.40120000  0.87909000  1.0 0.2034404601
C  C615  1  0.59880000  0.58830000  0.54575000  1.0 0.2034404601
C  C616  1  0.58830000  0.98950000  0.71242000  1.0 0.2034404601
C  C617  1  0.01050000  0.59880000  0.37909000  1.0 0.2034404601
C  C618  1  0.40120000  0.41170000  0.04575000  1.0 0.2034404601
C  C619  1  0.33440000  0.99790000  0.20748000  1.0 -0.282554001
C  C620  1  0.00210000  0.33650000  0.87415000  1.0 -0.282554001
C  C621  1  0.66350000  0.66560000  0.54081000  1.0 -0.282554001
C  C622  1  0.66560000  0.00210000  0.70748000  1.0 -0.282554001
C  C623  1  0.99790000  0.66350000  0.37415000  1.0 -0.282554001
C  C624  1  0.33650000  0.33440000  0.04081000  1.0 -0.282554001
C  C625  1  0.45990000  0.08680000  0.21861000  1.0 -0.3166343047
C  C626  1  0.91320000  0.37310000  0.88528000  1.0 -0.3166343047
C  C627  1  0.62690000  0.54010000  0.55194000  1.0 -0.3166343047
C  C628  1  0.54010000  0.91320000  0.71861000  1.0 -0.3166343047
C  C629  1  0.08680000  0.62690000  0.38528000  1.0 -0.3166343047
C  C630  1  0.37310000  0.45990000  0.05194000  1.0 -0.3166343047
C  C631  1  0.45560000  0.08460000  0.23780000  1.0 0.0598324767
C  C632  1  0.91540000  0.37100000  0.90447000  1.0 0.0598324767
C  C633  1  0.62900000  0.54440000  0.57113000  1.0 0.0598324767
C  C634  1  0.54440000  0.91540000  0.73780000  1.0 0.0598324767
C  C635  1  0.08460000  0.62900000  0.40447000  1.0 0.0598324767
C  C636  1  0.37100000  0.45560000  0.07113000  1.0 0.0598324767
C  C637  1  0.41990000  0.01680000  0.24243000  1.0 0.0514807733
C  C638  1  0.98320000  0.40310000  0.90910000  1.0 0.0514807733
C  C639  1  0.59690000  0.58010000  0.57576000  1.0 0.0514807733
C  C640  1  0.58010000  0.98320000  0.74243000  1.0 0.0514807733
C  C641  1  0.01680000  0.59690000  0.40910000  1.0 0.0514807733
C  C642  1  0.40310000  0.41990000  0.07576000  1.0 0.0514807733
C  C643  1  0.40350000  0.96717000  0.22800000  1.0 -0.3060459482
C  C644  1  0.03283000  0.43633000  0.89467000  1.0 -0.3060459482
C  C645  1  0.56367000  0.59650000  0.56133000  1.0 -0.3060459482
C  C646  1  0.59650000  0.03283000  0.72800000  1.0 -0.3060459482
C  C647  1  0.96717000  0.56367000  0.39467000  1.0 -0.3060459482
C  C648  1  0.43633000  0.40350000  0.06133000  1.0 -0.3060459482
C  C649  1  0.48983000  0.14264000  0.24891000  1.0 -0.150916797
C  C650  1  0.85736000  0.34719000  0.91558000  1.0 -0.150916797
C  C651  1  0.65281000  0.51017000  0.58224000  1.0 -0.150916797
C  C652  1  0.51017000  0.85736000  0.74891000  1.0 -0.150916797
C  C653  1  0.14264000  0.65281000  0.41558000  1.0 -0.150916797
C  C654  1  0.34719000  0.48983000  0.08224000  1.0 -0.150916797
C  C655  1  0.48390000  0.12770000  0.26662000  1.0 -0.0407197413
C  C656  1  0.87230000  0.35620000  0.93329000  1.0 -0.0407197413
C  C657  1  0.64380000  0.51610000  0.59995000  1.0 -0.0407197413
C  C658  1  0.51610000  0.87230000  0.76662000  1.0 -0.0407197413
C  C659  1  0.12770000  0.64380000  0.43329000  1.0 -0.0407197413
C  C660  1  0.35620000  0.48390000  0.09995000  1.0 -0.0407197413
C  C661  1  0.44680000  0.05600000  0.27213000  1.0 -0.1112447583
C  C662  1  0.94400000  0.39080000  0.93880000  1.0 -0.1112447583
C  C663  1  0.60920000  0.55320000  0.60546000  1.0 -0.1112447583
C  C664  1  0.55320000  0.94400000  0.77213000  1.0 -0.1112447583
C  C665  1  0.05600000  0.60920000  0.43880000  1.0 -0.1112447583
C  C666  1  0.39080000  0.44680000  0.10546000  1.0 -0.1112447583
C  C667  1  0.41750000  0.00470000  0.26077000  1.0 -0.150916797
C  C668  1  0.99530000  0.41280000  0.92744000  1.0 -0.150916797
C  C669  1  0.58720000  0.58250000  0.59410000  1.0 -0.150916797
C  C670  1  0.58250000  0.99530000  0.76077000  1.0 -0.150916797
C  C671  1  0.00470000  0.58720000  0.42744000  1.0 -0.150916797
C  C672  1  0.41280000  0.41750000  0.09410000  1.0 -0.150916797
C  C673  1  0.52400000  0.18790000  0.27890000  1.0 0.5794266376
C  C674  1  0.81210000  0.33610000  0.94557000  1.0 0.5794266376
C  C675  1  0.66390000  0.47600000  0.61223000  1.0 0.5794266376
C  C676  1  0.47600000  0.81210000  0.77890000  1.0 0.5794266376
C  C677  1  0.18790000  0.66390000  0.44557000  1.0 0.5794266376
C  C678  1  0.33610000  0.52400000  0.11223000  1.0 0.5794266376
C  C679  1  0.28220000  0.77050000  0.15959000  1.0 0.563092546
C  C680  1  0.22950000  0.51170000  0.82626000  1.0 0.563092546
C  C681  1  0.48830000  0.71780000  0.49292000  1.0 0.563092546
C  C682  1  0.71780000  0.22950000  0.65959000  1.0 0.563092546
C  C683  1  0.77050000  0.48830000  0.32626000  1.0 0.563092546
C  C684  1  0.51170000  0.28220000  0.99292000  1.0 0.563092546
O  O1  1  0.65075000  0.32169000  0.52743000  1.0 -1.0127186812
O  O2  1  0.67094000  0.34925000  0.86076000  1.0 -1.0127186812
O  O3  1  0.67831000  0.32906000  0.19409000  1.0 -1.0127186812
O  O4  1  0.34925000  0.67831000  0.02743000  1.0 -1.0127186812
O  O5  1  0.32906000  0.65075000  0.36076000  1.0 -1.0127186812
O  O6  1  0.32169000  0.67094000  0.69409000  1.0 -1.0127186812
O  O7  1  0.62292000  0.16678000  0.54150000  1.0 -0.5400735066
O  O8  1  0.54386000  0.37708000  0.87483000  1.0 -0.5400735066
O  O9  1  0.83322000  0.45614000  0.20816000  1.0 -0.5400735066
O  O10  1  0.37708000  0.83322000  0.04150000  1.0 -0.5400735066
O  O11  1  0.45614000  0.62292000  0.37483000  1.0 -0.5400735066
O  O12  1  0.16678000  0.54386000  0.70816000  1.0 -0.5400735066
O  O13  1  0.66308000  0.25017000  0.56235000  1.0 -0.5306192623
O  O14  1  0.58709000  0.33692000  0.89568000  1.0 -0.5306192623
O  O15  1  0.74983000  0.41291000  0.22901000  1.0 -0.5306192623
O  O16  1  0.33692000  0.74983000  0.06235000  1.0 -0.5306192623
O  O17  1  0.41291000  0.66308000  0.39568000  1.0 -0.5306192623
O  O18  1  0.25017000  0.58709000  0.72901000  1.0 -0.5306192623
O  O19  1  0.40730000  0.81770000  0.67177000  1.0 -0.5306192623
O  O20  1  0.41040000  0.59270000  0.00510000  1.0 -0.5306192623
O  O21  1  0.18230000  0.58960000  0.33843000  1.0 -0.5306192623
O  O22  1  0.59270000  0.18230000  0.17177000  1.0 -0.5306192623
O  O23  1  0.58960000  0.40730000  0.50510000  1.0 -0.5306192623
O  O24  1  0.81770000  0.41040000  0.83843000  1.0 -0.5306192623
O  O25  1  0.47280000  0.77217000  0.68274000  1.0 -0.5798913178
O  O26  1  0.29937000  0.52720000  0.01607000  1.0 -0.5798913178
O  O27  1  0.22783000  0.70063000  0.34940000  1.0 -0.5798913178
O  O28  1  0.52720000  0.22783000  0.18274000  1.0 -0.5798913178
O  O29  1  0.70063000  0.47280000  0.51607000  1.0 -0.5798913178
O  O30  1  0.77217000  0.29937000  0.84940000  1.0 -0.5798913178
O  O31  1  0.55553000  0.17585000  0.50645000  1.0 -0.560922378
O  O32  1  0.62032000  0.44447000  0.83978000  1.0 -0.560922378
O  O33  1  0.82415000  0.37968000  0.17311000  1.0 -0.560922378
O  O34  1  0.44447000  0.82415000  0.00645000  1.0 -0.560922378
O  O35  1  0.37968000  0.55553000  0.33978000  1.0 -0.560922378
O  O36  1  0.17585000  0.62032000  0.67311000  1.0 -0.560922378
O  O37  1  0.49534000  0.23670000  0.50976000  1.0 -0.5400735066
O  O38  1  0.74136000  0.50466000  0.84309000  1.0 -0.5400735066
O  O39  1  0.76330000  0.25864000  0.17642000  1.0 -0.5400735066
O  O40  1  0.50466000  0.76330000  0.00976000  1.0 -0.5400735066
O  O41  1  0.25864000  0.49534000  0.34309000  1.0 -0.5400735066
O  O42  1  0.23670000  0.74136000  0.67642000  1.0 -0.5400735066
O  O43  1  0.31553000  0.73026000  0.39530000  1.0 -0.5306192623
O  O44  1  0.41473000  0.68447000  0.72863000  1.0 -0.5306192623
O  O45  1  0.26974000  0.58527000  0.06196000  1.0 -0.5306192623
O  O46  1  0.68447000  0.26974000  0.89530000  1.0 -0.5306192623
O  O47  1  0.58527000  0.31553000  0.22863000  1.0 -0.5306192623
O  O48  1  0.73026000  0.41473000  0.56196000  1.0 -0.5306192623
O  O49  1  0.35786000  0.80649000  0.37295000  1.0 -0.560922378
O  O50  1  0.44863000  0.64214000  0.70628000  1.0 -0.560922378
O  O51  1  0.19351000  0.55137000  0.03961000  1.0 -0.560922378
O  O52  1  0.64214000  0.19351000  0.87295000  1.0 -0.560922378
O  O53  1  0.55137000  0.35786000  0.20628000  1.0 -0.560922378
O  O54  1  0.80649000  0.44863000  0.53961000  1.0 -0.560922378
O  O55  1  0.71538000  0.22338000  0.50804000  1.0 -0.4908618963
O  O56  1  0.50800000  0.28462000  0.84137000  1.0 -0.4908618963
O  O57  1  0.77662000  0.49200000  0.17470000  1.0 -0.4908618963
O  O58  1  0.28462000  0.77662000  0.00804000  1.0 -0.4908618963
O  O59  1  0.49200000  0.71538000  0.34137000  1.0 -0.4908618963
O  O60  1  0.22338000  0.50800000  0.67470000  1.0 -0.4908618963
O  O61  1  0.78533000  0.33280000  0.51645000  1.0 -0.5400735066
O  O62  1  0.54747000  0.21467000  0.84978000  1.0 -0.5451949772
O  O63  1  0.66720000  0.45253000  0.18311000  1.0 -0.5400735066
O  O64  1  0.21467000  0.66720000  0.01645000  1.0 -0.5451949772
O  O65  1  0.45253000  0.78533000  0.34978000  1.0 -0.5451949772
O  O66  1  0.33280000  0.54747000  0.68311000  1.0 -0.5400735066
O  O67  1  0.24755000  0.56578000  0.39425000  1.0 -0.5400735066
O  O68  1  0.31823000  0.75245000  0.72758000  1.0 -0.5400735066
O  O69  1  0.43422000  0.68177000  0.06091000  1.0 -0.5400735066
O  O70  1  0.75245000  0.43422000  0.89425000  1.0 -0.5400735066
O  O71  1  0.68177000  0.24755000  0.22758000  1.0 -0.5400735066
O  O72  1  0.56578000  0.31823000  0.56091000  1.0 -0.5400735066
O  O73  1  0.17403000  0.51582000  0.37193000  1.0 -0.5400735066
O  O74  1  0.34179000  0.82597000  0.70526000  1.0 -0.5400735066
O  O75  1  0.48418000  0.65821000  0.03859000  1.0 -0.5400735066
O  O76  1  0.82597000  0.48418000  0.87193000  1.0 -0.5400735066
O  O77  1  0.65821000  0.17403000  0.20526000  1.0 -0.5400735066
O  O78  1  0.51582000  0.34179000  0.53859000  1.0 -0.5400735066
O  O79  1  0.32169000  0.65075000  0.13924000  1.0 -1.0127186812
O  O80  1  0.34925000  0.67094000  0.80591000  1.0 -1.0127186812
O  O81  1  0.32906000  0.67831000  0.47257000  1.0 -1.0127186812
O  O82  1  0.67831000  0.34925000  0.63924000  1.0 -1.0127186812
O  O83  1  0.65075000  0.32906000  0.30591000  1.0 -1.0127186812
O  O84  1  0.67094000  0.32169000  0.97257000  1.0 -1.0127186812
O  O85  1  0.16678000  0.62292000  0.12517000  1.0 -0.5400735066
O  O86  1  0.37708000  0.54386000  0.79184000  1.0 -0.5400735066
O  O87  1  0.45614000  0.83322000  0.45850000  1.0 -0.5400735066
O  O88  1  0.83322000  0.37708000  0.62517000  1.0 -0.5400735066
O  O89  1  0.62292000  0.45614000  0.29184000  1.0 -0.5400735066
O  O90  1  0.54386000  0.16678000  0.95850000  1.0 -0.5400735066
O  O91  1  0.25017000  0.66308000  0.10432000  1.0 -0.5306192623
O  O92  1  0.33692000  0.58709000  0.77099000  1.0 -0.5306192623
O  O93  1  0.41291000  0.74983000  0.43765000  1.0 -0.5306192623
O  O94  1  0.74983000  0.33692000  0.60432000  1.0 -0.5306192623
O  O95  1  0.66308000  0.41291000  0.27099000  1.0 -0.5306192623
O  O96  1  0.58709000  0.25017000  0.93765000  1.0 -0.5306192623
O  O97  1  0.81770000  0.40730000  0.99490000  1.0 -0.5306192623
O  O98  1  0.59270000  0.41040000  0.66157000  1.0 -0.5306192623
O  O99  1  0.58960000  0.18230000  0.32823000  1.0 -0.5306192623
O  O100  1  0.18230000  0.59270000  0.49490000  1.0 -0.5306192623
O  O101  1  0.40730000  0.58960000  0.16157000  1.0 -0.5306192623
O  O102  1  0.41040000  0.81770000  0.82823000  1.0 -0.5306192623
O  O103  1  0.77217000  0.47280000  0.98393000  1.0 -0.5798913178
O  O104  1  0.52720000  0.29937000  0.65060000  1.0 -0.5798913178
O  O105  1  0.70063000  0.22783000  0.31726000  1.0 -0.5798913178
O  O106  1  0.22783000  0.52720000  0.48393000  1.0 -0.5798913178
O  O107  1  0.47280000  0.70063000  0.15060000  1.0 -0.5798913178
O  O108  1  0.29937000  0.77217000  0.81726000  1.0 -0.5798913178
O  O109  1  0.17585000  0.55553000  0.16022000  1.0 -0.560922378
O  O110  1  0.44447000  0.62032000  0.82689000  1.0 -0.560922378
O  O111  1  0.37968000  0.82415000  0.49355000  1.0 -0.560922378
O  O112  1  0.82415000  0.44447000  0.66022000  1.0 -0.560922378
O  O113  1  0.55553000  0.37968000  0.32689000  1.0 -0.560922378
O  O114  1  0.62032000  0.17585000  0.99355000  1.0 -0.560922378
O  O115  1  0.23670000  0.49534000  0.15691000  1.0 -0.5400735066
O  O116  1  0.50466000  0.74136000  0.82358000  1.0 -0.5400735066
O  O117  1  0.25864000  0.76330000  0.49024000  1.0 -0.5400735066
O  O118  1  0.76330000  0.50466000  0.65691000  1.0 -0.5400735066
O  O119  1  0.49534000  0.25864000  0.32358000  1.0 -0.5400735066
O  O120  1  0.74136000  0.23670000  0.99024000  1.0 -0.5400735066
O  O121  1  0.73026000  0.31553000  0.27137000  1.0 -0.5306192623
O  O122  1  0.68447000  0.41473000  0.93804000  1.0 -0.5306192623
O  O123  1  0.58527000  0.26974000  0.60470000  1.0 -0.5306192623
O  O124  1  0.26974000  0.68447000  0.77137000  1.0 -0.5306192623
O  O125  1  0.31553000  0.58527000  0.43804000  1.0 -0.5306192623
O  O126  1  0.41473000  0.73026000  0.10470000  1.0 -0.5306192623
O  O127  1  0.80649000  0.35786000  0.29372000  1.0 -0.560922378
O  O128  1  0.64214000  0.44863000  0.96039000  1.0 -0.560922378
O  O129  1  0.55137000  0.19351000  0.62705000  1.0 -0.560922378
O  O130  1  0.19351000  0.64214000  0.79372000  1.0 -0.560922378
O  O131  1  0.35786000  0.55137000  0.46039000  1.0 -0.560922378
O  O132  1  0.44863000  0.80649000  0.12705000  1.0 -0.560922378
O  O133  1  0.22338000  0.71538000  0.15863000  1.0 -0.4908618963
O  O134  1  0.28462000  0.50800000  0.82530000  1.0 -0.4908618963
O  O135  1  0.49200000  0.77662000  0.49196000  1.0 -0.4908618963
O  O136  1  0.77662000  0.28462000  0.65863000  1.0 -0.4908618963
O  O137  1  0.71538000  0.49200000  0.32530000  1.0 -0.4908618963
O  O138  1  0.50800000  0.22338000  0.99196000  1.0 -0.4908618963
O  O139  1  0.33280000  0.78533000  0.15022000  1.0 -0.5451949772
O  O140  1  0.21467000  0.54747000  0.81689000  1.0 -0.5400735066
O  O141  1  0.45253000  0.66720000  0.48355000  1.0 -0.5451949772
O  O142  1  0.66720000  0.21467000  0.65022000  1.0 -0.5451949772
O  O143  1  0.78533000  0.45253000  0.31689000  1.0 -0.5400735066
O  O144  1  0.54747000  0.33280000  0.98355000  1.0 -0.5400735066
O  O145  1  0.56578000  0.24755000  0.27242000  1.0 -0.5400735066
O  O146  1  0.75245000  0.31823000  0.93909000  1.0 -0.5400735066
O  O147  1  0.68177000  0.43422000  0.60575000  1.0 -0.5400735066
O  O148  1  0.43422000  0.75245000  0.77242000  1.0 -0.5400735066
O  O149  1  0.24755000  0.68177000  0.43909000  1.0 -0.5400735066
O  O150  1  0.31823000  0.56578000  0.10575000  1.0 -0.5400735066
O  O151  1  0.51582000  0.17403000  0.29474000  1.0 -0.5400735066
O  O152  1  0.82597000  0.34179000  0.96141000  1.0 -0.5400735066
O  O153  1  0.65821000  0.48418000  0.62807000  1.0 -0.5400735066
O  O154  1  0.48418000  0.82597000  0.79474000  1.0 -0.5400735066
O  O155  1  0.17403000  0.65821000  0.46141000  1.0 -0.5400735066
O  O156  1  0.34179000  0.51582000  0.12807000  1.0 -0.5400735066
