# DDEC6 charges by PACMAN v1.1 (https://github.com/mtap-research/PACMAN-charge/)
data_RAFRUL_ion_pacman
_symmetry_space_group_name_H-M   'P 1'
_cell_length_a   21.85000000
_cell_length_b   21.85000000
_cell_length_c   21.85000000
_cell_angle_alpha   90.00000000
_cell_angle_beta   90.00000000
_cell_angle_gamma   90.00000000
_symmetry_Int_Tables_number   1
_chemical_formula_structural   Ag4P3H39C18N12OF18
_chemical_formula_sum   'Ag32 P24 H312 C144 N96 O8 F144'
_cell_volume   10431.68162500
_cell_formula_units_Z   8
loop_
 _symmetry_equiv_pos_site_id
 _symmetry_equiv_pos_as_xyz
  1  'x, y, z'
loop_
 _atom_site_type_symbol
 _atom_site_label
 _atom_site_symmetry_multiplicity
 _atom_site_fract_x
 _atom_site_fract_y
 _atom_site_fract_z
 _atom_site_occupancy
 _atom_site_charge
Ag  Ag1  1  0.30484000  0.80484000  0.69516000  1.0 0.3021685552
Ag  Ag2  1  0.19516000  0.19516000  0.19516000  1.0 0.3021685552
Ag  Ag3  1  0.80484000  0.69516000  0.30484000  1.0 0.3021685552
Ag  Ag4  1  0.69516000  0.30484000  0.80484000  1.0 0.3021685552
Ag  Ag5  1  0.69516000  0.19516000  0.30484000  1.0 0.3021685552
Ag  Ag6  1  0.80484000  0.80484000  0.80484000  1.0 0.3021685552
Ag  Ag7  1  0.19516000  0.30484000  0.69516000  1.0 0.3021685552
Ag  Ag8  1  0.30484000  0.69516000  0.19516000  1.0 0.3021685552
Ag  Ag9  1  0.96005000  0.21755000  0.83217000  1.0 0.3920264849
Ag  Ag10  1  0.53995000  0.78245000  0.33217000  1.0 0.3920264849
Ag  Ag11  1  0.46005000  0.28245000  0.16783000  1.0 0.3920264849
Ag  Ag12  1  0.83217000  0.96005000  0.21755000  1.0 0.3920264849
Ag  Ag13  1  0.03995000  0.71755000  0.66783000  1.0 0.3920264849
Ag  Ag14  1  0.66783000  0.03995000  0.71755000  1.0 0.3920264849
Ag  Ag15  1  0.33217000  0.53995000  0.78245000  1.0 0.3920264849
Ag  Ag16  1  0.16783000  0.46005000  0.28245000  1.0 0.3920264849
Ag  Ag17  1  0.21755000  0.83217000  0.96005000  1.0 0.3920264849
Ag  Ag18  1  0.71755000  0.66783000  0.03995000  1.0 0.3920264849
Ag  Ag19  1  0.78245000  0.33217000  0.53995000  1.0 0.3920264849
Ag  Ag20  1  0.28245000  0.16783000  0.46005000  1.0 0.3920264849
Ag  Ag21  1  0.03995000  0.78245000  0.16783000  1.0 0.3920264849
Ag  Ag22  1  0.46005000  0.21755000  0.66783000  1.0 0.3920264849
Ag  Ag23  1  0.53995000  0.71755000  0.83217000  1.0 0.3920264849
Ag  Ag24  1  0.16783000  0.03995000  0.78245000  1.0 0.3920264849
Ag  Ag25  1  0.96005000  0.28245000  0.33217000  1.0 0.3920264849
Ag  Ag26  1  0.33217000  0.96005000  0.28245000  1.0 0.3920264849
Ag  Ag27  1  0.66783000  0.46005000  0.21755000  1.0 0.3920264849
Ag  Ag28  1  0.83217000  0.53995000  0.71755000  1.0 0.3920264849
Ag  Ag29  1  0.78245000  0.16783000  0.03995000  1.0 0.3920264849
Ag  Ag30  1  0.28245000  0.33217000  0.96005000  1.0 0.3920264849
Ag  Ag31  1  0.21755000  0.66783000  0.46005000  1.0 0.3920264849
Ag  Ag32  1  0.71755000  0.83217000  0.53995000  1.0 0.3920264849
P  P1  1  0.74020000  0.46030000  0.40930000  1.0 1.5036292073
P  P2  1  0.24020000  0.03970000  0.59070000  1.0 1.5036292073
P  P3  1  0.25980000  0.96030000  0.09070000  1.0 1.5036292073
P  P4  1  0.75980000  0.53970000  0.90930000  1.0 1.5036292073
P  P5  1  0.46030000  0.40930000  0.74020000  1.0 1.5036292073
P  P6  1  0.03970000  0.59070000  0.24020000  1.0 1.5036292073
P  P7  1  0.96030000  0.09070000  0.25980000  1.0 1.5036292073
P  P8  1  0.09070000  0.25980000  0.96030000  1.0 1.5036292073
P  P9  1  0.53970000  0.90930000  0.75980000  1.0 1.5036292073
P  P10  1  0.40930000  0.74020000  0.46030000  1.0 1.5036292073
P  P11  1  0.59070000  0.24020000  0.03970000  1.0 1.5036292073
P  P12  1  0.90930000  0.75980000  0.53970000  1.0 1.5036292073
P  P13  1  0.25980000  0.53970000  0.59070000  1.0 1.5036292073
P  P14  1  0.75980000  0.96030000  0.40930000  1.0 1.5036292073
P  P15  1  0.74020000  0.03970000  0.90930000  1.0 1.5036292073
P  P16  1  0.24020000  0.46030000  0.09070000  1.0 1.5036292073
P  P17  1  0.53970000  0.59070000  0.25980000  1.0 1.5036292073
P  P18  1  0.96030000  0.40930000  0.75980000  1.0 1.5036292073
P  P19  1  0.03970000  0.90930000  0.74020000  1.0 1.5036292073
P  P20  1  0.90930000  0.74020000  0.03970000  1.0 1.5036292073
P  P21  1  0.46030000  0.09070000  0.24020000  1.0 1.5036292073
P  P22  1  0.59070000  0.25980000  0.53970000  1.0 1.5036292073
P  P23  1  0.40930000  0.75980000  0.96030000  1.0 1.5036292073
P  P24  1  0.09070000  0.24020000  0.46030000  1.0 1.5036292073
H  H1  1  0.05580000  0.27860000  0.74060000  1.0 0.1103599314
H  H2  1  0.44420000  0.72140000  0.24060000  1.0 0.1103599314
H  H3  1  0.55580000  0.22140000  0.25940000  1.0 0.1103599314
H  H4  1  0.74060000  0.05580000  0.27860000  1.0 0.1103599314
H  H5  1  0.94420000  0.77860000  0.75940000  1.0 0.1103599314
H  H6  1  0.75940000  0.94420000  0.77860000  1.0 0.1103599314
H  H7  1  0.24060000  0.44420000  0.72140000  1.0 0.1103599314
H  H8  1  0.25940000  0.55580000  0.22140000  1.0 0.1103599314
H  H9  1  0.27860000  0.74060000  0.05580000  1.0 0.1103599314
H  H10  1  0.77860000  0.75940000  0.94420000  1.0 0.1103599314
H  H11  1  0.72140000  0.24060000  0.44420000  1.0 0.1103599314
H  H12  1  0.22140000  0.25940000  0.55580000  1.0 0.1103599314
H  H13  1  0.94420000  0.72140000  0.25940000  1.0 0.1103599314
H  H14  1  0.55580000  0.27860000  0.75940000  1.0 0.1103599314
H  H15  1  0.44420000  0.77860000  0.74060000  1.0 0.1103599314
H  H16  1  0.25940000  0.94420000  0.72140000  1.0 0.1103599314
H  H17  1  0.05580000  0.22140000  0.24060000  1.0 0.1103599314
H  H18  1  0.24060000  0.05580000  0.22140000  1.0 0.1103599314
H  H19  1  0.75940000  0.55580000  0.27860000  1.0 0.1103599314
H  H20  1  0.74060000  0.44420000  0.77860000  1.0 0.1103599314
H  H21  1  0.72140000  0.25940000  0.94420000  1.0 0.1103599314
H  H22  1  0.22140000  0.24060000  0.05580000  1.0 0.1103599314
H  H23  1  0.27860000  0.75940000  0.55580000  1.0 0.1103599314
H  H24  1  0.77860000  0.74060000  0.44420000  1.0 0.1103599314
H  H25  1  0.09620000  0.25380000  0.79470000  1.0 0.118129709
H  H26  1  0.40380000  0.74620000  0.29470000  1.0 0.118129709
H  H27  1  0.59620000  0.24620000  0.20530000  1.0 0.118129709
H  H28  1  0.79470000  0.09620000  0.25380000  1.0 0.118129709
H  H29  1  0.90380000  0.75380000  0.70530000  1.0 0.118129709
H  H30  1  0.70530000  0.90380000  0.75380000  1.0 0.118129709
H  H31  1  0.29470000  0.40380000  0.74620000  1.0 0.118129709
H  H32  1  0.20530000  0.59620000  0.24620000  1.0 0.118129709
H  H33  1  0.25380000  0.79470000  0.09620000  1.0 0.118129709
H  H34  1  0.75380000  0.70530000  0.90380000  1.0 0.118129709
H  H35  1  0.74620000  0.29470000  0.40380000  1.0 0.118129709
H  H36  1  0.24620000  0.20530000  0.59620000  1.0 0.118129709
H  H37  1  0.90380000  0.74620000  0.20530000  1.0 0.118129709
H  H38  1  0.59620000  0.25380000  0.70530000  1.0 0.118129709
H  H39  1  0.40380000  0.75380000  0.79470000  1.0 0.118129709
H  H40  1  0.20530000  0.90380000  0.74620000  1.0 0.118129709
H  H41  1  0.09620000  0.24620000  0.29470000  1.0 0.118129709
H  H42  1  0.29470000  0.09620000  0.24620000  1.0 0.118129709
H  H43  1  0.70530000  0.59620000  0.25380000  1.0 0.118129709
H  H44  1  0.79470000  0.40380000  0.75380000  1.0 0.118129709
H  H45  1  0.74620000  0.20530000  0.90380000  1.0 0.118129709
H  H46  1  0.24620000  0.29470000  0.09620000  1.0 0.118129709
H  H47  1  0.25380000  0.70530000  0.59620000  1.0 0.118129709
H  H48  1  0.75380000  0.79470000  0.40380000  1.0 0.118129709
H  H49  1  0.12570000  0.19540000  0.62370000  1.0 0.118129709
H  H50  1  0.37430000  0.80460000  0.12370000  1.0 0.118129709
H  H51  1  0.62570000  0.30460000  0.37630000  1.0 0.118129709
H  H52  1  0.62370000  0.12570000  0.19540000  1.0 0.118129709
H  H53  1  0.87430000  0.69540000  0.87630000  1.0 0.118129709
H  H54  1  0.87630000  0.87430000  0.69540000  1.0 0.118129709
H  H55  1  0.12370000  0.37430000  0.80460000  1.0 0.118129709
H  H56  1  0.37630000  0.62570000  0.30460000  1.0 0.118129709
H  H57  1  0.19540000  0.62370000  0.12570000  1.0 0.118129709
H  H58  1  0.69540000  0.87630000  0.87430000  1.0 0.118129709
H  H59  1  0.80460000  0.12370000  0.37430000  1.0 0.118129709
H  H60  1  0.30460000  0.37630000  0.62570000  1.0 0.118129709
H  H61  1  0.87430000  0.80460000  0.37630000  1.0 0.118129709
H  H62  1  0.62570000  0.19540000  0.87630000  1.0 0.118129709
H  H63  1  0.37430000  0.69540000  0.62370000  1.0 0.118129709
H  H64  1  0.37630000  0.87430000  0.80460000  1.0 0.118129709
H  H65  1  0.12570000  0.30460000  0.12370000  1.0 0.118129709
H  H66  1  0.12370000  0.12570000  0.30460000  1.0 0.118129709
H  H67  1  0.87630000  0.62570000  0.19540000  1.0 0.118129709
H  H68  1  0.62370000  0.37430000  0.69540000  1.0 0.118129709
H  H69  1  0.80460000  0.37630000  0.87430000  1.0 0.118129709
H  H70  1  0.30460000  0.12370000  0.12570000  1.0 0.118129709
H  H71  1  0.19540000  0.87630000  0.62570000  1.0 0.118129709
H  H72  1  0.69540000  0.62370000  0.37430000  1.0 0.118129709
H  H73  1  0.07270000  0.24180000  0.63750000  1.0 0.1103599314
H  H74  1  0.42730000  0.75820000  0.13750000  1.0 0.1103599314
H  H75  1  0.57270000  0.25820000  0.36250000  1.0 0.1103599314
H  H76  1  0.63750000  0.07270000  0.24180000  1.0 0.1103599314
H  H77  1  0.92730000  0.74180000  0.86250000  1.0 0.1103599314
H  H78  1  0.86250000  0.92730000  0.74180000  1.0 0.1103599314
H  H79  1  0.13750000  0.42730000  0.75820000  1.0 0.1103599314
H  H80  1  0.36250000  0.57270000  0.25820000  1.0 0.1103599314
H  H81  1  0.24180000  0.63750000  0.07270000  1.0 0.1103599314
H  H82  1  0.74180000  0.86250000  0.92730000  1.0 0.1103599314
H  H83  1  0.75820000  0.13750000  0.42730000  1.0 0.1103599314
H  H84  1  0.25820000  0.36250000  0.57270000  1.0 0.1103599314
H  H85  1  0.92730000  0.75820000  0.36250000  1.0 0.1103599314
H  H86  1  0.57270000  0.24180000  0.86250000  1.0 0.1103599314
H  H87  1  0.42730000  0.74180000  0.63750000  1.0 0.1103599314
H  H88  1  0.36250000  0.92730000  0.75820000  1.0 0.1103599314
H  H89  1  0.07270000  0.25820000  0.13750000  1.0 0.1103599314
H  H90  1  0.13750000  0.07270000  0.25820000  1.0 0.1103599314
H  H91  1  0.86250000  0.57270000  0.24180000  1.0 0.1103599314
H  H92  1  0.63750000  0.42730000  0.74180000  1.0 0.1103599314
H  H93  1  0.75820000  0.36250000  0.92730000  1.0 0.1103599314
H  H94  1  0.25820000  0.13750000  0.07270000  1.0 0.1103599314
H  H95  1  0.24180000  0.86250000  0.57270000  1.0 0.1103599314
H  H96  1  0.74180000  0.63750000  0.42730000  1.0 0.1103599314
H  H97  1  0.11600000  0.08940000  0.65690000  1.0 0.118129709
H  H98  1  0.38400000  0.91060000  0.15690000  1.0 0.118129709
H  H99  1  0.61600000  0.41060000  0.34310000  1.0 0.118129709
H  H100  1  0.65690000  0.11600000  0.08940000  1.0 0.118129709
H  H101  1  0.88400000  0.58940000  0.84310000  1.0 0.118129709
H  H102  1  0.84310000  0.88400000  0.58940000  1.0 0.118129709
H  H103  1  0.15690000  0.38400000  0.91060000  1.0 0.118129709
H  H104  1  0.34310000  0.61600000  0.41060000  1.0 0.118129709
H  H105  1  0.08940000  0.65690000  0.11600000  1.0 0.118129709
H  H106  1  0.58940000  0.84310000  0.88400000  1.0 0.118129709
H  H107  1  0.91060000  0.15690000  0.38400000  1.0 0.118129709
H  H108  1  0.41060000  0.34310000  0.61600000  1.0 0.118129709
H  H109  1  0.88400000  0.91060000  0.34310000  1.0 0.118129709
H  H110  1  0.61600000  0.08940000  0.84310000  1.0 0.118129709
H  H111  1  0.38400000  0.58940000  0.65690000  1.0 0.118129709
H  H112  1  0.34310000  0.88400000  0.91060000  1.0 0.118129709
H  H113  1  0.11600000  0.41060000  0.15690000  1.0 0.118129709
H  H114  1  0.15690000  0.11600000  0.41060000  1.0 0.118129709
H  H115  1  0.84310000  0.61600000  0.08940000  1.0 0.118129709
H  H116  1  0.65690000  0.38400000  0.58940000  1.0 0.118129709
H  H117  1  0.91060000  0.34310000  0.88400000  1.0 0.118129709
H  H118  1  0.41060000  0.15690000  0.11600000  1.0 0.118129709
H  H119  1  0.08940000  0.84310000  0.61600000  1.0 0.118129709
H  H120  1  0.58940000  0.65690000  0.38400000  1.0 0.118129709
H  H121  1  0.05680000  0.06800000  0.69180000  1.0 0.118129709
H  H122  1  0.44320000  0.93200000  0.19180000  1.0 0.118129709
H  H123  1  0.55680000  0.43200000  0.30820000  1.0 0.118129709
H  H124  1  0.69180000  0.05680000  0.06800000  1.0 0.118129709
H  H125  1  0.94320000  0.56800000  0.80820000  1.0 0.118129709
H  H126  1  0.80820000  0.94320000  0.56800000  1.0 0.118129709
H  H127  1  0.19180000  0.44320000  0.93200000  1.0 0.118129709
H  H128  1  0.30820000  0.55680000  0.43200000  1.0 0.118129709
H  H129  1  0.06800000  0.69180000  0.05680000  1.0 0.118129709
H  H130  1  0.56800000  0.80820000  0.94320000  1.0 0.118129709
H  H131  1  0.93200000  0.19180000  0.44320000  1.0 0.118129709
H  H132  1  0.43200000  0.30820000  0.55680000  1.0 0.118129709
H  H133  1  0.94320000  0.93200000  0.30820000  1.0 0.118129709
H  H134  1  0.55680000  0.06800000  0.80820000  1.0 0.118129709
H  H135  1  0.44320000  0.56800000  0.69180000  1.0 0.118129709
H  H136  1  0.30820000  0.94320000  0.93200000  1.0 0.118129709
H  H137  1  0.05680000  0.43200000  0.19180000  1.0 0.118129709
H  H138  1  0.19180000  0.05680000  0.43200000  1.0 0.118129709
H  H139  1  0.80820000  0.55680000  0.06800000  1.0 0.118129709
H  H140  1  0.69180000  0.44320000  0.56800000  1.0 0.118129709
H  H141  1  0.93200000  0.30820000  0.94320000  1.0 0.118129709
H  H142  1  0.43200000  0.19180000  0.05680000  1.0 0.118129709
H  H143  1  0.06800000  0.80820000  0.55680000  1.0 0.118129709
H  H144  1  0.56800000  0.69180000  0.44320000  1.0 0.118129709
H  H145  1  0.17800000  0.18110000  0.77460000  1.0 0.1103599314
H  H146  1  0.32200000  0.81890000  0.27460000  1.0 0.1103599314
H  H147  1  0.67800000  0.31890000  0.22540000  1.0 0.1103599314
H  H148  1  0.77460000  0.17800000  0.18110000  1.0 0.1103599314
H  H149  1  0.82200000  0.68110000  0.72540000  1.0 0.1103599314
H  H150  1  0.72540000  0.82200000  0.68110000  1.0 0.1103599314
H  H151  1  0.27460000  0.32200000  0.81890000  1.0 0.1103599314
H  H152  1  0.22540000  0.67800000  0.31890000  1.0 0.1103599314
H  H153  1  0.18110000  0.77460000  0.17800000  1.0 0.1103599314
H  H154  1  0.68110000  0.72540000  0.82200000  1.0 0.1103599314
H  H155  1  0.81890000  0.27460000  0.32200000  1.0 0.1103599314
H  H156  1  0.31890000  0.22540000  0.67800000  1.0 0.1103599314
H  H157  1  0.82200000  0.81890000  0.22540000  1.0 0.1103599314
H  H158  1  0.67800000  0.18110000  0.72540000  1.0 0.1103599314
H  H159  1  0.32200000  0.68110000  0.77460000  1.0 0.1103599314
H  H160  1  0.22540000  0.82200000  0.81890000  1.0 0.1103599314
H  H161  1  0.17800000  0.31890000  0.27460000  1.0 0.1103599314
H  H162  1  0.27460000  0.17800000  0.31890000  1.0 0.1103599314
H  H163  1  0.72540000  0.67800000  0.18110000  1.0 0.1103599314
H  H164  1  0.77460000  0.32200000  0.68110000  1.0 0.1103599314
H  H165  1  0.81890000  0.22540000  0.82200000  1.0 0.1103599314
H  H166  1  0.31890000  0.27460000  0.17800000  1.0 0.1103599314
H  H167  1  0.18110000  0.72540000  0.67800000  1.0 0.1103599314
H  H168  1  0.68110000  0.77460000  0.32200000  1.0 0.1103599314
H  H169  1  0.19040000  0.15830000  0.70750000  1.0 0.1103599314
H  H170  1  0.30960000  0.84170000  0.20750000  1.0 0.118129709
H  H171  1  0.69040000  0.34170000  0.29250000  1.0 0.1103599314
H  H172  1  0.70750000  0.19040000  0.15830000  1.0 0.1103599314
H  H173  1  0.80960000  0.65830000  0.79250000  1.0 0.118129709
H  H174  1  0.79250000  0.80960000  0.65830000  1.0 0.118129709
H  H175  1  0.20750000  0.30960000  0.84170000  1.0 0.1103599314
H  H176  1  0.29250000  0.69040000  0.34170000  1.0 0.118129709
H  H177  1  0.15830000  0.70750000  0.19040000  1.0 0.118129709
H  H178  1  0.65830000  0.79250000  0.80960000  1.0 0.118129709
H  H179  1  0.84170000  0.20750000  0.30960000  1.0 0.1103599314
H  H180  1  0.34170000  0.29250000  0.69040000  1.0 0.1103599314
H  H181  1  0.80960000  0.84170000  0.29250000  1.0 0.118129709
H  H182  1  0.69040000  0.15830000  0.79250000  1.0 0.1103599314
H  H183  1  0.30960000  0.65830000  0.70750000  1.0 0.118129709
H  H184  1  0.29250000  0.80960000  0.84170000  1.0 0.118129709
H  H185  1  0.19040000  0.34170000  0.20750000  1.0 0.118129709
H  H186  1  0.20750000  0.19040000  0.34170000  1.0 0.1103599314
H  H187  1  0.79250000  0.69040000  0.15830000  1.0 0.118129709
H  H188  1  0.70750000  0.30960000  0.65830000  1.0 0.118129709
H  H189  1  0.84170000  0.29250000  0.80960000  1.0 0.1103599314
H  H190  1  0.34170000  0.20750000  0.19040000  1.0 0.118129709
H  H191  1  0.15830000  0.79250000  0.69040000  1.0 0.118129709
H  H192  1  0.65830000  0.70750000  0.30960000  1.0 0.118129709
H  H193  1  0.98300000  0.20870000  0.69090000  1.0 0.118129709
H  H194  1  0.51700000  0.79130000  0.19090000  1.0 0.118129709
H  H195  1  0.48300000  0.29130000  0.30910000  1.0 0.118129709
H  H196  1  0.69090000  0.98300000  0.20870000  1.0 0.118129709
H  H197  1  0.01700000  0.70870000  0.80910000  1.0 0.118129709
H  H198  1  0.80910000  0.01700000  0.70870000  1.0 0.118129709
H  H199  1  0.19090000  0.51700000  0.79130000  1.0 0.118129709
H  H200  1  0.30910000  0.48300000  0.29130000  1.0 0.118129709
H  H201  1  0.20870000  0.69090000  0.98300000  1.0 0.118129709
H  H202  1  0.70870000  0.80910000  0.01700000  1.0 0.118129709
H  H203  1  0.79130000  0.19090000  0.51700000  1.0 0.118129709
H  H204  1  0.29130000  0.30910000  0.48300000  1.0 0.118129709
H  H205  1  0.01700000  0.79130000  0.30910000  1.0 0.118129709
H  H206  1  0.48300000  0.20870000  0.80910000  1.0 0.118129709
H  H207  1  0.51700000  0.70870000  0.69090000  1.0 0.118129709
H  H208  1  0.30910000  0.01700000  0.79130000  1.0 0.118129709
H  H209  1  0.98300000  0.29130000  0.19090000  1.0 0.118129709
H  H210  1  0.19090000  0.98300000  0.29130000  1.0 0.118129709
H  H211  1  0.80910000  0.48300000  0.20870000  1.0 0.118129709
H  H212  1  0.69090000  0.51700000  0.70870000  1.0 0.118129709
H  H213  1  0.79130000  0.30910000  0.01700000  1.0 0.118129709
H  H214  1  0.29130000  0.19090000  0.98300000  1.0 0.118129709
H  H215  1  0.20870000  0.80910000  0.48300000  1.0 0.118129709
H  H216  1  0.70870000  0.69090000  0.51700000  1.0 0.118129709
H  H217  1  0.97700000  0.14090000  0.71360000  1.0 0.1103599314
H  H218  1  0.52300000  0.85910000  0.21360000  1.0 0.1103599314
H  H219  1  0.47700000  0.35910000  0.28640000  1.0 0.1103599314
H  H220  1  0.71360000  0.97700000  0.14090000  1.0 0.1103599314
H  H221  1  0.02300000  0.64090000  0.78640000  1.0 0.1103599314
H  H222  1  0.78640000  0.02300000  0.64090000  1.0 0.1103599314
H  H223  1  0.21360000  0.52300000  0.85910000  1.0 0.1103599314
H  H224  1  0.28640000  0.47700000  0.35910000  1.0 0.1103599314
H  H225  1  0.14090000  0.71360000  0.97700000  1.0 0.1103599314
H  H226  1  0.64090000  0.78640000  0.02300000  1.0 0.1103599314
H  H227  1  0.85910000  0.21360000  0.52300000  1.0 0.1103599314
H  H228  1  0.35910000  0.28640000  0.47700000  1.0 0.1103599314
H  H229  1  0.02300000  0.85910000  0.28640000  1.0 0.1103599314
H  H230  1  0.47700000  0.14090000  0.78640000  1.0 0.1103599314
H  H231  1  0.52300000  0.64090000  0.71360000  1.0 0.1103599314
H  H232  1  0.28640000  0.02300000  0.85910000  1.0 0.1103599314
H  H233  1  0.97700000  0.35910000  0.21360000  1.0 0.1103599314
H  H234  1  0.21360000  0.97700000  0.35910000  1.0 0.1103599314
H  H235  1  0.78640000  0.47700000  0.14090000  1.0 0.1103599314
H  H236  1  0.71360000  0.52300000  0.64090000  1.0 0.1103599314
H  H237  1  0.85910000  0.28640000  0.02300000  1.0 0.1103599314
H  H238  1  0.35910000  0.21360000  0.97700000  1.0 0.1103599314
H  H239  1  0.14090000  0.78640000  0.47700000  1.0 0.1103599314
H  H240  1  0.64090000  0.71360000  0.52300000  1.0 0.1103599314
H  H241  1  0.03800000  0.10410000  0.79790000  1.0 0.1103599314
H  H242  1  0.46200000  0.89590000  0.29790000  1.0 0.1103599314
H  H243  1  0.53800000  0.39590000  0.20210000  1.0 0.1103599314
H  H244  1  0.79790000  0.03800000  0.10410000  1.0 0.1103599314
H  H245  1  0.96200000  0.60410000  0.70210000  1.0 0.1103599314
H  H246  1  0.70210000  0.96200000  0.60410000  1.0 0.1103599314
H  H247  1  0.29790000  0.46200000  0.89590000  1.0 0.1103599314
H  H248  1  0.20210000  0.53800000  0.39590000  1.0 0.1103599314
H  H249  1  0.10410000  0.79790000  0.03800000  1.0 0.1103599314
H  H250  1  0.60410000  0.70210000  0.96200000  1.0 0.1103599314
H  H251  1  0.89590000  0.29790000  0.46200000  1.0 0.1103599314
H  H252  1  0.39590000  0.20210000  0.53800000  1.0 0.1103599314
H  H253  1  0.96200000  0.89590000  0.20210000  1.0 0.1103599314
H  H254  1  0.53800000  0.10410000  0.70210000  1.0 0.1103599314
H  H255  1  0.46200000  0.60410000  0.79790000  1.0 0.1103599314
H  H256  1  0.20210000  0.96200000  0.89590000  1.0 0.1103599314
H  H257  1  0.03800000  0.39590000  0.29790000  1.0 0.1103599314
H  H258  1  0.29790000  0.03800000  0.39590000  1.0 0.1103599314
H  H259  1  0.70210000  0.53800000  0.10410000  1.0 0.1103599314
H  H260  1  0.79790000  0.46200000  0.60410000  1.0 0.1103599314
H  H261  1  0.89590000  0.20210000  0.96200000  1.0 0.1103599314
H  H262  1  0.39590000  0.29790000  0.03800000  1.0 0.1103599314
H  H263  1  0.10410000  0.70210000  0.53800000  1.0 0.1103599314
H  H264  1  0.60410000  0.79790000  0.46200000  1.0 0.1103599314
H  H265  1  0.08540000  0.14830000  0.82920000  1.0 0.118129709
H  H266  1  0.41460000  0.85170000  0.32920000  1.0 0.118129709
H  H267  1  0.58540000  0.35170000  0.17080000  1.0 0.118129709
H  H268  1  0.82920000  0.08540000  0.14830000  1.0 0.118129709
H  H269  1  0.91460000  0.64830000  0.67080000  1.0 0.118129709
H  H270  1  0.67080000  0.91460000  0.64830000  1.0 0.118129709
H  H271  1  0.32920000  0.41460000  0.85170000  1.0 0.118129709
H  H272  1  0.17080000  0.58540000  0.35170000  1.0 0.118129709
H  H273  1  0.14830000  0.82920000  0.08540000  1.0 0.118129709
H  H274  1  0.64830000  0.67080000  0.91460000  1.0 0.118129709
H  H275  1  0.85170000  0.32920000  0.41460000  1.0 0.118129709
H  H276  1  0.35170000  0.17080000  0.58540000  1.0 0.118129709
H  H277  1  0.91460000  0.85170000  0.17080000  1.0 0.118129709
H  H278  1  0.58540000  0.14830000  0.67080000  1.0 0.118129709
H  H279  1  0.41460000  0.64830000  0.82920000  1.0 0.118129709
H  H280  1  0.17080000  0.91460000  0.85170000  1.0 0.118129709
H  H281  1  0.08540000  0.35170000  0.32920000  1.0 0.118129709
H  H282  1  0.32920000  0.08540000  0.35170000  1.0 0.118129709
H  H283  1  0.67080000  0.58540000  0.14830000  1.0 0.118129709
H  H284  1  0.82920000  0.41460000  0.64830000  1.0 0.118129709
H  H285  1  0.85170000  0.17080000  0.91460000  1.0 0.118129709
H  H286  1  0.35170000  0.32920000  0.08540000  1.0 0.118129709
H  H287  1  0.14830000  0.67080000  0.58540000  1.0 0.118129709
H  H288  1  0.64830000  0.82920000  0.41460000  1.0 0.118129709
H  H289  1  0.09350000  0.38080000  0.65320000  1.0 0.3920264849
H  H290  1  0.40650000  0.61920000  0.15320000  1.0 0.3920264849
H  H291  1  0.59350000  0.11920000  0.34680000  1.0 0.3920264849
H  H292  1  0.65320000  0.09350000  0.38080000  1.0 0.3920264849
H  H293  1  0.90650000  0.88080000  0.84680000  1.0 0.3920264849
H  H294  1  0.84680000  0.90650000  0.88080000  1.0 0.3920264849
H  H295  1  0.15320000  0.40650000  0.61920000  1.0 0.3920264849
H  H296  1  0.34680000  0.59350000  0.11920000  1.0 0.3920264849
H  H297  1  0.38080000  0.65320000  0.09350000  1.0 0.3920264849
H  H298  1  0.88080000  0.84680000  0.90650000  1.0 0.3920264849
H  H299  1  0.61920000  0.15320000  0.40650000  1.0 0.3920264849
H  H300  1  0.11920000  0.34680000  0.59350000  1.0 0.3920264849
H  H301  1  0.90650000  0.61920000  0.34680000  1.0 0.3920264849
H  H302  1  0.59350000  0.38080000  0.84680000  1.0 0.3920264849
H  H303  1  0.40650000  0.88080000  0.65320000  1.0 0.3920264849
H  H304  1  0.34680000  0.90650000  0.61920000  1.0 0.3920264849
H  H305  1  0.09350000  0.11920000  0.15320000  1.0 0.3920264849
H  H306  1  0.15320000  0.09350000  0.11920000  1.0 0.3920264849
H  H307  1  0.84680000  0.59350000  0.38080000  1.0 0.3920264849
H  H308  1  0.65320000  0.40650000  0.88080000  1.0 0.3920264849
H  H309  1  0.61920000  0.34680000  0.90650000  1.0 0.3920264849
H  H310  1  0.11920000  0.15320000  0.09350000  1.0 0.3920264849
H  H311  1  0.38080000  0.84680000  0.59350000  1.0 0.3920264849
H  H312  1  0.88080000  0.65320000  0.40650000  1.0 0.3920264849
C  C1  1  0.07730000  0.24290000  0.75600000  1.0 -0.0524638897
C  C2  1  0.42270000  0.75710000  0.25600000  1.0 -0.0524638897
C  C3  1  0.57730000  0.25710000  0.24400000  1.0 -0.0524638897
C  C4  1  0.75600000  0.07730000  0.24290000  1.0 -0.0524638897
C  C5  1  0.92270000  0.74290000  0.74400000  1.0 -0.0524638897
C  C6  1  0.74400000  0.92270000  0.74290000  1.0 -0.0524638897
C  C7  1  0.25600000  0.42270000  0.75710000  1.0 -0.0524638897
C  C8  1  0.24400000  0.57730000  0.25710000  1.0 -0.0524638897
C  C9  1  0.24290000  0.75600000  0.07730000  1.0 -0.0524638897
C  C10  1  0.74290000  0.74400000  0.92270000  1.0 -0.0524638897
C  C11  1  0.75710000  0.25600000  0.42270000  1.0 -0.0524638897
C  C12  1  0.25710000  0.24400000  0.57730000  1.0 -0.0524638897
C  C13  1  0.92270000  0.75710000  0.24400000  1.0 -0.0524638897
C  C14  1  0.57730000  0.24290000  0.74400000  1.0 -0.0524638897
C  C15  1  0.42270000  0.74290000  0.75600000  1.0 -0.0524638897
C  C16  1  0.24400000  0.92270000  0.75710000  1.0 -0.0524638897
C  C17  1  0.07730000  0.25710000  0.25600000  1.0 -0.0524638897
C  C18  1  0.25600000  0.07730000  0.25710000  1.0 -0.0524638897
C  C19  1  0.74400000  0.57730000  0.24290000  1.0 -0.0524638897
C  C20  1  0.75600000  0.42270000  0.74290000  1.0 -0.0524638897
C  C21  1  0.75710000  0.24400000  0.92270000  1.0 -0.0524638897
C  C22  1  0.25710000  0.25600000  0.07730000  1.0 -0.0524638897
C  C23  1  0.24290000  0.74400000  0.57730000  1.0 -0.0524638897
C  C24  1  0.74290000  0.75600000  0.42270000  1.0 -0.0524638897
C  C25  1  0.09480000  0.20690000  0.65350000  1.0 -0.028310262
C  C26  1  0.40520000  0.79310000  0.15350000  1.0 -0.028310262
C  C27  1  0.59480000  0.29310000  0.34650000  1.0 -0.028310262
C  C28  1  0.65350000  0.09480000  0.20690000  1.0 -0.028310262
C  C29  1  0.90520000  0.70690000  0.84650000  1.0 -0.028310262
C  C30  1  0.84650000  0.90520000  0.70690000  1.0 -0.028310262
C  C31  1  0.15350000  0.40520000  0.79310000  1.0 -0.028310262
C  C32  1  0.34650000  0.59480000  0.29310000  1.0 -0.028310262
C  C33  1  0.20690000  0.65350000  0.09480000  1.0 -0.028310262
C  C34  1  0.70690000  0.84650000  0.90520000  1.0 -0.028310262
C  C35  1  0.79310000  0.15350000  0.40520000  1.0 -0.028310262
C  C36  1  0.29310000  0.34650000  0.59480000  1.0 -0.028310262
C  C37  1  0.90520000  0.79310000  0.34650000  1.0 -0.028310262
C  C38  1  0.59480000  0.20690000  0.84650000  1.0 -0.028310262
C  C39  1  0.40520000  0.70690000  0.65350000  1.0 -0.028310262
C  C40  1  0.34650000  0.90520000  0.79310000  1.0 -0.028310262
C  C41  1  0.09480000  0.29310000  0.15350000  1.0 -0.028310262
C  C42  1  0.15350000  0.09480000  0.29310000  1.0 -0.028310262
C  C43  1  0.84650000  0.59480000  0.20690000  1.0 -0.028310262
C  C44  1  0.65350000  0.40520000  0.70690000  1.0 -0.028310262
C  C45  1  0.79310000  0.34650000  0.90520000  1.0 -0.028310262
C  C46  1  0.29310000  0.15350000  0.09480000  1.0 -0.028310262
C  C47  1  0.20690000  0.84650000  0.59480000  1.0 -0.028310262
C  C48  1  0.70690000  0.65350000  0.40520000  1.0 -0.028310262
C  C49  1  0.08490000  0.10190000  0.68600000  1.0 -0.0145072423
C  C50  1  0.41510000  0.89810000  0.18600000  1.0 -0.0145072423
C  C51  1  0.58490000  0.39810000  0.31400000  1.0 -0.0145072423
C  C52  1  0.68600000  0.08490000  0.10190000  1.0 -0.0145072423
C  C53  1  0.91510000  0.60190000  0.81400000  1.0 -0.0145072423
C  C54  1  0.81400000  0.91510000  0.60190000  1.0 -0.0156393054
C  C55  1  0.18600000  0.41510000  0.89810000  1.0 -0.0156393054
C  C56  1  0.31400000  0.58490000  0.39810000  1.0 -0.0145072423
C  C57  1  0.10190000  0.68600000  0.08490000  1.0 -0.0145072423
C  C58  1  0.60190000  0.81400000  0.91510000  1.0 -0.0156393054
C  C59  1  0.89810000  0.18600000  0.41510000  1.0 -0.0145072423
C  C60  1  0.39810000  0.31400000  0.58490000  1.0 -0.0145072423
C  C61  1  0.91510000  0.89810000  0.31400000  1.0 -0.0145072423
C  C62  1  0.58490000  0.10190000  0.81400000  1.0 -0.0145072423
C  C63  1  0.41510000  0.60190000  0.68600000  1.0 -0.0145072423
C  C64  1  0.31400000  0.91510000  0.89810000  1.0 -0.0156393054
C  C65  1  0.08490000  0.39810000  0.18600000  1.0 -0.0145072423
C  C66  1  0.18600000  0.08490000  0.39810000  1.0 -0.0145072423
C  C67  1  0.81400000  0.58490000  0.10190000  1.0 -0.0145072423
C  C68  1  0.68600000  0.41510000  0.60190000  1.0 -0.0145072423
C  C69  1  0.89810000  0.31400000  0.91510000  1.0 -0.0145072423
C  C70  1  0.39810000  0.18600000  0.08490000  1.0 -0.0145072423
C  C71  1  0.10190000  0.81400000  0.58490000  1.0 -0.0156393054
C  C72  1  0.60190000  0.68600000  0.41510000  1.0 -0.0145072423
C  C73  1  0.15870000  0.17060000  0.73610000  1.0 -0.0573809361
C  C74  1  0.34130000  0.82940000  0.23610000  1.0 -0.0573809361
C  C75  1  0.65870000  0.32940000  0.26390000  1.0 -0.0573809361
C  C76  1  0.73610000  0.15870000  0.17060000  1.0 -0.0573809361
C  C77  1  0.84130000  0.67060000  0.76390000  1.0 -0.0573809361
C  C78  1  0.76390000  0.84130000  0.67060000  1.0 -0.0573809361
C  C79  1  0.23610000  0.34130000  0.82940000  1.0 -0.0573809361
C  C80  1  0.26390000  0.65870000  0.32940000  1.0 -0.0573809361
C  C81  1  0.17060000  0.73610000  0.15870000  1.0 -0.0573809361
C  C82  1  0.67060000  0.76390000  0.84130000  1.0 -0.0573809361
C  C83  1  0.82940000  0.23610000  0.34130000  1.0 -0.0573809361
C  C84  1  0.32940000  0.26390000  0.65870000  1.0 -0.0573809361
C  C85  1  0.84130000  0.82940000  0.26390000  1.0 -0.0573809361
C  C86  1  0.65870000  0.17060000  0.76390000  1.0 -0.0573809361
C  C87  1  0.34130000  0.67060000  0.73610000  1.0 -0.0573809361
C  C88  1  0.26390000  0.84130000  0.82940000  1.0 -0.0573809361
C  C89  1  0.15870000  0.32940000  0.23610000  1.0 -0.0573809361
C  C90  1  0.23610000  0.15870000  0.32940000  1.0 -0.0573809361
C  C91  1  0.76390000  0.65870000  0.17060000  1.0 -0.0573809361
C  C92  1  0.73610000  0.34130000  0.67060000  1.0 -0.0573809361
C  C93  1  0.82940000  0.26390000  0.84130000  1.0 -0.0573809361
C  C94  1  0.32940000  0.23610000  0.15870000  1.0 -0.0573809361
C  C95  1  0.17060000  0.76390000  0.65870000  1.0 -0.0573809361
C  C96  1  0.67060000  0.73610000  0.34130000  1.0 -0.0573809361
C  C97  1  0.00560000  0.17410000  0.70710000  1.0 -0.028310262
C  C98  1  0.49440000  0.82590000  0.20710000  1.0 -0.028310262
C  C99  1  0.50560000  0.32590000  0.29290000  1.0 -0.028310262
C  C100  1  0.70710000  0.00560000  0.17410000  1.0 -0.028310262
C  C101  1  0.99440000  0.67410000  0.79290000  1.0 -0.028310262
C  C102  1  0.79290000  0.99440000  0.67410000  1.0 -0.028310262
C  C103  1  0.20710000  0.49440000  0.82590000  1.0 -0.028310262
C  C104  1  0.29290000  0.50560000  0.32590000  1.0 -0.028310262
C  C105  1  0.17410000  0.70710000  0.00560000  1.0 -0.028310262
C  C106  1  0.67410000  0.79290000  0.99440000  1.0 -0.028310262
C  C107  1  0.82590000  0.20710000  0.49440000  1.0 -0.028310262
C  C108  1  0.32590000  0.29290000  0.50560000  1.0 -0.028310262
C  C109  1  0.99440000  0.82590000  0.29290000  1.0 -0.028310262
C  C110  1  0.50560000  0.17410000  0.79290000  1.0 -0.028310262
C  C111  1  0.49440000  0.67410000  0.70710000  1.0 -0.028310262
C  C112  1  0.29290000  0.99440000  0.82590000  1.0 -0.028310262
C  C113  1  0.00560000  0.32590000  0.20710000  1.0 -0.028310262
C  C114  1  0.20710000  0.00560000  0.32590000  1.0 -0.028310262
C  C115  1  0.79290000  0.50560000  0.17410000  1.0 -0.028310262
C  C116  1  0.70710000  0.49440000  0.67410000  1.0 -0.028310262
C  C117  1  0.82590000  0.29290000  0.99440000  1.0 -0.028310262
C  C118  1  0.32590000  0.20710000  0.00560000  1.0 -0.028310262
C  C119  1  0.17410000  0.79290000  0.50560000  1.0 -0.028310262
C  C120  1  0.67410000  0.70710000  0.49440000  1.0 -0.028310262
C  C121  1  0.06630000  0.13750000  0.79060000  1.0 -0.0395950647
C  C122  1  0.43370000  0.86250000  0.29060000  1.0 -0.0395950647
C  C123  1  0.56630000  0.36250000  0.20940000  1.0 -0.0395950647
C  C124  1  0.79060000  0.06630000  0.13750000  1.0 -0.0395950647
C  C125  1  0.93370000  0.63750000  0.70940000  1.0 -0.0395950647
C  C126  1  0.70940000  0.93370000  0.63750000  1.0 -0.0395950647
C  C127  1  0.29060000  0.43370000  0.86250000  1.0 -0.0395950647
C  C128  1  0.20940000  0.56630000  0.36250000  1.0 -0.0395950647
C  C129  1  0.13750000  0.79060000  0.06630000  1.0 -0.0395950647
C  C130  1  0.63750000  0.70940000  0.93370000  1.0 -0.0395950647
C  C131  1  0.86250000  0.29060000  0.43370000  1.0 -0.0395950647
C  C132  1  0.36250000  0.20940000  0.56630000  1.0 -0.0395950647
C  C133  1  0.93370000  0.86250000  0.20940000  1.0 -0.0395950647
C  C134  1  0.56630000  0.13750000  0.70940000  1.0 -0.0395950647
C  C135  1  0.43370000  0.63750000  0.79060000  1.0 -0.0395950647
C  C136  1  0.20940000  0.93370000  0.86250000  1.0 -0.0395950647
C  C137  1  0.06630000  0.36250000  0.29060000  1.0 -0.0395950647
C  C138  1  0.29060000  0.06630000  0.36250000  1.0 -0.0395950647
C  C139  1  0.70940000  0.56630000  0.13750000  1.0 -0.0395950647
C  C140  1  0.79060000  0.43370000  0.63750000  1.0 -0.0395950647
C  C141  1  0.86250000  0.20940000  0.93370000  1.0 -0.0395950647
C  C142  1  0.36250000  0.29060000  0.06630000  1.0 -0.0395950647
C  C143  1  0.13750000  0.70940000  0.56630000  1.0 -0.0395950647
C  C144  1  0.63750000  0.79060000  0.43370000  1.0 -0.0395950647
N  N1  1  0.05160000  0.15500000  0.66210000  1.0 -0.1162445816
N  N2  1  0.44840000  0.84500000  0.16210000  1.0 -0.1162445816
N  N3  1  0.55160000  0.34500000  0.33790000  1.0 -0.1162445816
N  N4  1  0.66210000  0.05160000  0.15500000  1.0 -0.1162445816
N  N5  1  0.94840000  0.65500000  0.83790000  1.0 -0.1162445816
N  N6  1  0.83790000  0.94840000  0.65500000  1.0 -0.1162445816
N  N7  1  0.16210000  0.44840000  0.84500000  1.0 -0.1162445816
N  N8  1  0.33790000  0.55160000  0.34500000  1.0 -0.1162445816
N  N9  1  0.15500000  0.66210000  0.05160000  1.0 -0.1162445816
N  N10  1  0.65500000  0.83790000  0.94840000  1.0 -0.1162445816
N  N11  1  0.84500000  0.16210000  0.44840000  1.0 -0.1162445816
N  N12  1  0.34500000  0.33790000  0.55160000  1.0 -0.1162445816
N  N13  1  0.94840000  0.84500000  0.33790000  1.0 -0.1162445816
N  N14  1  0.55160000  0.15500000  0.83790000  1.0 -0.1162445816
N  N15  1  0.44840000  0.65500000  0.66210000  1.0 -0.1162445816
N  N16  1  0.33790000  0.94840000  0.84500000  1.0 -0.1162445816
N  N17  1  0.05160000  0.34500000  0.16210000  1.0 -0.1162445816
N  N18  1  0.16210000  0.05160000  0.34500000  1.0 -0.1162445816
N  N19  1  0.83790000  0.55160000  0.15500000  1.0 -0.1162445816
N  N20  1  0.66210000  0.44840000  0.65500000  1.0 -0.1162445816
N  N21  1  0.84500000  0.33790000  0.94840000  1.0 -0.1162445816
N  N22  1  0.34500000  0.16210000  0.05160000  1.0 -0.1162445816
N  N23  1  0.15500000  0.83790000  0.55160000  1.0 -0.1162445816
N  N24  1  0.65500000  0.66210000  0.44840000  1.0 -0.1162445816
N  N25  1  0.11430000  0.11790000  0.74570000  1.0 -0.1361400412
N  N26  1  0.38570000  0.88210000  0.24570000  1.0 -0.1361400412
N  N27  1  0.61430000  0.38210000  0.25430000  1.0 -0.1361400412
N  N28  1  0.74570000  0.11430000  0.11790000  1.0 -0.1361400412
N  N29  1  0.88570000  0.61790000  0.75430000  1.0 -0.1361400412
N  N30  1  0.75430000  0.88570000  0.61790000  1.0 -0.1361400412
N  N31  1  0.24570000  0.38570000  0.88210000  1.0 -0.1361400412
N  N32  1  0.25430000  0.61430000  0.38210000  1.0 -0.1361400412
N  N33  1  0.11790000  0.74570000  0.11430000  1.0 -0.1361400412
N  N34  1  0.61790000  0.75430000  0.88570000  1.0 -0.1361400412
N  N35  1  0.88210000  0.24570000  0.38570000  1.0 -0.1361400412
N  N36  1  0.38210000  0.25430000  0.61430000  1.0 -0.1361400412
N  N37  1  0.88570000  0.88210000  0.25430000  1.0 -0.1361400412
N  N38  1  0.61430000  0.11790000  0.75430000  1.0 -0.1361400412
N  N39  1  0.38570000  0.61790000  0.74570000  1.0 -0.1361400412
N  N40  1  0.25430000  0.88570000  0.88210000  1.0 -0.1361400412
N  N41  1  0.11430000  0.38210000  0.24570000  1.0 -0.1361400412
N  N42  1  0.24570000  0.11430000  0.38210000  1.0 -0.1361400412
N  N43  1  0.75430000  0.61430000  0.11790000  1.0 -0.1361400412
N  N44  1  0.74570000  0.38570000  0.61790000  1.0 -0.1361400412
N  N45  1  0.88210000  0.25430000  0.88570000  1.0 -0.1361400412
N  N46  1  0.38210000  0.24570000  0.11430000  1.0 -0.1361400412
N  N47  1  0.11790000  0.75430000  0.61430000  1.0 -0.1361400412
N  N48  1  0.61790000  0.74570000  0.38570000  1.0 -0.1361400412
N  N49  1  0.12530000  0.22440000  0.71160000  1.0 -0.1626945799
N  N50  1  0.37470000  0.77560000  0.21160000  1.0 -0.1626945799
N  N51  1  0.62530000  0.27560000  0.28840000  1.0 -0.1626945799
N  N52  1  0.71160000  0.12530000  0.22440000  1.0 -0.1626945799
N  N53  1  0.87470000  0.72440000  0.78840000  1.0 -0.1626945799
N  N54  1  0.78840000  0.87470000  0.72440000  1.0 -0.1626945799
N  N55  1  0.21160000  0.37470000  0.77560000  1.0 -0.1626945799
N  N56  1  0.28840000  0.62530000  0.27560000  1.0 -0.1626945799
N  N57  1  0.22440000  0.71160000  0.12530000  1.0 -0.1626945799
N  N58  1  0.72440000  0.78840000  0.87470000  1.0 -0.1626945799
N  N59  1  0.77560000  0.21160000  0.37470000  1.0 -0.1626945799
N  N60  1  0.27560000  0.28840000  0.62530000  1.0 -0.1626945799
N  N61  1  0.87470000  0.77560000  0.28840000  1.0 -0.1626945799
N  N62  1  0.62530000  0.22440000  0.78840000  1.0 -0.1626945799
N  N63  1  0.37470000  0.72440000  0.71160000  1.0 -0.1626945799
N  N64  1  0.28840000  0.87470000  0.77560000  1.0 -0.1626945799
N  N65  1  0.12530000  0.27560000  0.21160000  1.0 -0.1626945799
N  N66  1  0.21160000  0.12530000  0.27560000  1.0 -0.1626945799
N  N67  1  0.78840000  0.62530000  0.22440000  1.0 -0.1626945799
N  N68  1  0.71160000  0.37470000  0.72440000  1.0 -0.1626945799
N  N69  1  0.77560000  0.28840000  0.87470000  1.0 -0.1626945799
N  N70  1  0.27560000  0.21160000  0.12530000  1.0 -0.1626945799
N  N71  1  0.22440000  0.78840000  0.62530000  1.0 -0.1626945799
N  N72  1  0.72440000  0.71160000  0.37470000  1.0 -0.1626945799
N  N73  1  0.03270000  0.19130000  0.76560000  1.0 -0.1361400412
N  N74  1  0.46730000  0.80870000  0.26560000  1.0 -0.1361400412
N  N75  1  0.53270000  0.30870000  0.23440000  1.0 -0.1361400412
N  N76  1  0.76560000  0.03270000  0.19130000  1.0 -0.1361400412
N  N77  1  0.96730000  0.69130000  0.73440000  1.0 -0.1361400412
N  N78  1  0.73440000  0.96730000  0.69130000  1.0 -0.1361400412
N  N79  1  0.26560000  0.46730000  0.80870000  1.0 -0.1361400412
N  N80  1  0.23440000  0.53270000  0.30870000  1.0 -0.1361400412
N  N81  1  0.19130000  0.76560000  0.03270000  1.0 -0.1361400412
N  N82  1  0.69130000  0.73440000  0.96730000  1.0 -0.1361400412
N  N83  1  0.80870000  0.26560000  0.46730000  1.0 -0.1361400412
N  N84  1  0.30870000  0.23440000  0.53270000  1.0 -0.1361400412
N  N85  1  0.96730000  0.80870000  0.23440000  1.0 -0.1346605806
N  N86  1  0.53270000  0.19130000  0.73440000  1.0 -0.1346605806
N  N87  1  0.46730000  0.69130000  0.76560000  1.0 -0.1346605806
N  N88  1  0.23440000  0.96730000  0.80870000  1.0 -0.1361400412
N  N89  1  0.03270000  0.30870000  0.26560000  1.0 -0.1361400412
N  N90  1  0.26560000  0.03270000  0.30870000  1.0 -0.1361400412
N  N91  1  0.73440000  0.53270000  0.19130000  1.0 -0.1346605806
N  N92  1  0.76560000  0.46730000  0.69130000  1.0 -0.1346605806
N  N93  1  0.80870000  0.23440000  0.96730000  1.0 -0.1361400412
N  N94  1  0.30870000  0.26560000  0.03270000  1.0 -0.1361400412
N  N95  1  0.19130000  0.73440000  0.53270000  1.0 -0.1346605806
N  N96  1  0.69130000  0.76560000  0.46730000  1.0 -0.1346605806
O  O1  1  0.37050000  0.87050000  0.62950000  1.0 -0.6693053398
O  O2  1  0.12950000  0.12950000  0.12950000  1.0 -0.6693053398
O  O3  1  0.87050000  0.62950000  0.37050000  1.0 -0.6693053398
O  O4  1  0.62950000  0.37050000  0.87050000  1.0 -0.6693053398
O  O5  1  0.62950000  0.12950000  0.37050000  1.0 -0.6693053398
O  O6  1  0.87050000  0.87050000  0.87050000  1.0 -0.6693053398
O  O7  1  0.12950000  0.37050000  0.62950000  1.0 -0.6693053398
O  O8  1  0.37050000  0.62950000  0.12950000  1.0 -0.6693053398
F  F1  1  0.72180000  0.50090000  0.46570000  1.0 -0.4535350778
F  F2  1  0.75720000  0.41880000  0.35510000  1.0 -0.4688513326
F  F3  1  0.79020000  0.42940000  0.45120000  1.0 -0.4615517774
F  F4  1  0.78530000  0.51050000  0.38760000  1.0 -0.4615517774
F  F5  1  0.69200000  0.41060000  0.43140000  1.0 -0.4688513326
F  F6  1  0.68940000  0.49170000  0.37020000  1.0 -0.4615517774
F  F7  1  0.22180000  0.99910000  0.53430000  1.0 -0.4535350778
F  F8  1  0.25720000  0.08120000  0.64490000  1.0 -0.4688513326
F  F9  1  0.29020000  0.07060000  0.54880000  1.0 -0.4615517774
F  F10  1  0.28530000  0.98950000  0.61240000  1.0 -0.4615517774
F  F11  1  0.19200000  0.08940000  0.56860000  1.0 -0.4615517774
F  F12  1  0.18940000  0.00830000  0.62980000  1.0 -0.4615517774
F  F13  1  0.27820000  0.00090000  0.03430000  1.0 -0.4535350778
F  F14  1  0.24280000  0.91880000  0.14490000  1.0 -0.4688513326
F  F15  1  0.20980000  0.92940000  0.04880000  1.0 -0.4615517774
F  F16  1  0.21470000  0.01050000  0.11240000  1.0 -0.4615517774
F  F17  1  0.30800000  0.91060000  0.06860000  1.0 -0.4615517774
F  F18  1  0.31060000  0.99170000  0.12980000  1.0 -0.4615517774
F  F19  1  0.77820000  0.49910000  0.96570000  1.0 -0.4535350778
F  F20  1  0.74280000  0.58120000  0.85510000  1.0 -0.4688513326
F  F21  1  0.70980000  0.57060000  0.95120000  1.0 -0.4615517774
F  F22  1  0.71470000  0.48950000  0.88760000  1.0 -0.4615517774
F  F23  1  0.80800000  0.58940000  0.93140000  1.0 -0.4615517774
F  F24  1  0.81060000  0.50830000  0.87020000  1.0 -0.4615517774
F  F25  1  0.50090000  0.46570000  0.72180000  1.0 -0.4535350778
F  F26  1  0.41880000  0.35510000  0.75720000  1.0 -0.4688513326
F  F27  1  0.42940000  0.45120000  0.79020000  1.0 -0.4615517774
F  F28  1  0.51050000  0.38760000  0.78530000  1.0 -0.4615517774
F  F29  1  0.41060000  0.43140000  0.69200000  1.0 -0.4688513326
F  F30  1  0.49170000  0.37020000  0.68940000  1.0 -0.4615517774
F  F31  1  0.99910000  0.53430000  0.22180000  1.0 -0.4535350778
F  F32  1  0.08120000  0.64490000  0.25720000  1.0 -0.4688513326
F  F33  1  0.07060000  0.54880000  0.29020000  1.0 -0.4615517774
F  F34  1  0.98950000  0.61240000  0.28530000  1.0 -0.4615517774
F  F35  1  0.08940000  0.56860000  0.19200000  1.0 -0.4615517774
F  F36  1  0.00830000  0.62980000  0.18940000  1.0 -0.4615517774
F  F37  1  0.00090000  0.03430000  0.27820000  1.0 -0.4535350778
F  F38  1  0.91880000  0.14490000  0.24280000  1.0 -0.4688513326
F  F39  1  0.92940000  0.04880000  0.20980000  1.0 -0.4615517774
F  F40  1  0.01050000  0.11240000  0.21470000  1.0 -0.4615517774
F  F41  1  0.91060000  0.06860000  0.30800000  1.0 -0.4615517774
F  F42  1  0.99170000  0.12980000  0.31060000  1.0 -0.4615517774
F  F43  1  0.03430000  0.27820000  0.00090000  1.0 -0.4535350778
F  F44  1  0.14490000  0.24280000  0.91880000  1.0 -0.4688513326
F  F45  1  0.04880000  0.20980000  0.92940000  1.0 -0.4615517774
F  F46  1  0.11240000  0.21470000  0.01050000  1.0 -0.4615517774
F  F47  1  0.06860000  0.30800000  0.91060000  1.0 -0.4615517774
F  F48  1  0.12980000  0.31060000  0.99170000  1.0 -0.4615517774
F  F49  1  0.49910000  0.96570000  0.77820000  1.0 -0.4535350778
F  F50  1  0.58120000  0.85510000  0.74280000  1.0 -0.4688513326
F  F51  1  0.57060000  0.95120000  0.70980000  1.0 -0.4615517774
F  F52  1  0.48950000  0.88760000  0.71470000  1.0 -0.4615517774
F  F53  1  0.58940000  0.93140000  0.80800000  1.0 -0.4615517774
F  F54  1  0.50830000  0.87020000  0.81060000  1.0 -0.4615517774
F  F55  1  0.46570000  0.72180000  0.50090000  1.0 -0.4535350778
F  F56  1  0.35510000  0.75720000  0.41880000  1.0 -0.4688513326
F  F57  1  0.45120000  0.79020000  0.42940000  1.0 -0.4615517774
F  F58  1  0.38760000  0.78530000  0.51050000  1.0 -0.4615517774
F  F59  1  0.43140000  0.69200000  0.41060000  1.0 -0.4688513326
F  F60  1  0.37020000  0.68940000  0.49170000  1.0 -0.4615517774
F  F61  1  0.53430000  0.22180000  0.99910000  1.0 -0.4535350778
F  F62  1  0.64490000  0.25720000  0.08120000  1.0 -0.4688513326
F  F63  1  0.54880000  0.29020000  0.07060000  1.0 -0.4615517774
F  F64  1  0.61240000  0.28530000  0.98950000  1.0 -0.4615517774
F  F65  1  0.56860000  0.19200000  0.08940000  1.0 -0.4615517774
F  F66  1  0.62980000  0.18940000  0.00830000  1.0 -0.4615517774
F  F67  1  0.96570000  0.77820000  0.49910000  1.0 -0.4535350778
F  F68  1  0.85510000  0.74280000  0.58120000  1.0 -0.4688513326
F  F69  1  0.95120000  0.70980000  0.57060000  1.0 -0.4615517774
F  F70  1  0.88760000  0.71470000  0.48950000  1.0 -0.4615517774
F  F71  1  0.93140000  0.80800000  0.58940000  1.0 -0.4615517774
F  F72  1  0.87020000  0.81060000  0.50830000  1.0 -0.4615517774
F  F73  1  0.27820000  0.49910000  0.53430000  1.0 -0.4535350778
F  F74  1  0.24280000  0.58120000  0.64490000  1.0 -0.4688513326
F  F75  1  0.20980000  0.57060000  0.54880000  1.0 -0.4615517774
F  F76  1  0.21470000  0.48950000  0.61240000  1.0 -0.4615517774
F  F77  1  0.30800000  0.58940000  0.56860000  1.0 -0.4615517774
F  F78  1  0.31060000  0.50830000  0.62980000  1.0 -0.4615517774
F  F79  1  0.77820000  0.00090000  0.46570000  1.0 -0.4535350778
F  F80  1  0.74280000  0.91880000  0.35510000  1.0 -0.4688513326
F  F81  1  0.70980000  0.92940000  0.45120000  1.0 -0.4615517774
F  F82  1  0.71470000  0.01050000  0.38760000  1.0 -0.4615517774
F  F83  1  0.80800000  0.91060000  0.43140000  1.0 -0.4615517774
F  F84  1  0.81060000  0.99170000  0.37020000  1.0 -0.4615517774
F  F85  1  0.72180000  0.99910000  0.96570000  1.0 -0.4535350778
F  F86  1  0.75720000  0.08120000  0.85510000  1.0 -0.4688513326
F  F87  1  0.79020000  0.07060000  0.95120000  1.0 -0.4615517774
F  F88  1  0.78530000  0.98950000  0.88760000  1.0 -0.4615517774
F  F89  1  0.69200000  0.08940000  0.93140000  1.0 -0.4615517774
F  F90  1  0.68940000  0.00830000  0.87020000  1.0 -0.4615517774
F  F91  1  0.22180000  0.50090000  0.03430000  1.0 -0.4535350778
F  F92  1  0.25720000  0.41880000  0.14490000  1.0 -0.4688513326
F  F93  1  0.29020000  0.42940000  0.04880000  1.0 -0.4615517774
F  F94  1  0.28530000  0.51050000  0.11240000  1.0 -0.4615517774
F  F95  1  0.19200000  0.41060000  0.06860000  1.0 -0.4615517774
F  F96  1  0.18940000  0.49170000  0.12980000  1.0 -0.4615517774
F  F97  1  0.49910000  0.53430000  0.27820000  1.0 -0.4535350778
F  F98  1  0.58120000  0.64490000  0.24280000  1.0 -0.4688513326
F  F99  1  0.57060000  0.54880000  0.20980000  1.0 -0.4615517774
F  F100  1  0.48950000  0.61240000  0.21470000  1.0 -0.4615517774
F  F101  1  0.58940000  0.56860000  0.30800000  1.0 -0.4615517774
F  F102  1  0.50830000  0.62980000  0.31060000  1.0 -0.4615517774
F  F103  1  0.00090000  0.46570000  0.77820000  1.0 -0.4535350778
F  F104  1  0.91880000  0.35510000  0.74280000  1.0 -0.4688513326
F  F105  1  0.92940000  0.45120000  0.70980000  1.0 -0.4615517774
F  F106  1  0.01050000  0.38760000  0.71470000  1.0 -0.4615517774
F  F107  1  0.91060000  0.43140000  0.80800000  1.0 -0.4615517774
F  F108  1  0.99170000  0.37020000  0.81060000  1.0 -0.4615517774
F  F109  1  0.99910000  0.96570000  0.72180000  1.0 -0.4535350778
F  F110  1  0.08120000  0.85510000  0.75720000  1.0 -0.4688513326
F  F111  1  0.07060000  0.95120000  0.79020000  1.0 -0.4615517774
F  F112  1  0.98950000  0.88760000  0.78530000  1.0 -0.4615517774
F  F113  1  0.08940000  0.93140000  0.69200000  1.0 -0.4615517774
F  F114  1  0.00830000  0.87020000  0.68940000  1.0 -0.4615517774
F  F115  1  0.96570000  0.72180000  0.99910000  1.0 -0.4535350778
F  F116  1  0.85510000  0.75720000  0.08120000  1.0 -0.4688513326
F  F117  1  0.95120000  0.79020000  0.07060000  1.0 -0.4615517774
F  F118  1  0.88760000  0.78530000  0.98950000  1.0 -0.4615517774
F  F119  1  0.93140000  0.69200000  0.08940000  1.0 -0.4615517774
F  F120  1  0.87020000  0.68940000  0.00830000  1.0 -0.4615517774
F  F121  1  0.50090000  0.03430000  0.22180000  1.0 -0.4535350778
F  F122  1  0.41880000  0.14490000  0.25720000  1.0 -0.4688513326
F  F123  1  0.42940000  0.04880000  0.29020000  1.0 -0.4615517774
F  F124  1  0.51050000  0.11240000  0.28530000  1.0 -0.4615517774
F  F125  1  0.41060000  0.06860000  0.19200000  1.0 -0.4615517774
F  F126  1  0.49170000  0.12980000  0.18940000  1.0 -0.4615517774
F  F127  1  0.53430000  0.27820000  0.49910000  1.0 -0.4535350778
F  F128  1  0.64490000  0.24280000  0.58120000  1.0 -0.4688513326
F  F129  1  0.54880000  0.20980000  0.57060000  1.0 -0.4615517774
F  F130  1  0.61240000  0.21470000  0.48950000  1.0 -0.4615517774
F  F131  1  0.56860000  0.30800000  0.58940000  1.0 -0.4615517774
F  F132  1  0.62980000  0.31060000  0.50830000  1.0 -0.4615517774
F  F133  1  0.46570000  0.77820000  0.00090000  1.0 -0.4535350778
F  F134  1  0.35510000  0.74280000  0.91880000  1.0 -0.4688513326
F  F135  1  0.45120000  0.70980000  0.92940000  1.0 -0.4615517774
F  F136  1  0.38760000  0.71470000  0.01050000  1.0 -0.4615517774
F  F137  1  0.43140000  0.80800000  0.91060000  1.0 -0.4615517774
F  F138  1  0.37020000  0.81060000  0.99170000  1.0 -0.4615517774
F  F139  1  0.03430000  0.22180000  0.50090000  1.0 -0.4535350778
F  F140  1  0.14490000  0.25720000  0.41880000  1.0 -0.4688513326
F  F141  1  0.04880000  0.29020000  0.42940000  1.0 -0.4615517774
F  F142  1  0.11240000  0.28530000  0.51050000  1.0 -0.4615517774
F  F143  1  0.06860000  0.19200000  0.41060000  1.0 -0.4615517774
F  F144  1  0.12980000  0.18940000  0.49170000  1.0 -0.4615517774
