# DDEC6 charges by PACMAN v1.1 (https://github.com/mtap-research/PACMAN-charge/)
data_RAGREY_ASR_pacman
_symmetry_space_group_name_H-M   'P 1'
_cell_length_a   7.32010000
_cell_length_b   21.10100000
_cell_length_c   22.20700000
_cell_angle_alpha   90.00000000
_cell_angle_beta   90.00000000
_cell_angle_gamma   90.00000000
_symmetry_Int_Tables_number   1
_chemical_formula_structural   CuH24(C5N)6
_chemical_formula_sum   'Cu4 H96 C120 N24'
_cell_volume   3430.12497823
_cell_formula_units_Z   4
loop_
 _symmetry_equiv_pos_site_id
 _symmetry_equiv_pos_as_xyz
  1  'x, y, z'
loop_
 _atom_site_type_symbol
 _atom_site_label
 _atom_site_symmetry_multiplicity
 _atom_site_fract_x
 _atom_site_fract_y
 _atom_site_fract_z
 _atom_site_occupancy
 _atom_site_charge
Cu  Cu1  1  0.25000000  0.25000000  0.99692000  1.0 0.1394588458
Cu  Cu2  1  0.75000000  0.75000000  0.50308000  1.0 0.1394588458
Cu  Cu3  1  0.75000000  0.75000000  0.00308000  1.0 0.1394588458
Cu  Cu4  1  0.25000000  0.25000000  0.49692000  1.0 0.1394588458
H  H1  1  0.49860000  0.28230000  0.89680000  1.0 0.0882498127
H  H2  1  0.00140000  0.21770000  0.89680000  1.0 0.0882498127
H  H3  1  0.50140000  0.78230000  0.60320000  1.0 0.0882498127
H  H4  1  0.99860000  0.71770000  0.60320000  1.0 0.0882498127
H  H5  1  0.50140000  0.71770000  0.10320000  1.0 0.0882498127
H  H6  1  0.99860000  0.78230000  0.10320000  1.0 0.0882498127
H  H7  1  0.49860000  0.21770000  0.39680000  1.0 0.0882498127
H  H8  1  0.00140000  0.28230000  0.39680000  1.0 0.0882498127
H  H9  1  0.51270000  0.28020000  0.79260000  1.0 0.1195227542
H  H10  1  0.98730000  0.21980000  0.79260000  1.0 0.1195227542
H  H11  1  0.48730000  0.78020000  0.70740000  1.0 0.1195227542
H  H12  1  0.01270000  0.71980000  0.70740000  1.0 0.1195227542
H  H13  1  0.48730000  0.71980000  0.20740000  1.0 0.1195227542
H  H14  1  0.01270000  0.78020000  0.20740000  1.0 0.1195227542
H  H15  1  0.51270000  0.21980000  0.29260000  1.0 0.1195227542
H  H16  1  0.98730000  0.28020000  0.29260000  1.0 0.1195227542
H  H17  1  0.39200000  0.33240000  0.70150000  1.0 0.1195227542
H  H18  1  0.10800000  0.16760000  0.70150000  1.0 0.1195227542
H  H19  1  0.60800000  0.83240000  0.79850000  1.0 0.1195227542
H  H20  1  0.89200000  0.66760000  0.79850000  1.0 0.1195227542
H  H21  1  0.60800000  0.66760000  0.29850000  1.0 0.1195227542
H  H22  1  0.89200000  0.83240000  0.29850000  1.0 0.1195227542
H  H23  1  0.39200000  0.16760000  0.20150000  1.0 0.1195227542
H  H24  1  0.10800000  0.33240000  0.20150000  1.0 0.1195227542
H  H25  1  0.37780000  0.33150000  0.59820000  1.0 0.0882498127
H  H26  1  0.12220000  0.16850000  0.59820000  1.0 0.0882498127
H  H27  1  0.62220000  0.83150000  0.90180000  1.0 0.0882498127
H  H28  1  0.87780000  0.66850000  0.90180000  1.0 0.0882498127
H  H29  1  0.62220000  0.66850000  0.40180000  1.0 0.0882498127
H  H30  1  0.87780000  0.83150000  0.40180000  1.0 0.0882498127
H  H31  1  0.37780000  0.16850000  0.09820000  1.0 0.0882498127
H  H32  1  0.12220000  0.33150000  0.09820000  1.0 0.0882498127
H  H33  1  0.95420000  0.17270000  0.06030000  1.0 0.0882498127
H  H34  1  0.54580000  0.32730000  0.06030000  1.0 0.0882498127
H  H35  1  0.04580000  0.67270000  0.43970000  1.0 0.0882498127
H  H36  1  0.45420000  0.82730000  0.43970000  1.0 0.0882498127
H  H37  1  0.04580000  0.82730000  0.93970000  1.0 0.0882498127
H  H38  1  0.45420000  0.67270000  0.93970000  1.0 0.0882498127
H  H39  1  0.95420000  0.32730000  0.56030000  1.0 0.0882498127
H  H40  1  0.54580000  0.17270000  0.56030000  1.0 0.0882498127
H  H41  1  0.84270000  0.06980000  0.06170000  1.0 0.1195227542
H  H42  1  0.65730000  0.43020000  0.06170000  1.0 0.1195227542
H  H43  1  0.15730000  0.56980000  0.43830000  1.0 0.1195227542
H  H44  1  0.34270000  0.93020000  0.43830000  1.0 0.1195227542
H  H45  1  0.15730000  0.93020000  0.93830000  1.0 0.1195227542
H  H46  1  0.34270000  0.56980000  0.93830000  1.0 0.1195227542
H  H47  1  0.84270000  0.43020000  0.56170000  1.0 0.1195227542
H  H48  1  0.65730000  0.06980000  0.56170000  1.0 0.1195227542
H  H49  1  0.19300000  0.02770000  0.92790000  1.0 0.0781666645
H  H50  1  0.30700000  0.47230000  0.92790000  1.0 0.0781666645
H  H51  1  0.80700000  0.52770000  0.57210000  1.0 0.0781666645
H  H52  1  0.69300000  0.97230000  0.57210000  1.0 0.0781666645
H  H53  1  0.80700000  0.97230000  0.07210000  1.0 0.0781666645
H  H54  1  0.69300000  0.52770000  0.07210000  1.0 0.0781666645
H  H55  1  0.19300000  0.47230000  0.42790000  1.0 0.0781666645
H  H56  1  0.30700000  0.02770000  0.42790000  1.0 0.0781666645
H  H57  1  0.30100000  0.13050000  0.92880000  1.0 0.060870921
H  H58  1  0.19900000  0.36950000  0.92880000  1.0 0.060870921
H  H59  1  0.69900000  0.63050000  0.57120000  1.0 0.060870921
H  H60  1  0.80100000  0.86950000  0.57120000  1.0 0.060870921
H  H61  1  0.69900000  0.86950000  0.07120000  1.0 0.060870921
H  H62  1  0.80100000  0.63050000  0.07120000  1.0 0.060870921
H  H63  1  0.30100000  0.36950000  0.42880000  1.0 0.060870921
H  H64  1  0.19900000  0.13050000  0.42880000  1.0 0.060870921
H  H65  1  0.29910000  0.01310000  0.96020000  1.0 0.0725560081
H  H66  1  0.20090000  0.48690000  0.96020000  1.0 0.0725560081
H  H67  1  0.70090000  0.51310000  0.53980000  1.0 0.0725560081
H  H68  1  0.79910000  0.98690000  0.53980000  1.0 0.0725560081
H  H69  1  0.70090000  0.98690000  0.03980000  1.0 0.0725560081
H  H70  1  0.79910000  0.51310000  0.03980000  1.0 0.0725560081
H  H71  1  0.29910000  0.48690000  0.46020000  1.0 0.0725560081
H  H72  1  0.20090000  0.01310000  0.46020000  1.0 0.0725560081
H  H73  1  0.39400000  0.11630000  0.95700000  1.0 0.0422967034
H  H74  1  0.10600000  0.38370000  0.95700000  1.0 0.0422967034
H  H75  1  0.60600000  0.61630000  0.54300000  1.0 0.0422967034
H  H76  1  0.89400000  0.88370000  0.54300000  1.0 0.0422967034
H  H77  1  0.60600000  0.88370000  0.04300000  1.0 0.0422967034
H  H78  1  0.89400000  0.61630000  0.04300000  1.0 0.0422967034
H  H79  1  0.39400000  0.38370000  0.45700000  1.0 0.0422967034
H  H80  1  0.10600000  0.11630000  0.45700000  1.0 0.0422967034
H  H81  1  0.95260000  0.17350000  0.04330000  1.0 0.1099497224
H  H82  1  0.54740000  0.32650000  0.04330000  1.0 0.1099497224
H  H83  1  0.04740000  0.67350000  0.45670000  1.0 0.1099497224
H  H84  1  0.45260000  0.82650000  0.45670000  1.0 0.1099497224
H  H85  1  0.04740000  0.82650000  0.95670000  1.0 0.1099497224
H  H86  1  0.45260000  0.67350000  0.95670000  1.0 0.1099497224
H  H87  1  0.95260000  0.32650000  0.54330000  1.0 0.1099497224
H  H88  1  0.54740000  0.17350000  0.54330000  1.0 0.1099497224
H  H89  1  0.85060000  0.06990000  0.04870000  1.0 0.1288737202
H  H90  1  0.64940000  0.43010000  0.04870000  1.0 0.1288737202
H  H91  1  0.14940000  0.56990000  0.45130000  1.0 0.1288737202
H  H92  1  0.35060000  0.93010000  0.45130000  1.0 0.1288737202
H  H93  1  0.14940000  0.93010000  0.95130000  1.0 0.1288737202
H  H94  1  0.35060000  0.56990000  0.95130000  1.0 0.1288737202
H  H95  1  0.85060000  0.43010000  0.54870000  1.0 0.1288737202
H  H96  1  0.64940000  0.06990000  0.54870000  1.0 0.1288737202
C  C1  1  0.39480000  0.26828000  0.87479000  1.0 0.0145517981
C  C2  1  0.10520000  0.23172000  0.87479000  1.0 0.0145517981
C  C3  1  0.60520000  0.76828000  0.62521000  1.0 0.0145517981
C  C4  1  0.89480000  0.73172000  0.62521000  1.0 0.0145517981
C  C5  1  0.60520000  0.73172000  0.12521000  1.0 0.0145517981
C  C6  1  0.89480000  0.76828000  0.12521000  1.0 0.0145517981
C  C7  1  0.39480000  0.23172000  0.37479000  1.0 0.0145517981
C  C8  1  0.10520000  0.26828000  0.37479000  1.0 0.0145517981
C  C9  1  0.40370000  0.26815000  0.81276000  1.0 -0.1861946029
C  C10  1  0.09630000  0.23185000  0.81276000  1.0 -0.1861946029
C  C11  1  0.59630000  0.76815000  0.68724000  1.0 -0.1861946029
C  C12  1  0.90370000  0.73185000  0.68724000  1.0 -0.1861946029
C  C13  1  0.59630000  0.73185000  0.18724000  1.0 -0.1861946029
C  C14  1  0.90370000  0.76815000  0.18724000  1.0 -0.1861946029
C  C15  1  0.40370000  0.23185000  0.31276000  1.0 -0.1861946029
C  C16  1  0.09630000  0.26815000  0.31276000  1.0 -0.1861946029
C  C17  1  0.25000000  0.25000000  0.78030000  1.0 0.1012698332
C  C18  1  0.75000000  0.75000000  0.71970000  1.0 0.1012698332
C  C19  1  0.75000000  0.75000000  0.21970000  1.0 0.1012698332
C  C20  1  0.25000000  0.25000000  0.28030000  1.0 0.1012698332
C  C21  1  0.25000000  0.25000000  0.71370000  1.0 0.0882498127
C  C22  1  0.75000000  0.75000000  0.78630000  1.0 0.0882498127
C  C23  1  0.75000000  0.75000000  0.28630000  1.0 0.0882498127
C  C24  1  0.25000000  0.25000000  0.21370000  1.0 0.0882498127
C  C25  1  0.33220000  0.29859000  0.68128000  1.0 -0.1716961121
C  C26  1  0.16780000  0.20141000  0.68128000  1.0 -0.1716961121
C  C27  1  0.66780000  0.79859000  0.81872000  1.0 -0.1716961121
C  C28  1  0.83220000  0.70141000  0.81872000  1.0 -0.1716961121
C  C29  1  0.66780000  0.70141000  0.31872000  1.0 -0.1716961121
C  C30  1  0.83220000  0.79859000  0.31872000  1.0 -0.1716961121
C  C31  1  0.33220000  0.20141000  0.18128000  1.0 -0.1716961121
C  C32  1  0.16780000  0.29859000  0.18128000  1.0 -0.1716961121
C  C33  1  0.32550000  0.29705000  0.61964000  1.0 -0.014415952
C  C34  1  0.17450000  0.20295000  0.61964000  1.0 -0.0156859668
C  C35  1  0.67450000  0.79705000  0.88036000  1.0 -0.014415952
C  C36  1  0.82550000  0.70295000  0.88036000  1.0 -0.014415952
C  C37  1  0.67450000  0.70295000  0.38036000  1.0 -0.014415952
C  C38  1  0.82550000  0.79705000  0.38036000  1.0 -0.014415952
C  C39  1  0.32550000  0.20295000  0.11964000  1.0 -0.014415952
C  C40  1  0.17450000  0.29705000  0.11964000  1.0 -0.0156859668
C  C41  1  0.00370000  0.14260000  0.03300000  1.0 -0.0043460798
C  C42  1  0.49630000  0.35740000  0.03300000  1.0 -0.0043460798
C  C43  1  0.99630000  0.64260000  0.46700000  1.0 -0.0043460798
C  C44  1  0.50370000  0.85740000  0.46700000  1.0 -0.0043460798
C  C45  1  0.99630000  0.85740000  0.96700000  1.0 -0.0043460798
C  C46  1  0.50370000  0.64260000  0.96700000  1.0 -0.0043460798
C  C47  1  0.00370000  0.35740000  0.53300000  1.0 -0.0043460798
C  C48  1  0.49630000  0.14260000  0.53300000  1.0 -0.0043460798
C  C49  1  0.93650000  0.08120000  0.03420000  1.0 -0.2404822563
C  C50  1  0.56350000  0.41880000  0.03420000  1.0 -0.2404822563
C  C51  1  0.06350000  0.58120000  0.46580000  1.0 -0.2404822563
C  C52  1  0.43650000  0.91880000  0.46580000  1.0 -0.2404822563
C  C53  1  0.06350000  0.91880000  0.96580000  1.0 -0.2404822563
C  C54  1  0.43650000  0.58120000  0.96580000  1.0 -0.2404822563
C  C55  1  0.93650000  0.41880000  0.53420000  1.0 -0.2404822563
C  C56  1  0.56350000  0.08120000  0.53420000  1.0 -0.2404822563
C  C57  1  0.00800000  0.03650000  0.99470000  1.0 0.0781666645
C  C58  1  0.49200000  0.46350000  0.99470000  1.0 0.0781666645
C  C59  1  0.99200000  0.53650000  0.50530000  1.0 0.0781666645
C  C60  1  0.50800000  0.96350000  0.50530000  1.0 0.0781666645
C  C61  1  0.99200000  0.96350000  0.00530000  1.0 0.0781666645
C  C62  1  0.50800000  0.53650000  0.00530000  1.0 0.0781666645
C  C63  1  0.00800000  0.46350000  0.49470000  1.0 0.0781666645
C  C64  1  0.49200000  0.03650000  0.49470000  1.0 0.0781666645
C  C65  1  0.14270000  0.05700000  0.95580000  1.0 -0.0842604837
C  C66  1  0.35730000  0.44300000  0.95580000  1.0 -0.0842604837
C  C67  1  0.85730000  0.55700000  0.54420000  1.0 -0.0842604837
C  C68  1  0.64270000  0.94300000  0.54420000  1.0 -0.0842604837
C  C69  1  0.85730000  0.94300000  0.04420000  1.0 -0.0842604837
C  C70  1  0.64270000  0.55700000  0.04420000  1.0 -0.0842604837
C  C71  1  0.14270000  0.44300000  0.45580000  1.0 -0.0842604837
C  C72  1  0.35730000  0.05700000  0.45580000  1.0 -0.0842604837
C  C73  1  0.20700000  0.11850000  0.95590000  1.0 0.0725560081
C  C74  1  0.29300000  0.38150000  0.95590000  1.0 0.0725560081
C  C75  1  0.79300000  0.61850000  0.54410000  1.0 0.0725560081
C  C76  1  0.70700000  0.88150000  0.54410000  1.0 0.0725560081
C  C77  1  0.79300000  0.88150000  0.04410000  1.0 0.0725560081
C  C78  1  0.70700000  0.61850000  0.04410000  1.0 0.0725560081
C  C79  1  0.20700000  0.38150000  0.45590000  1.0 0.0725560081
C  C80  1  0.29300000  0.11850000  0.45590000  1.0 0.0725560081
C  C81  1  0.06290000  0.02910000  0.00470000  1.0 0.060870921
C  C82  1  0.43710000  0.47090000  0.00470000  1.0 0.060870921
C  C83  1  0.93710000  0.52910000  0.49530000  1.0 0.060870921
C  C84  1  0.56290000  0.97090000  0.49530000  1.0 0.060870921
C  C85  1  0.93710000  0.97090000  0.99530000  1.0 0.060870921
C  C86  1  0.56290000  0.52910000  0.99530000  1.0 0.060870921
C  C87  1  0.06290000  0.47090000  0.50470000  1.0 0.060870921
C  C88  1  0.43710000  0.02910000  0.50470000  1.0 0.060870921
C  C89  1  0.22500000  0.04510000  0.97780000  1.0 -0.090417218
C  C90  1  0.27500000  0.45490000  0.97780000  1.0 -0.090417218
C  C91  1  0.77500000  0.54510000  0.52220000  1.0 -0.090417218
C  C92  1  0.72500000  0.95490000  0.52220000  1.0 -0.090417218
C  C93  1  0.77500000  0.95490000  0.02220000  1.0 -0.090417218
C  C94  1  0.72500000  0.54510000  0.02220000  1.0 -0.090417218
C  C95  1  0.22500000  0.45490000  0.47780000  1.0 -0.090417218
C  C96  1  0.27500000  0.04510000  0.47780000  1.0 -0.090417218
C  C97  1  0.28090000  0.10720000  0.97610000  1.0 0.0231149191
C  C98  1  0.21910000  0.39280000  0.97610000  1.0 0.0231149191
C  C99  1  0.71910000  0.60720000  0.52390000  1.0 0.0231149191
C  C100  1  0.78090000  0.89280000  0.52390000  1.0 0.0231149191
C  C101  1  0.71910000  0.89280000  0.02390000  1.0 0.0231149191
C  C102  1  0.78090000  0.60720000  0.02390000  1.0 0.0231149191
C  C103  1  0.28090000  0.39280000  0.47610000  1.0 0.0231149191
C  C104  1  0.21910000  0.10720000  0.47610000  1.0 0.0231149191
C  C105  1  0.02530000  0.14080000  0.02630000  1.0 0.0467773829
C  C106  1  0.47470000  0.35920000  0.02630000  1.0 0.0467773829
C  C107  1  0.97470000  0.64080000  0.47370000  1.0 0.0467773829
C  C108  1  0.52530000  0.85920000  0.47370000  1.0 0.0467773829
C  C109  1  0.97470000  0.85920000  0.97370000  1.0 0.0467773829
C  C110  1  0.52530000  0.64080000  0.97370000  1.0 0.0467773829
C  C111  1  0.02530000  0.35920000  0.52630000  1.0 0.0467773829
C  C112  1  0.47470000  0.14080000  0.52630000  1.0 0.0467773829
C  C113  1  0.96400000  0.07870000  0.02930000  1.0 -0.2081799531
C  C114  1  0.53600000  0.42130000  0.02930000  1.0 -0.2081799531
C  C115  1  0.03600000  0.57870000  0.47070000  1.0 -0.2081799531
C  C116  1  0.46400000  0.92130000  0.47070000  1.0 -0.2081799531
C  C117  1  0.03600000  0.92130000  0.97070000  1.0 -0.2081799531
C  C118  1  0.46400000  0.57870000  0.97070000  1.0 -0.2081799531
C  C119  1  0.96400000  0.42130000  0.52930000  1.0 -0.2081799531
C  C120  1  0.53600000  0.07870000  0.52930000  1.0 -0.2081799531
N  N1  1  0.25000000  0.25000000  0.90491000  1.0 -0.2732199287
N  N2  1  0.75000000  0.75000000  0.59509000  1.0 -0.2732199287
N  N3  1  0.75000000  0.75000000  0.09509000  1.0 -0.2732199287
N  N4  1  0.25000000  0.25000000  0.40491000  1.0 -0.2732199287
N  N5  1  0.25000000  0.25000000  0.58785000  1.0 -0.3107892876
N  N6  1  0.75000000  0.75000000  0.91215000  1.0 -0.3107892876
N  N7  1  0.75000000  0.75000000  0.41215000  1.0 -0.3107892876
N  N8  1  0.25000000  0.25000000  0.08785000  1.0 -0.3107892876
N  N9  1  0.13690000  0.16170000  0.99460000  1.0 -0.1263992149
N  N10  1  0.36310000  0.33830000  0.99460000  1.0 -0.1263992149
N  N11  1  0.86310000  0.66170000  0.50540000  1.0 -0.1263992149
N  N12  1  0.63690000  0.83830000  0.50540000  1.0 -0.1263992149
N  N13  1  0.86310000  0.83830000  0.00540000  1.0 -0.1263992149
N  N14  1  0.63690000  0.66170000  0.00540000  1.0 -0.1263992149
N  N15  1  0.13690000  0.33830000  0.49460000  1.0 -0.1263992149
N  N16  1  0.36310000  0.16170000  0.49460000  1.0 -0.1263992149
N  N17  1  0.18600000  0.15650000  0.99970000  1.0 -0.157844395
N  N18  1  0.31400000  0.34350000  0.99970000  1.0 -0.157844395
N  N19  1  0.81400000  0.65650000  0.50030000  1.0 -0.157844395
N  N20  1  0.68600000  0.84350000  0.50030000  1.0 -0.157844395
N  N21  1  0.81400000  0.84350000  0.00030000  1.0 -0.157844395
N  N22  1  0.68600000  0.65650000  0.00030000  1.0 -0.157844395
N  N23  1  0.18600000  0.34350000  0.49970000  1.0 -0.157844395
N  N24  1  0.31400000  0.15650000  0.49970000  1.0 -0.157844395
