# DDEC6 charges by PACMAN v1.1 (https://github.com/mtap-research/PACMAN-charge/)
data_RAHNUL_ASR_pacman
_symmetry_space_group_name_H-M   'P 1'
_cell_length_a   30.20190000
_cell_length_b   30.20190000
_cell_length_c   30.20190000
_cell_angle_alpha   60.00000000
_cell_angle_beta   60.00000000
_cell_angle_gamma   60.00000000
_symmetry_Int_Tables_number   1
_chemical_formula_structural   CuH15(C9O2)2
_chemical_formula_sum   'Cu24 H360 C432 O96'
_cell_volume   19479.94821153
_cell_formula_units_Z   24
loop_
 _symmetry_equiv_pos_site_id
 _symmetry_equiv_pos_as_xyz
  1  'x, y, z'
loop_
 _atom_site_type_symbol
 _atom_site_label
 _atom_site_symmetry_multiplicity
 _atom_site_fract_x
 _atom_site_fract_y
 _atom_site_fract_z
 _atom_site_occupancy
 _atom_site_charge
Cu  Cu1  1  0.73746000  0.26254000  0.00000000  1.0 0.8597680187
Cu  Cu2  1  0.00000000  0.73746000  0.26254000  1.0 0.8597680187
Cu  Cu3  1  0.26254000  0.00000000  0.73746000  1.0 0.8597680187
Cu  Cu4  1  0.26254000  0.73746000  0.00000000  1.0 0.8597680187
Cu  Cu5  1  0.00000000  0.00000000  0.73746000  1.0 0.8597680187
Cu  Cu6  1  0.00000000  0.00000000  0.26254000  1.0 0.8597680187
Cu  Cu7  1  0.00000000  0.26254000  0.00000000  1.0 0.8597680187
Cu  Cu8  1  0.00000000  0.73746000  0.00000000  1.0 0.8597680187
Cu  Cu9  1  0.73746000  0.00000000  0.26254000  1.0 0.8597680187
Cu  Cu10  1  0.73746000  0.00000000  0.00000000  1.0 0.8597680187
Cu  Cu11  1  0.26254000  0.00000000  0.00000000  1.0 0.8597680187
Cu  Cu12  1  0.00000000  0.26254000  0.73746000  1.0 0.8597680187
Cu  Cu13  1  0.64910000  0.35090000  0.00000000  1.0 0.8373067036
Cu  Cu14  1  0.00000000  0.64910000  0.35090000  1.0 0.8373067036
Cu  Cu15  1  0.35090000  0.00000000  0.64910000  1.0 0.8373067036
Cu  Cu16  1  0.35090000  0.64910000  0.00000000  1.0 0.8373067036
Cu  Cu17  1  0.00000000  0.00000000  0.64910000  1.0 0.8373067036
Cu  Cu18  1  0.00000000  0.00000000  0.35090000  1.0 0.8373067036
Cu  Cu19  1  0.00000000  0.35090000  0.00000000  1.0 0.8373067036
Cu  Cu20  1  0.00000000  0.64910000  0.00000000  1.0 0.8373067036
Cu  Cu21  1  0.64910000  0.00000000  0.35090000  1.0 0.8373067036
Cu  Cu22  1  0.64910000  0.00000000  0.00000000  1.0 0.8373067036
Cu  Cu23  1  0.35090000  0.00000000  0.00000000  1.0 0.8373067036
Cu  Cu24  1  0.00000000  0.35090000  0.64910000  1.0 0.8373067036
H  H1  1  0.83510000  0.31390000  0.01590000  1.0 0.115324792
H  H2  1  0.01590000  0.83510000  0.31390000  1.0 0.115324792
H  H3  1  0.31390000  0.01590000  0.83510000  1.0 0.115324792
H  H4  1  0.16490000  0.68610000  0.16490000  1.0 0.115324792
H  H5  1  0.98410000  0.16490000  0.68610000  1.0 0.115324792
H  H6  1  0.16490000  0.98410000  0.16490000  1.0 0.115324792
H  H7  1  0.98410000  0.16490000  0.16490000  1.0 0.115324792
H  H8  1  0.16490000  0.68610000  0.98410000  1.0 0.115324792
H  H9  1  0.68610000  0.16490000  0.16490000  1.0 0.115324792
H  H10  1  0.68610000  0.98410000  0.16490000  1.0 0.115324792
H  H11  1  0.16490000  0.16490000  0.98410000  1.0 0.115324792
H  H12  1  0.16490000  0.16490000  0.68610000  1.0 0.115324792
H  H13  1  0.31390000  0.83510000  0.83510000  1.0 0.115324792
H  H14  1  0.01590000  0.83510000  0.83510000  1.0 0.115324792
H  H15  1  0.83510000  0.01590000  0.31390000  1.0 0.115324792
H  H16  1  0.83510000  0.31390000  0.83510000  1.0 0.115324792
H  H17  1  0.83510000  0.01590000  0.83510000  1.0 0.115324792
H  H18  1  0.31390000  0.83510000  0.01590000  1.0 0.115324792
H  H19  1  0.83510000  0.83510000  0.31390000  1.0 0.115324792
H  H20  1  0.83510000  0.83510000  0.01590000  1.0 0.115324792
H  H21  1  0.01590000  0.31390000  0.83510000  1.0 0.115324792
H  H22  1  0.68610000  0.16490000  0.98410000  1.0 0.115324792
H  H23  1  0.16490000  0.98410000  0.68610000  1.0 0.115324792
H  H24  1  0.98410000  0.68610000  0.16490000  1.0 0.115324792
H  H25  1  0.69490000  0.43950000  0.03650000  1.0 0.1441023613
H  H26  1  0.03650000  0.69490000  0.43950000  1.0 0.1441023613
H  H27  1  0.43950000  0.03650000  0.69490000  1.0 0.1441023613
H  H28  1  0.30510000  0.56050000  0.17090000  1.0 0.1441023613
H  H29  1  0.96350000  0.17090000  0.56050000  1.0 0.1441023613
H  H30  1  0.17090000  0.96350000  0.30510000  1.0 0.1441023613
H  H31  1  0.96350000  0.30510000  0.17090000  1.0 0.1441023613
H  H32  1  0.17090000  0.56050000  0.96350000  1.0 0.1441023613
H  H33  1  0.56050000  0.17090000  0.30510000  1.0 0.1441023613
H  H34  1  0.56050000  0.96350000  0.17090000  1.0 0.1441023613
H  H35  1  0.30510000  0.17090000  0.96350000  1.0 0.1441023613
H  H36  1  0.17090000  0.30510000  0.56050000  1.0 0.1441023613
H  H37  1  0.43950000  0.69490000  0.82910000  1.0 0.1441023613
H  H38  1  0.03650000  0.82910000  0.69490000  1.0 0.1441023613
H  H39  1  0.82910000  0.03650000  0.43950000  1.0 0.1441023613
H  H40  1  0.82910000  0.43950000  0.69490000  1.0 0.1441023613
H  H41  1  0.69490000  0.03650000  0.82910000  1.0 0.1441023613
H  H42  1  0.43950000  0.82910000  0.03650000  1.0 0.1441023613
H  H43  1  0.69490000  0.82910000  0.43950000  1.0 0.1441023613
H  H44  1  0.82910000  0.69490000  0.03650000  1.0 0.1441023613
H  H45  1  0.03650000  0.43950000  0.82910000  1.0 0.1441023613
H  H46  1  0.56050000  0.30510000  0.96350000  1.0 0.1441023613
H  H47  1  0.30510000  0.96350000  0.56050000  1.0 0.1441023613
H  H48  1  0.96350000  0.56050000  0.30510000  1.0 0.1441023613
H  H49  1  0.30510000  0.56050000  0.96350000  1.0 0.1441023613
H  H50  1  0.96350000  0.30510000  0.56050000  1.0 0.1441023613
H  H51  1  0.56050000  0.96350000  0.30510000  1.0 0.1441023613
H  H52  1  0.69490000  0.43950000  0.82910000  1.0 0.1441023613
H  H53  1  0.03650000  0.82910000  0.43950000  1.0 0.1441023613
H  H54  1  0.82910000  0.03650000  0.69490000  1.0 0.1441023613
H  H55  1  0.03650000  0.69490000  0.82910000  1.0 0.1441023613
H  H56  1  0.82910000  0.43950000  0.03650000  1.0 0.1441023613
H  H57  1  0.43950000  0.82910000  0.69490000  1.0 0.1441023613
H  H58  1  0.43950000  0.03650000  0.82910000  1.0 0.1441023613
H  H59  1  0.69490000  0.82910000  0.03650000  1.0 0.1441023613
H  H60  1  0.82910000  0.69490000  0.43950000  1.0 0.1441023613
H  H61  1  0.56050000  0.30510000  0.17090000  1.0 0.1441023613
H  H62  1  0.96350000  0.17090000  0.30510000  1.0 0.1441023613
H  H63  1  0.17090000  0.96350000  0.56050000  1.0 0.1441023613
H  H64  1  0.17090000  0.56050000  0.30510000  1.0 0.1441023613
H  H65  1  0.30510000  0.96350000  0.17090000  1.0 0.1441023613
H  H66  1  0.56050000  0.17090000  0.96350000  1.0 0.1441023613
H  H67  1  0.30510000  0.17090000  0.56050000  1.0 0.1441023613
H  H68  1  0.17090000  0.30510000  0.96350000  1.0 0.1441023613
H  H69  1  0.96350000  0.56050000  0.17090000  1.0 0.1441023613
H  H70  1  0.43950000  0.69490000  0.03650000  1.0 0.1441023613
H  H71  1  0.69490000  0.03650000  0.43950000  1.0 0.1441023613
H  H72  1  0.03650000  0.43950000  0.69490000  1.0 0.1441023613
H  H73  1  0.77480000  0.61920000  0.04800000  1.0 0.0279698295
H  H74  1  0.04800000  0.77480000  0.61920000  1.0 0.0279698295
H  H75  1  0.61920000  0.04800000  0.77480000  1.0 0.0279698295
H  H76  1  0.22520000  0.38080000  0.44200000  1.0 0.0279698295
H  H77  1  0.95200000  0.44200000  0.38080000  1.0 0.0279698295
H  H78  1  0.44200000  0.95200000  0.22520000  1.0 0.0279698295
H  H79  1  0.95200000  0.22520000  0.44200000  1.0 0.0279698295
H  H80  1  0.44200000  0.38080000  0.95200000  1.0 0.0279698295
H  H81  1  0.38080000  0.44200000  0.22520000  1.0 0.0279698295
H  H82  1  0.38080000  0.95200000  0.44200000  1.0 0.0279698295
H  H83  1  0.22520000  0.44200000  0.95200000  1.0 0.0279698295
H  H84  1  0.44200000  0.22520000  0.38080000  1.0 0.0279698295
H  H85  1  0.61920000  0.77480000  0.55800000  1.0 0.0279698295
H  H86  1  0.04800000  0.55800000  0.77480000  1.0 0.0279698295
H  H87  1  0.55800000  0.04800000  0.61920000  1.0 0.0279698295
H  H88  1  0.55800000  0.61920000  0.77480000  1.0 0.0279698295
H  H89  1  0.77480000  0.04800000  0.55800000  1.0 0.0279698295
H  H90  1  0.61920000  0.55800000  0.04800000  1.0 0.0279698295
H  H91  1  0.77480000  0.55800000  0.61920000  1.0 0.0279698295
H  H92  1  0.55800000  0.77480000  0.04800000  1.0 0.0279698295
H  H93  1  0.04800000  0.61920000  0.55800000  1.0 0.0279698295
H  H94  1  0.38080000  0.22520000  0.95200000  1.0 0.0279698295
H  H95  1  0.22520000  0.95200000  0.38080000  1.0 0.0279698295
H  H96  1  0.95200000  0.38080000  0.22520000  1.0 0.0279698295
H  H97  1  0.22520000  0.38080000  0.95200000  1.0 0.0279698295
H  H98  1  0.95200000  0.22520000  0.38080000  1.0 0.0279698295
H  H99  1  0.38080000  0.95200000  0.22520000  1.0 0.0279698295
H  H100  1  0.77480000  0.61920000  0.55800000  1.0 0.0279698295
H  H101  1  0.04800000  0.55800000  0.61920000  1.0 0.0279698295
H  H102  1  0.55800000  0.04800000  0.77480000  1.0 0.0279698295
H  H103  1  0.04800000  0.77480000  0.55800000  1.0 0.0279698295
H  H104  1  0.55800000  0.61920000  0.04800000  1.0 0.0279698295
H  H105  1  0.61920000  0.55800000  0.77480000  1.0 0.0279698295
H  H106  1  0.61920000  0.04800000  0.55800000  1.0 0.0279698295
H  H107  1  0.77480000  0.55800000  0.04800000  1.0 0.0279698295
H  H108  1  0.55800000  0.77480000  0.61920000  1.0 0.0279698295
H  H109  1  0.38080000  0.22520000  0.44200000  1.0 0.0279698295
H  H110  1  0.95200000  0.44200000  0.22520000  1.0 0.0279698295
H  H111  1  0.44200000  0.95200000  0.38080000  1.0 0.0279698295
H  H112  1  0.44200000  0.38080000  0.22520000  1.0 0.0279698295
H  H113  1  0.22520000  0.95200000  0.44200000  1.0 0.0279698295
H  H114  1  0.38080000  0.44200000  0.95200000  1.0 0.0279698295
H  H115  1  0.22520000  0.44200000  0.38080000  1.0 0.0279698295
H  H116  1  0.44200000  0.22520000  0.95200000  1.0 0.0279698295
H  H117  1  0.95200000  0.38080000  0.44200000  1.0 0.0279698295
H  H118  1  0.61920000  0.77480000  0.04800000  1.0 0.0279698295
H  H119  1  0.77480000  0.04800000  0.61920000  1.0 0.0279698295
H  H120  1  0.04800000  0.61920000  0.77480000  1.0 0.0279698295
H  H121  1  0.78550000  0.58770000  0.01210000  1.0 0.0797531802
H  H122  1  0.01210000  0.78550000  0.58770000  1.0 0.0797531802
H  H123  1  0.58770000  0.01210000  0.78550000  1.0 0.0797531802
H  H124  1  0.21450000  0.41230000  0.38530000  1.0 0.0797531802
H  H125  1  0.98790000  0.38530000  0.41230000  1.0 0.0797531802
H  H126  1  0.38530000  0.98790000  0.21450000  1.0 0.0797531802
H  H127  1  0.98790000  0.21450000  0.38530000  1.0 0.0797531802
H  H128  1  0.38530000  0.41230000  0.98790000  1.0 0.0797531802
H  H129  1  0.41230000  0.38530000  0.21450000  1.0 0.0797531802
H  H130  1  0.41230000  0.98790000  0.38530000  1.0 0.0797531802
H  H131  1  0.21450000  0.38530000  0.98790000  1.0 0.0797531802
H  H132  1  0.38530000  0.21450000  0.41230000  1.0 0.0797531802
H  H133  1  0.58770000  0.78550000  0.61470000  1.0 0.0797531802
H  H134  1  0.01210000  0.61470000  0.78550000  1.0 0.0797531802
H  H135  1  0.61470000  0.01210000  0.58770000  1.0 0.0797531802
H  H136  1  0.61470000  0.58770000  0.78550000  1.0 0.0797531802
H  H137  1  0.78550000  0.01210000  0.61470000  1.0 0.0797531802
H  H138  1  0.58770000  0.61470000  0.01210000  1.0 0.0797531802
H  H139  1  0.78550000  0.61470000  0.58770000  1.0 0.0797531802
H  H140  1  0.61470000  0.78550000  0.01210000  1.0 0.0797531802
H  H141  1  0.01210000  0.58770000  0.61470000  1.0 0.0797531802
H  H142  1  0.41230000  0.21450000  0.98790000  1.0 0.0797531802
H  H143  1  0.21450000  0.98790000  0.41230000  1.0 0.0797531802
H  H144  1  0.98790000  0.41230000  0.21450000  1.0 0.0797531802
H  H145  1  0.21450000  0.41230000  0.98790000  1.0 0.0797531802
H  H146  1  0.98790000  0.21450000  0.41230000  1.0 0.0797531802
H  H147  1  0.41230000  0.98790000  0.21450000  1.0 0.0797531802
H  H148  1  0.78550000  0.58770000  0.61470000  1.0 0.0797531802
H  H149  1  0.01210000  0.61470000  0.58770000  1.0 0.0797531802
H  H150  1  0.61470000  0.01210000  0.78550000  1.0 0.0797531802
H  H151  1  0.01210000  0.78550000  0.61470000  1.0 0.0797531802
H  H152  1  0.61470000  0.58770000  0.01210000  1.0 0.0797531802
H  H153  1  0.58770000  0.61470000  0.78550000  1.0 0.0797531802
H  H154  1  0.58770000  0.01210000  0.61470000  1.0 0.0797531802
H  H155  1  0.78550000  0.61470000  0.01210000  1.0 0.0797531802
H  H156  1  0.61470000  0.78550000  0.58770000  1.0 0.0797531802
H  H157  1  0.41230000  0.21450000  0.38530000  1.0 0.0797531802
H  H158  1  0.98790000  0.38530000  0.21450000  1.0 0.0797531802
H  H159  1  0.38530000  0.98790000  0.41230000  1.0 0.0797531802
H  H160  1  0.38530000  0.41230000  0.21450000  1.0 0.0797531802
H  H161  1  0.21450000  0.98790000  0.38530000  1.0 0.0797531802
H  H162  1  0.41230000  0.38530000  0.98790000  1.0 0.0797531802
H  H163  1  0.21450000  0.38530000  0.41230000  1.0 0.0797531802
H  H164  1  0.38530000  0.21450000  0.98790000  1.0 0.0797531802
H  H165  1  0.98790000  0.41230000  0.38530000  1.0 0.0797531802
H  H166  1  0.58770000  0.78550000  0.01210000  1.0 0.0797531802
H  H167  1  0.78550000  0.01210000  0.58770000  1.0 0.0797531802
H  H168  1  0.01210000  0.58770000  0.78550000  1.0 0.0797531802
H  H169  1  0.76640000  0.56140000  0.07680000  1.0 -0.001503707
H  H170  1  0.07680000  0.76640000  0.56140000  1.0 -0.001503707
H  H171  1  0.56140000  0.07680000  0.76640000  1.0 -0.001503707
H  H172  1  0.23360000  0.43860000  0.40460000  1.0 -0.001503707
H  H173  1  0.92320000  0.40460000  0.43860000  1.0 -0.001503707
H  H174  1  0.40460000  0.92320000  0.23360000  1.0 -0.001503707
H  H175  1  0.92320000  0.23360000  0.40460000  1.0 -0.001503707
H  H176  1  0.40460000  0.43860000  0.92320000  1.0 -0.001503707
H  H177  1  0.43860000  0.40460000  0.23360000  1.0 -0.001503707
H  H178  1  0.43860000  0.92320000  0.40460000  1.0 -0.001503707
H  H179  1  0.23360000  0.40460000  0.92320000  1.0 -0.001503707
H  H180  1  0.40460000  0.23360000  0.43860000  1.0 -0.001503707
H  H181  1  0.56140000  0.76640000  0.59540000  1.0 -0.001503707
H  H182  1  0.07680000  0.59540000  0.76640000  1.0 -0.001503707
H  H183  1  0.59540000  0.07680000  0.56140000  1.0 -0.001503707
H  H184  1  0.59540000  0.56140000  0.76640000  1.0 -0.001503707
H  H185  1  0.76640000  0.07680000  0.59540000  1.0 -0.001503707
H  H186  1  0.56140000  0.59540000  0.07680000  1.0 -0.001503707
H  H187  1  0.76640000  0.59540000  0.56140000  1.0 -0.001503707
H  H188  1  0.59540000  0.76640000  0.07680000  1.0 -0.001503707
H  H189  1  0.07680000  0.56140000  0.59540000  1.0 -0.001503707
H  H190  1  0.43860000  0.23360000  0.92320000  1.0 -0.001503707
H  H191  1  0.23360000  0.92320000  0.43860000  1.0 -0.001503707
H  H192  1  0.92320000  0.43860000  0.23360000  1.0 -0.001503707
H  H193  1  0.23360000  0.43860000  0.92320000  1.0 -0.001503707
H  H194  1  0.92320000  0.23360000  0.43860000  1.0 -0.001503707
H  H195  1  0.43860000  0.92320000  0.23360000  1.0 -0.001503707
H  H196  1  0.76640000  0.56140000  0.59540000  1.0 -0.001503707
H  H197  1  0.07680000  0.59540000  0.56140000  1.0 -0.001503707
H  H198  1  0.59540000  0.07680000  0.76640000  1.0 -0.001503707
H  H199  1  0.07680000  0.76640000  0.59540000  1.0 -0.001503707
H  H200  1  0.59540000  0.56140000  0.07680000  1.0 -0.001503707
H  H201  1  0.56140000  0.59540000  0.76640000  1.0 -0.001503707
H  H202  1  0.56140000  0.07680000  0.59540000  1.0 -0.001503707
H  H203  1  0.76640000  0.59540000  0.07680000  1.0 -0.001503707
H  H204  1  0.59540000  0.76640000  0.56140000  1.0 -0.001503707
H  H205  1  0.43860000  0.23360000  0.40460000  1.0 -0.001503707
H  H206  1  0.92320000  0.40460000  0.23360000  1.0 -0.001503707
H  H207  1  0.40460000  0.92320000  0.43860000  1.0 -0.001503707
H  H208  1  0.40460000  0.43860000  0.23360000  1.0 -0.001503707
H  H209  1  0.23360000  0.92320000  0.40460000  1.0 -0.001503707
H  H210  1  0.43860000  0.40460000  0.92320000  1.0 -0.001503707
H  H211  1  0.23360000  0.40460000  0.43860000  1.0 -0.001503707
H  H212  1  0.40460000  0.23360000  0.92320000  1.0 -0.001503707
H  H213  1  0.92320000  0.43860000  0.40460000  1.0 -0.001503707
H  H214  1  0.56140000  0.76640000  0.07680000  1.0 -0.001503707
H  H215  1  0.76640000  0.07680000  0.56140000  1.0 -0.001503707
H  H216  1  0.07680000  0.56140000  0.76640000  1.0 -0.001503707
H  H217  1  0.76540000  0.54860000  0.07640000  1.0 0.063113768
H  H218  1  0.07640000  0.76540000  0.54860000  1.0 0.063113768
H  H219  1  0.54860000  0.07640000  0.76540000  1.0 0.063113768
H  H220  1  0.23460000  0.45140000  0.39040000  1.0 0.063113768
H  H221  1  0.92360000  0.39040000  0.45140000  1.0 0.063113768
H  H222  1  0.39040000  0.92360000  0.23460000  1.0 0.063113768
H  H223  1  0.92360000  0.23460000  0.39040000  1.0 0.063113768
H  H224  1  0.39040000  0.45140000  0.92360000  1.0 0.063113768
H  H225  1  0.45140000  0.39040000  0.23460000  1.0 0.063113768
H  H226  1  0.45140000  0.92360000  0.39040000  1.0 0.063113768
H  H227  1  0.23460000  0.39040000  0.92360000  1.0 0.063113768
H  H228  1  0.39040000  0.23460000  0.45140000  1.0 0.063113768
H  H229  1  0.54860000  0.76540000  0.60960000  1.0 0.063113768
H  H230  1  0.07640000  0.60960000  0.76540000  1.0 0.063113768
H  H231  1  0.60960000  0.07640000  0.54860000  1.0 0.063113768
H  H232  1  0.60960000  0.54860000  0.76540000  1.0 0.063113768
H  H233  1  0.76540000  0.07640000  0.60960000  1.0 0.063113768
H  H234  1  0.54860000  0.60960000  0.07640000  1.0 0.063113768
H  H235  1  0.76540000  0.60960000  0.54860000  1.0 0.063113768
H  H236  1  0.60960000  0.76540000  0.07640000  1.0 0.063113768
H  H237  1  0.07640000  0.54860000  0.60960000  1.0 0.063113768
H  H238  1  0.45140000  0.23460000  0.92360000  1.0 0.063113768
H  H239  1  0.23460000  0.92360000  0.45140000  1.0 0.063113768
H  H240  1  0.92360000  0.45140000  0.23460000  1.0 0.063113768
H  H241  1  0.23460000  0.45140000  0.92360000  1.0 0.063113768
H  H242  1  0.92360000  0.23460000  0.45140000  1.0 0.063113768
H  H243  1  0.45140000  0.92360000  0.23460000  1.0 0.063113768
H  H244  1  0.76540000  0.54860000  0.60960000  1.0 0.063113768
H  H245  1  0.07640000  0.60960000  0.54860000  1.0 0.063113768
H  H246  1  0.60960000  0.07640000  0.76540000  1.0 0.063113768
H  H247  1  0.07640000  0.76540000  0.60960000  1.0 0.063113768
H  H248  1  0.60960000  0.54860000  0.07640000  1.0 0.063113768
H  H249  1  0.54860000  0.60960000  0.76540000  1.0 0.063113768
H  H250  1  0.54860000  0.07640000  0.60960000  1.0 0.063113768
H  H251  1  0.76540000  0.60960000  0.07640000  1.0 0.063113768
H  H252  1  0.60960000  0.76540000  0.54860000  1.0 0.063113768
H  H253  1  0.45140000  0.23460000  0.39040000  1.0 0.063113768
H  H254  1  0.92360000  0.39040000  0.23460000  1.0 0.063113768
H  H255  1  0.39040000  0.92360000  0.45140000  1.0 0.063113768
H  H256  1  0.39040000  0.45140000  0.23460000  1.0 0.063113768
H  H257  1  0.23460000  0.92360000  0.39040000  1.0 0.063113768
H  H258  1  0.45140000  0.39040000  0.92360000  1.0 0.063113768
H  H259  1  0.23460000  0.39040000  0.45140000  1.0 0.063113768
H  H260  1  0.39040000  0.23460000  0.92360000  1.0 0.063113768
H  H261  1  0.92360000  0.45140000  0.39040000  1.0 0.063113768
H  H262  1  0.54860000  0.76540000  0.07640000  1.0 0.063113768
H  H263  1  0.76540000  0.07640000  0.54860000  1.0 0.063113768
H  H264  1  0.07640000  0.54860000  0.76540000  1.0 0.063113768
H  H265  1  0.75460000  0.55300000  0.10740000  1.0 0.0741127454
H  H266  1  0.10740000  0.75460000  0.55300000  1.0 0.0741127454
H  H267  1  0.55300000  0.10740000  0.75460000  1.0 0.0741127454
H  H268  1  0.24540000  0.44700000  0.41500000  1.0 0.0741127454
H  H269  1  0.89260000  0.41500000  0.44700000  1.0 0.0741127454
H  H270  1  0.41500000  0.89260000  0.24540000  1.0 0.0741127454
H  H271  1  0.89260000  0.24540000  0.41500000  1.0 0.0741127454
H  H272  1  0.41500000  0.44700000  0.89260000  1.0 0.0741127454
H  H273  1  0.44700000  0.41500000  0.24540000  1.0 0.0741127454
H  H274  1  0.44700000  0.89260000  0.41500000  1.0 0.0741127454
H  H275  1  0.24540000  0.41500000  0.89260000  1.0 0.0741127454
H  H276  1  0.41500000  0.24540000  0.44700000  1.0 0.0741127454
H  H277  1  0.55300000  0.75460000  0.58500000  1.0 0.0741127454
H  H278  1  0.10740000  0.58500000  0.75460000  1.0 0.0741127454
H  H279  1  0.58500000  0.10740000  0.55300000  1.0 0.0741127454
H  H280  1  0.58500000  0.55300000  0.75460000  1.0 0.0741127454
H  H281  1  0.75460000  0.10740000  0.58500000  1.0 0.0741127454
H  H282  1  0.55300000  0.58500000  0.10740000  1.0 0.0741127454
H  H283  1  0.75460000  0.58500000  0.55300000  1.0 0.0741127454
H  H284  1  0.58500000  0.75460000  0.10740000  1.0 0.0741127454
H  H285  1  0.10740000  0.55300000  0.58500000  1.0 0.0741127454
H  H286  1  0.44700000  0.24540000  0.89260000  1.0 0.0741127454
H  H287  1  0.24540000  0.89260000  0.44700000  1.0 0.0741127454
H  H288  1  0.89260000  0.44700000  0.24540000  1.0 0.0741127454
H  H289  1  0.24540000  0.44700000  0.89260000  1.0 0.0741127454
H  H290  1  0.89260000  0.24540000  0.44700000  1.0 0.0741127454
H  H291  1  0.44700000  0.89260000  0.24540000  1.0 0.0741127454
H  H292  1  0.75460000  0.55300000  0.58500000  1.0 0.0741127454
H  H293  1  0.10740000  0.58500000  0.55300000  1.0 0.0741127454
H  H294  1  0.58500000  0.10740000  0.75460000  1.0 0.0741127454
H  H295  1  0.10740000  0.75460000  0.58500000  1.0 0.0741127454
H  H296  1  0.58500000  0.55300000  0.10740000  1.0 0.0741127454
H  H297  1  0.55300000  0.58500000  0.75460000  1.0 0.0741127454
H  H298  1  0.55300000  0.10740000  0.58500000  1.0 0.0741127454
H  H299  1  0.75460000  0.58500000  0.10740000  1.0 0.0741127454
H  H300  1  0.58500000  0.75460000  0.55300000  1.0 0.0741127454
H  H301  1  0.44700000  0.24540000  0.41500000  1.0 0.0741127454
H  H302  1  0.89260000  0.41500000  0.24540000  1.0 0.0741127454
H  H303  1  0.41500000  0.89260000  0.44700000  1.0 0.0741127454
H  H304  1  0.41500000  0.44700000  0.24540000  1.0 0.0741127454
H  H305  1  0.24540000  0.89260000  0.41500000  1.0 0.0741127454
H  H306  1  0.44700000  0.41500000  0.89260000  1.0 0.0741127454
H  H307  1  0.24540000  0.41500000  0.44700000  1.0 0.0741127454
H  H308  1  0.41500000  0.24540000  0.89260000  1.0 0.0741127454
H  H309  1  0.89260000  0.44700000  0.41500000  1.0 0.0741127454
H  H310  1  0.55300000  0.75460000  0.10740000  1.0 0.0741127454
H  H311  1  0.75460000  0.10740000  0.55300000  1.0 0.0741127454
H  H312  1  0.10740000  0.55300000  0.75460000  1.0 0.0741127454
H  H313  1  0.77730000  0.60470000  0.04250000  1.0 -0.0291949639
H  H314  1  0.04250000  0.77730000  0.60470000  1.0 -0.0291949639
H  H315  1  0.60470000  0.04250000  0.77730000  1.0 -0.0291949639
H  H316  1  0.22270000  0.39530000  0.42450000  1.0 -0.0291949639
H  H317  1  0.95750000  0.42450000  0.39530000  1.0 -0.0291949639
H  H318  1  0.42450000  0.95750000  0.22270000  1.0 -0.0291949639
H  H319  1  0.95750000  0.22270000  0.42450000  1.0 -0.0291949639
H  H320  1  0.42450000  0.39530000  0.95750000  1.0 -0.0291949639
H  H321  1  0.39530000  0.42450000  0.22270000  1.0 -0.0291949639
H  H322  1  0.39530000  0.95750000  0.42450000  1.0 -0.0291949639
H  H323  1  0.22270000  0.42450000  0.95750000  1.0 -0.0291949639
H  H324  1  0.42450000  0.22270000  0.39530000  1.0 -0.0291949639
H  H325  1  0.60470000  0.77730000  0.57550000  1.0 -0.0291949639
H  H326  1  0.04250000  0.57550000  0.77730000  1.0 -0.0291949639
H  H327  1  0.57550000  0.04250000  0.60470000  1.0 -0.0291949639
H  H328  1  0.57550000  0.60470000  0.77730000  1.0 -0.0291949639
H  H329  1  0.77730000  0.04250000  0.57550000  1.0 -0.0291949639
H  H330  1  0.60470000  0.57550000  0.04250000  1.0 -0.0291949639
H  H331  1  0.77730000  0.57550000  0.60470000  1.0 -0.0291949639
H  H332  1  0.57550000  0.77730000  0.04250000  1.0 -0.0291949639
H  H333  1  0.04250000  0.60470000  0.57550000  1.0 -0.0291949639
H  H334  1  0.39530000  0.22270000  0.95750000  1.0 -0.0291949639
H  H335  1  0.22270000  0.95750000  0.39530000  1.0 -0.0291949639
H  H336  1  0.95750000  0.39530000  0.22270000  1.0 -0.0291949639
H  H337  1  0.22270000  0.39530000  0.95750000  1.0 -0.0291949639
H  H338  1  0.95750000  0.22270000  0.39530000  1.0 -0.0291949639
H  H339  1  0.39530000  0.95750000  0.22270000  1.0 -0.0291949639
H  H340  1  0.77730000  0.60470000  0.57550000  1.0 -0.0291949639
H  H341  1  0.04250000  0.57550000  0.60470000  1.0 -0.0291949639
H  H342  1  0.57550000  0.04250000  0.77730000  1.0 -0.0291949639
H  H343  1  0.04250000  0.77730000  0.57550000  1.0 -0.0291949639
H  H344  1  0.57550000  0.60470000  0.04250000  1.0 -0.0291949639
H  H345  1  0.60470000  0.57550000  0.77730000  1.0 -0.0291949639
H  H346  1  0.60470000  0.04250000  0.57550000  1.0 -0.0291949639
H  H347  1  0.77730000  0.57550000  0.04250000  1.0 -0.0291949639
H  H348  1  0.57550000  0.77730000  0.60470000  1.0 -0.0291949639
H  H349  1  0.39530000  0.22270000  0.42450000  1.0 -0.0291949639
H  H350  1  0.95750000  0.42450000  0.22270000  1.0 -0.0291949639
H  H351  1  0.42450000  0.95750000  0.39530000  1.0 -0.0291949639
H  H352  1  0.42450000  0.39530000  0.22270000  1.0 -0.0291949639
H  H353  1  0.22270000  0.95750000  0.42450000  1.0 -0.0291949639
H  H354  1  0.39530000  0.42450000  0.95750000  1.0 -0.0291949639
H  H355  1  0.22270000  0.42450000  0.39530000  1.0 -0.0291949639
H  H356  1  0.42450000  0.22270000  0.95750000  1.0 -0.0291949639
H  H357  1  0.95750000  0.39530000  0.42450000  1.0 -0.0291949639
H  H358  1  0.60470000  0.77730000  0.04250000  1.0 -0.0291949639
H  H359  1  0.77730000  0.04250000  0.60470000  1.0 -0.0291949639
H  H360  1  0.04250000  0.60470000  0.77730000  1.0 -0.0291949639
C  C1  1  0.73516000  0.34754000  0.01640000  1.0 0.5683286841
C  C2  1  0.01640000  0.73516000  0.34754000  1.0 0.5683286841
C  C3  1  0.34754000  0.01640000  0.73516000  1.0 0.5683286841
C  C4  1  0.26484000  0.65246000  0.09910000  1.0 0.5683286841
C  C5  1  0.98360000  0.09910000  0.65246000  1.0 0.5683286841
C  C6  1  0.09910000  0.98360000  0.26484000  1.0 0.5683286841
C  C7  1  0.98360000  0.26484000  0.09910000  1.0 0.5683286841
C  C8  1  0.09910000  0.65246000  0.98360000  1.0 0.5683286841
C  C9  1  0.65246000  0.09910000  0.26484000  1.0 0.5683286841
C  C10  1  0.65246000  0.98360000  0.09910000  1.0 0.5683286841
C  C11  1  0.26484000  0.09910000  0.98360000  1.0 0.5683286841
C  C12  1  0.09910000  0.26484000  0.65246000  1.0 0.5683286841
C  C13  1  0.34754000  0.73516000  0.90090000  1.0 0.5683286841
C  C14  1  0.01640000  0.90090000  0.73516000  1.0 0.5683286841
C  C15  1  0.90090000  0.01640000  0.34754000  1.0 0.5683286841
C  C16  1  0.90090000  0.34754000  0.73516000  1.0 0.5683286841
C  C17  1  0.73516000  0.01640000  0.90090000  1.0 0.5683286841
C  C18  1  0.34754000  0.90090000  0.01640000  1.0 0.5683286841
C  C19  1  0.73516000  0.90090000  0.34754000  1.0 0.5683286841
C  C20  1  0.90090000  0.73516000  0.01640000  1.0 0.5683286841
C  C21  1  0.01640000  0.34754000  0.90090000  1.0 0.5683286841
C  C22  1  0.65246000  0.26484000  0.98360000  1.0 0.5683286841
C  C23  1  0.26484000  0.98360000  0.65246000  1.0 0.5683286841
C  C24  1  0.98360000  0.65246000  0.26484000  1.0 0.5683286841
C  C25  1  0.26484000  0.65246000  0.98360000  1.0 0.5683286841
C  C26  1  0.98360000  0.26484000  0.65246000  1.0 0.5683286841
C  C27  1  0.65246000  0.98360000  0.26484000  1.0 0.5683286841
C  C28  1  0.73516000  0.34754000  0.90090000  1.0 0.5683286841
C  C29  1  0.01640000  0.90090000  0.34754000  1.0 0.5683286841
C  C30  1  0.90090000  0.01640000  0.73516000  1.0 0.5683286841
C  C31  1  0.01640000  0.73516000  0.90090000  1.0 0.5683286841
C  C32  1  0.90090000  0.34754000  0.01640000  1.0 0.5683286841
C  C33  1  0.34754000  0.90090000  0.73516000  1.0 0.5683286841
C  C34  1  0.34754000  0.01640000  0.90090000  1.0 0.5683286841
C  C35  1  0.73516000  0.90090000  0.01640000  1.0 0.5683286841
C  C36  1  0.90090000  0.73516000  0.34754000  1.0 0.5683286841
C  C37  1  0.65246000  0.26484000  0.09910000  1.0 0.5683286841
C  C38  1  0.98360000  0.09910000  0.26484000  1.0 0.5683286841
C  C39  1  0.09910000  0.98360000  0.65246000  1.0 0.5683286841
C  C40  1  0.09910000  0.65246000  0.26484000  1.0 0.5683286841
C  C41  1  0.26484000  0.98360000  0.09910000  1.0 0.5683286841
C  C42  1  0.65246000  0.09910000  0.98360000  1.0 0.5683286841
C  C43  1  0.26484000  0.09910000  0.65246000  1.0 0.5683286841
C  C44  1  0.09910000  0.26484000  0.98360000  1.0 0.5683286841
C  C45  1  0.98360000  0.65246000  0.09910000  1.0 0.5683286841
C  C46  1  0.34754000  0.73516000  0.01640000  1.0 0.5683286841
C  C47  1  0.73516000  0.01640000  0.34754000  1.0 0.5683286841
C  C48  1  0.01640000  0.34754000  0.73516000  1.0 0.5683286841
C  C49  1  0.76104000  0.37408000  0.02408000  1.0 -0.0482791029
C  C50  1  0.02408000  0.76104000  0.37408000  1.0 -0.0482791029
C  C51  1  0.37408000  0.02408000  0.76104000  1.0 -0.0482791029
C  C52  1  0.23896000  0.62592000  0.15920000  1.0 -0.0482791029
C  C53  1  0.97592000  0.15920000  0.62592000  1.0 -0.0482791029
C  C54  1  0.15920000  0.97592000  0.23896000  1.0 -0.0482791029
C  C55  1  0.97592000  0.23896000  0.15920000  1.0 -0.0482791029
C  C56  1  0.15920000  0.62592000  0.97592000  1.0 -0.0482791029
C  C57  1  0.62592000  0.15920000  0.23896000  1.0 -0.0482791029
C  C58  1  0.62592000  0.97592000  0.15920000  1.0 -0.0482791029
C  C59  1  0.23896000  0.15920000  0.97592000  1.0 -0.0482791029
C  C60  1  0.15920000  0.23896000  0.62592000  1.0 -0.0482791029
C  C61  1  0.37408000  0.76104000  0.84080000  1.0 -0.0482791029
C  C62  1  0.02408000  0.84080000  0.76104000  1.0 -0.0482791029
C  C63  1  0.84080000  0.02408000  0.37408000  1.0 -0.0482791029
C  C64  1  0.84080000  0.37408000  0.76104000  1.0 -0.0482791029
C  C65  1  0.76104000  0.02408000  0.84080000  1.0 -0.0482791029
C  C66  1  0.37408000  0.84080000  0.02408000  1.0 -0.0482791029
C  C67  1  0.76104000  0.84080000  0.37408000  1.0 -0.0482791029
C  C68  1  0.84080000  0.76104000  0.02408000  1.0 -0.0482791029
C  C69  1  0.02408000  0.37408000  0.84080000  1.0 -0.0482791029
C  C70  1  0.62592000  0.23896000  0.97592000  1.0 -0.0482791029
C  C71  1  0.23896000  0.97592000  0.62592000  1.0 -0.0482791029
C  C72  1  0.97592000  0.62592000  0.23896000  1.0 -0.0482791029
C  C73  1  0.23896000  0.62592000  0.97592000  1.0 -0.0482791029
C  C74  1  0.97592000  0.23896000  0.62592000  1.0 -0.0482791029
C  C75  1  0.62592000  0.97592000  0.23896000  1.0 -0.0482791029
C  C76  1  0.76104000  0.37408000  0.84080000  1.0 -0.0482791029
C  C77  1  0.02408000  0.84080000  0.37408000  1.0 -0.0482791029
C  C78  1  0.84080000  0.02408000  0.76104000  1.0 -0.0482791029
C  C79  1  0.02408000  0.76104000  0.84080000  1.0 -0.0482791029
C  C80  1  0.84080000  0.37408000  0.02408000  1.0 -0.0482791029
C  C81  1  0.37408000  0.84080000  0.76104000  1.0 -0.0482791029
C  C82  1  0.37408000  0.02408000  0.84080000  1.0 -0.0482791029
C  C83  1  0.76104000  0.84080000  0.02408000  1.0 -0.0482791029
C  C84  1  0.84080000  0.76104000  0.37408000  1.0 -0.0482791029
C  C85  1  0.62592000  0.23896000  0.15920000  1.0 -0.0482791029
C  C86  1  0.97592000  0.15920000  0.23896000  1.0 -0.0482791029
C  C87  1  0.15920000  0.97592000  0.62592000  1.0 -0.0482791029
C  C88  1  0.15920000  0.62592000  0.23896000  1.0 -0.0482791029
C  C89  1  0.23896000  0.97592000  0.15920000  1.0 -0.0482791029
C  C90  1  0.62592000  0.15920000  0.97592000  1.0 -0.0482791029
C  C91  1  0.23896000  0.15920000  0.62592000  1.0 -0.0482791029
C  C92  1  0.15920000  0.23896000  0.97592000  1.0 -0.0482791029
C  C93  1  0.97592000  0.62592000  0.15920000  1.0 -0.0482791029
C  C94  1  0.37408000  0.76104000  0.02408000  1.0 -0.0482791029
C  C95  1  0.76104000  0.02408000  0.37408000  1.0 -0.0482791029
C  C96  1  0.02408000  0.37408000  0.76104000  1.0 -0.0482791029
C  C97  1  0.81555000  0.34831000  0.02059000  1.0 -0.089964786
C  C98  1  0.02059000  0.81555000  0.34831000  1.0 -0.089964786
C  C99  1  0.34831000  0.02059000  0.81555000  1.0 -0.089964786
C  C100  1  0.18445000  0.65169000  0.18445000  1.0 -0.089964786
C  C101  1  0.97941000  0.18445000  0.65169000  1.0 -0.089964786
C  C102  1  0.18445000  0.97941000  0.18445000  1.0 -0.089964786
C  C103  1  0.97941000  0.18445000  0.18445000  1.0 -0.089964786
C  C104  1  0.18445000  0.65169000  0.97941000  1.0 -0.089964786
C  C105  1  0.65169000  0.18445000  0.18445000  1.0 -0.089964786
C  C106  1  0.65169000  0.97941000  0.18445000  1.0 -0.089964786
C  C107  1  0.18445000  0.18445000  0.97941000  1.0 -0.089964786
C  C108  1  0.18445000  0.18445000  0.65169000  1.0 -0.089964786
C  C109  1  0.34831000  0.81555000  0.81555000  1.0 -0.089964786
C  C110  1  0.02059000  0.81555000  0.81555000  1.0 -0.089964786
C  C111  1  0.81555000  0.02059000  0.34831000  1.0 -0.089964786
C  C112  1  0.81555000  0.34831000  0.81555000  1.0 -0.089964786
C  C113  1  0.81555000  0.02059000  0.81555000  1.0 -0.089964786
C  C114  1  0.34831000  0.81555000  0.02059000  1.0 -0.089964786
C  C115  1  0.81555000  0.81555000  0.34831000  1.0 -0.089964786
C  C116  1  0.81555000  0.81555000  0.02059000  1.0 -0.089964786
C  C117  1  0.02059000  0.34831000  0.81555000  1.0 -0.089964786
C  C118  1  0.65169000  0.18445000  0.97941000  1.0 -0.089964786
C  C119  1  0.18445000  0.97941000  0.65169000  1.0 -0.089964786
C  C120  1  0.97941000  0.65169000  0.18445000  1.0 -0.089964786
C  C121  1  0.73193000  0.42245000  0.03417000  1.0 -0.0080585396
C  C122  1  0.03417000  0.73193000  0.42245000  1.0 -0.0080585396
C  C123  1  0.42245000  0.03417000  0.73193000  1.0 -0.0080585396
C  C124  1  0.26807000  0.57755000  0.18855000  1.0 -0.0080585396
C  C125  1  0.96583000  0.18855000  0.57755000  1.0 -0.0080585396
C  C126  1  0.18855000  0.96583000  0.26807000  1.0 -0.0080585396
C  C127  1  0.96583000  0.26807000  0.18855000  1.0 -0.0080585396
C  C128  1  0.18855000  0.57755000  0.96583000  1.0 -0.0080585396
C  C129  1  0.57755000  0.18855000  0.26807000  1.0 -0.0080585396
C  C130  1  0.57755000  0.96583000  0.18855000  1.0 -0.0080585396
C  C131  1  0.26807000  0.18855000  0.96583000  1.0 -0.0080585396
C  C132  1  0.18855000  0.26807000  0.57755000  1.0 -0.0080585396
C  C133  1  0.42245000  0.73193000  0.81145000  1.0 -0.0080585396
C  C134  1  0.03417000  0.81145000  0.73193000  1.0 -0.0080585396
C  C135  1  0.81145000  0.03417000  0.42245000  1.0 -0.0080585396
C  C136  1  0.81145000  0.42245000  0.73193000  1.0 -0.0080585396
C  C137  1  0.73193000  0.03417000  0.81145000  1.0 -0.0080585396
C  C138  1  0.42245000  0.81145000  0.03417000  1.0 -0.0080585396
C  C139  1  0.73193000  0.81145000  0.42245000  1.0 -0.0080585396
C  C140  1  0.81145000  0.73193000  0.03417000  1.0 -0.0080585396
C  C141  1  0.03417000  0.42245000  0.81145000  1.0 -0.0080585396
C  C142  1  0.57755000  0.26807000  0.96583000  1.0 -0.0080585396
C  C143  1  0.26807000  0.96583000  0.57755000  1.0 -0.0080585396
C  C144  1  0.96583000  0.57755000  0.26807000  1.0 -0.0080585396
C  C145  1  0.26807000  0.57755000  0.96583000  1.0 -0.0080585396
C  C146  1  0.96583000  0.26807000  0.57755000  1.0 -0.0080585396
C  C147  1  0.57755000  0.96583000  0.26807000  1.0 -0.0080585396
C  C148  1  0.73193000  0.42245000  0.81145000  1.0 -0.0080585396
C  C149  1  0.03417000  0.81145000  0.42245000  1.0 -0.0080585396
C  C150  1  0.81145000  0.03417000  0.73193000  1.0 -0.0080585396
C  C151  1  0.03417000  0.73193000  0.81145000  1.0 -0.0080585396
C  C152  1  0.81145000  0.42245000  0.03417000  1.0 -0.0080585396
C  C153  1  0.42245000  0.81145000  0.73193000  1.0 -0.0080585396
C  C154  1  0.42245000  0.03417000  0.81145000  1.0 -0.0080585396
C  C155  1  0.73193000  0.81145000  0.03417000  1.0 -0.0080585396
C  C156  1  0.81145000  0.73193000  0.42245000  1.0 -0.0080585396
C  C157  1  0.57755000  0.26807000  0.18855000  1.0 -0.0080585396
C  C158  1  0.96583000  0.18855000  0.26807000  1.0 -0.0080585396
C  C159  1  0.18855000  0.96583000  0.57755000  1.0 -0.0080585396
C  C160  1  0.18855000  0.57755000  0.26807000  1.0 -0.0080585396
C  C161  1  0.26807000  0.96583000  0.18855000  1.0 -0.0080585396
C  C162  1  0.57755000  0.18855000  0.96583000  1.0 -0.0080585396
C  C163  1  0.26807000  0.18855000  0.57755000  1.0 -0.0080585396
C  C164  1  0.18855000  0.26807000  0.96583000  1.0 -0.0080585396
C  C165  1  0.96583000  0.57755000  0.18855000  1.0 -0.0080585396
C  C166  1  0.42245000  0.73193000  0.03417000  1.0 -0.0080585396
C  C167  1  0.73193000  0.03417000  0.42245000  1.0 -0.0080585396
C  C168  1  0.03417000  0.42245000  0.73193000  1.0 -0.0080585396
C  C169  1  0.75609000  0.44689000  0.04093000  1.0 0.0466050833
C  C170  1  0.04093000  0.75609000  0.44689000  1.0 0.0466050833
C  C171  1  0.44689000  0.04093000  0.75609000  1.0 0.0466050833
C  C172  1  0.24391000  0.55311000  0.24391000  1.0 0.0466050833
C  C173  1  0.95907000  0.24391000  0.55311000  1.0 0.0466050833
C  C174  1  0.24391000  0.95907000  0.24391000  1.0 0.0466050833
C  C175  1  0.95907000  0.24391000  0.24391000  1.0 0.0466050833
C  C176  1  0.24391000  0.55311000  0.95907000  1.0 0.0466050833
C  C177  1  0.55311000  0.24391000  0.24391000  1.0 0.0466050833
C  C178  1  0.55311000  0.95907000  0.24391000  1.0 0.0466050833
C  C179  1  0.24391000  0.24391000  0.95907000  1.0 0.0444409083
C  C180  1  0.24391000  0.24391000  0.55311000  1.0 0.0466050833
C  C181  1  0.44689000  0.75609000  0.75609000  1.0 0.0466050833
C  C182  1  0.04093000  0.75609000  0.75609000  1.0 0.0466050833
C  C183  1  0.75609000  0.04093000  0.44689000  1.0 0.0466050833
C  C184  1  0.75609000  0.44689000  0.75609000  1.0 0.0466050833
C  C185  1  0.75609000  0.04093000  0.75609000  1.0 0.0466050833
C  C186  1  0.44689000  0.75609000  0.04093000  1.0 0.0466050833
C  C187  1  0.75609000  0.75609000  0.44689000  1.0 0.0466050833
C  C188  1  0.75609000  0.75609000  0.04093000  1.0 0.0466050833
C  C189  1  0.04093000  0.44689000  0.75609000  1.0 0.0466050833
C  C190  1  0.55311000  0.24391000  0.95907000  1.0 0.0466050833
C  C191  1  0.24391000  0.95907000  0.55311000  1.0 0.0466050833
C  C192  1  0.95907000  0.55311000  0.24391000  1.0 0.0466050833
C  C193  1  0.72910000  0.50230000  0.03950000  1.0 -0.0740451087
C  C194  1  0.03950000  0.72910000  0.50230000  1.0 -0.0760898141
C  C195  1  0.50230000  0.03950000  0.72910000  1.0 -0.0760898141
C  C196  1  0.27090000  0.49770000  0.27090000  1.0 -0.0760898141
C  C197  1  0.96050000  0.27090000  0.49770000  1.0 -0.0760898141
C  C198  1  0.27090000  0.96050000  0.27090000  1.0 -0.0740451087
C  C199  1  0.96050000  0.27090000  0.27090000  1.0 -0.0760898141
C  C200  1  0.27090000  0.49770000  0.96050000  1.0 -0.0760898141
C  C201  1  0.49770000  0.27090000  0.27090000  1.0 -0.0760898141
C  C202  1  0.49770000  0.96050000  0.27090000  1.0 -0.0740451087
C  C203  1  0.27090000  0.27090000  0.96050000  1.0 -0.0760898141
C  C204  1  0.27090000  0.27090000  0.49770000  1.0 -0.0760898141
C  C205  1  0.50230000  0.72910000  0.72910000  1.0 -0.0760898141
C  C206  1  0.03950000  0.72910000  0.72910000  1.0 -0.0760898141
C  C207  1  0.72910000  0.03950000  0.50230000  1.0 -0.0760898141
C  C208  1  0.72910000  0.50230000  0.72910000  1.0 -0.0760898141
C  C209  1  0.72910000  0.03950000  0.72910000  1.0 -0.0760898141
C  C210  1  0.50230000  0.72910000  0.03950000  1.0 -0.0740451087
C  C211  1  0.72910000  0.72910000  0.50230000  1.0 -0.0760898141
C  C212  1  0.72910000  0.72910000  0.03950000  1.0 -0.0740451087
C  C213  1  0.03950000  0.50230000  0.72910000  1.0 -0.0760898141
C  C214  1  0.49770000  0.27090000  0.96050000  1.0 -0.0760898141
C  C215  1  0.27090000  0.96050000  0.49770000  1.0 -0.0740451087
C  C216  1  0.96050000  0.49770000  0.27090000  1.0 -0.0760898141
C  C217  1  0.70650000  0.54490000  0.04210000  1.0 -0.0371803756
C  C218  1  0.04210000  0.70650000  0.54490000  1.0 -0.0371803756
C  C219  1  0.54490000  0.04210000  0.70650000  1.0 -0.0371803756
C  C220  1  0.29350000  0.45510000  0.29350000  1.0 -0.0371803756
C  C221  1  0.95790000  0.29350000  0.45510000  1.0 -0.0371803756
C  C222  1  0.29350000  0.95790000  0.29350000  1.0 -0.0371803756
C  C223  1  0.95790000  0.29350000  0.29350000  1.0 -0.0371803756
C  C224  1  0.29350000  0.45510000  0.95790000  1.0 -0.0371803756
C  C225  1  0.45510000  0.29350000  0.29350000  1.0 -0.0371803756
C  C226  1  0.45510000  0.95790000  0.29350000  1.0 -0.0371803756
C  C227  1  0.29350000  0.29350000  0.95790000  1.0 -0.0371803756
C  C228  1  0.29350000  0.29350000  0.45510000  1.0 -0.0371803756
C  C229  1  0.54490000  0.70650000  0.70650000  1.0 -0.0371803756
C  C230  1  0.04210000  0.70650000  0.70650000  1.0 -0.0371803756
C  C231  1  0.70650000  0.04210000  0.54490000  1.0 -0.0371803756
C  C232  1  0.70650000  0.54490000  0.70650000  1.0 -0.0371803756
C  C233  1  0.70650000  0.04210000  0.70650000  1.0 -0.0371803756
C  C234  1  0.54490000  0.70650000  0.04210000  1.0 -0.0371803756
C  C235  1  0.70650000  0.70650000  0.54490000  1.0 -0.0371803756
C  C236  1  0.70650000  0.70650000  0.04210000  1.0 -0.0371803756
C  C237  1  0.04210000  0.54490000  0.70650000  1.0 -0.0371803756
C  C238  1  0.45510000  0.29350000  0.95790000  1.0 -0.0371803756
C  C239  1  0.29350000  0.95790000  0.45510000  1.0 -0.0371803756
C  C240  1  0.95790000  0.45510000  0.29350000  1.0 -0.0371803756
C  C241  1  0.67720000  0.59900000  0.04660000  1.0 0.0089499362
C  C242  1  0.04660000  0.67720000  0.59900000  1.0 0.0089499362
C  C243  1  0.59900000  0.04660000  0.67720000  1.0 0.0089499362
C  C244  1  0.32280000  0.40100000  0.32280000  1.0 0.0089499362
C  C245  1  0.95340000  0.32280000  0.40100000  1.0 0.0089499362
C  C246  1  0.32280000  0.95340000  0.32280000  1.0 0.0089499362
C  C247  1  0.95340000  0.32280000  0.32280000  1.0 0.0089499362
C  C248  1  0.32280000  0.40100000  0.95340000  1.0 0.0089499362
C  C249  1  0.40100000  0.32280000  0.32280000  1.0 0.0089499362
C  C250  1  0.40100000  0.95340000  0.32280000  1.0 0.0089499362
C  C251  1  0.32280000  0.32280000  0.95340000  1.0 0.0089499362
C  C252  1  0.32280000  0.32280000  0.40100000  1.0 0.0089499362
C  C253  1  0.59900000  0.67720000  0.67720000  1.0 0.0089499362
C  C254  1  0.04660000  0.67720000  0.67720000  1.0 0.0089499362
C  C255  1  0.67720000  0.04660000  0.59900000  1.0 0.0089499362
C  C256  1  0.67720000  0.59900000  0.67720000  1.0 0.0089499362
C  C257  1  0.67720000  0.04660000  0.67720000  1.0 0.0089499362
C  C258  1  0.59900000  0.67720000  0.04660000  1.0 0.0089499362
C  C259  1  0.67720000  0.67720000  0.59900000  1.0 0.0089499362
C  C260  1  0.67720000  0.67720000  0.04660000  1.0 0.0089499362
C  C261  1  0.04660000  0.59900000  0.67720000  1.0 0.0089499362
C  C262  1  0.40100000  0.32280000  0.95340000  1.0 0.0089499362
C  C263  1  0.32280000  0.95340000  0.40100000  1.0 0.0089499362
C  C264  1  0.95340000  0.40100000  0.32280000  1.0 0.0089499362
C  C265  1  0.70500000  0.62320000  0.04860000  1.0 0.0089499362
C  C266  1  0.04860000  0.70500000  0.62320000  1.0 0.0089499362
C  C267  1  0.62320000  0.04860000  0.70500000  1.0 0.0089499362
C  C268  1  0.29500000  0.37680000  0.37680000  1.0 0.0089499362
C  C269  1  0.95140000  0.37680000  0.37680000  1.0 0.0089499362
C  C270  1  0.37680000  0.95140000  0.29500000  1.0 0.0089499362
C  C271  1  0.95140000  0.29500000  0.37680000  1.0 0.0089499362
C  C272  1  0.37680000  0.37680000  0.95140000  1.0 0.0089499362
C  C273  1  0.37680000  0.37680000  0.29500000  1.0 0.0089499362
C  C274  1  0.37680000  0.95140000  0.37680000  1.0 0.0089499362
C  C275  1  0.29500000  0.37680000  0.95140000  1.0 0.0089499362
C  C276  1  0.37680000  0.29500000  0.37680000  1.0 0.0089499362
C  C277  1  0.62320000  0.70500000  0.62320000  1.0 0.0089499362
C  C278  1  0.04860000  0.62320000  0.70500000  1.0 0.0089499362
C  C279  1  0.62320000  0.04860000  0.62320000  1.0 0.0089499362
C  C280  1  0.62320000  0.62320000  0.70500000  1.0 0.0089499362
C  C281  1  0.70500000  0.04860000  0.62320000  1.0 0.0089499362
C  C282  1  0.62320000  0.62320000  0.04860000  1.0 0.0089499362
C  C283  1  0.70500000  0.62320000  0.62320000  1.0 0.0089499362
C  C284  1  0.62320000  0.70500000  0.04860000  1.0 0.0089499362
C  C285  1  0.04860000  0.62320000  0.62320000  1.0 0.0089499362
C  C286  1  0.37680000  0.29500000  0.95140000  1.0 0.0089499362
C  C287  1  0.29500000  0.95140000  0.37680000  1.0 0.0089499362
C  C288  1  0.95140000  0.37680000  0.29500000  1.0 0.0089499362
C  C289  1  0.76290000  0.59550000  0.04610000  1.0 -0.1588882695
C  C290  1  0.04610000  0.76290000  0.59550000  1.0 -0.1588882695
C  C291  1  0.59550000  0.04610000  0.76290000  1.0 -0.1588882695
C  C292  1  0.23710000  0.40450000  0.40450000  1.0 -0.1588882695
C  C293  1  0.95390000  0.40450000  0.40450000  1.0 -0.1588882695
C  C294  1  0.40450000  0.95390000  0.23710000  1.0 -0.1588882695
C  C295  1  0.95390000  0.23710000  0.40450000  1.0 -0.1588882695
C  C296  1  0.40450000  0.40450000  0.95390000  1.0 -0.1588882695
C  C297  1  0.40450000  0.40450000  0.23710000  1.0 -0.1588882695
C  C298  1  0.40450000  0.95390000  0.40450000  1.0 -0.1588882695
C  C299  1  0.23710000  0.40450000  0.95390000  1.0 -0.1588882695
C  C300  1  0.40450000  0.23710000  0.40450000  1.0 -0.1588882695
C  C301  1  0.59550000  0.76290000  0.59550000  1.0 -0.1588882695
C  C302  1  0.04610000  0.59550000  0.76290000  1.0 -0.1588882695
C  C303  1  0.59550000  0.04610000  0.59550000  1.0 -0.1588882695
C  C304  1  0.59550000  0.59550000  0.76290000  1.0 -0.1588882695
C  C305  1  0.76290000  0.04610000  0.59550000  1.0 -0.1588882695
C  C306  1  0.59550000  0.59550000  0.04610000  1.0 -0.1588882695
C  C307  1  0.76290000  0.59550000  0.59550000  1.0 -0.1588882695
C  C308  1  0.59550000  0.76290000  0.04610000  1.0 -0.1588882695
C  C309  1  0.04610000  0.59550000  0.59550000  1.0 -0.1588882695
C  C310  1  0.40450000  0.23710000  0.95390000  1.0 -0.1588882695
C  C311  1  0.23710000  0.95390000  0.40450000  1.0 -0.1588882695
C  C312  1  0.95390000  0.40450000  0.23710000  1.0 -0.1588882695
C  C313  1  0.72310000  0.49070000  0.06310000  1.0 -0.0760898141
C  C314  1  0.06310000  0.72310000  0.49070000  1.0 -0.0760898141
C  C315  1  0.49070000  0.06310000  0.72310000  1.0 -0.0760898141
C  C316  1  0.27690000  0.50930000  0.27690000  1.0 -0.0760898141
C  C317  1  0.93690000  0.27690000  0.50930000  1.0 -0.0760898141
C  C318  1  0.27690000  0.93690000  0.27690000  1.0 -0.0760898141
C  C319  1  0.93690000  0.27690000  0.27690000  1.0 -0.0760898141
C  C320  1  0.27690000  0.50930000  0.93690000  1.0 -0.0760898141
C  C321  1  0.50930000  0.27690000  0.27690000  1.0 -0.0760898141
C  C322  1  0.50930000  0.93690000  0.27690000  1.0 -0.0760898141
C  C323  1  0.27690000  0.27690000  0.93690000  1.0 -0.0760898141
C  C324  1  0.27690000  0.27690000  0.50930000  1.0 -0.0760898141
C  C325  1  0.49070000  0.72310000  0.72310000  1.0 -0.0760898141
C  C326  1  0.06310000  0.72310000  0.72310000  1.0 -0.0760898141
C  C327  1  0.72310000  0.06310000  0.49070000  1.0 -0.0760898141
C  C328  1  0.72310000  0.49070000  0.72310000  1.0 -0.0760898141
C  C329  1  0.72310000  0.06310000  0.72310000  1.0 -0.0760898141
C  C330  1  0.49070000  0.72310000  0.06310000  1.0 -0.0760898141
C  C331  1  0.72310000  0.72310000  0.49070000  1.0 -0.0760898141
C  C332  1  0.72310000  0.72310000  0.06310000  1.0 -0.0760898141
C  C333  1  0.06310000  0.49070000  0.72310000  1.0 -0.0760898141
C  C334  1  0.50930000  0.27690000  0.93690000  1.0 -0.0760898141
C  C335  1  0.27690000  0.93690000  0.50930000  1.0 -0.0760898141
C  C336  1  0.93690000  0.50930000  0.27690000  1.0 -0.0760898141
C  C337  1  0.69810000  0.53590000  0.06790000  1.0 -0.0371803756
C  C338  1  0.06790000  0.69810000  0.53590000  1.0 -0.0371803756
C  C339  1  0.53590000  0.06790000  0.69810000  1.0 -0.0371803756
C  C340  1  0.30190000  0.46410000  0.30190000  1.0 -0.0371803756
C  C341  1  0.93210000  0.30190000  0.46410000  1.0 -0.0371803756
C  C342  1  0.30190000  0.93210000  0.30190000  1.0 -0.0371803756
C  C343  1  0.93210000  0.30190000  0.30190000  1.0 -0.0371803756
C  C344  1  0.30190000  0.46410000  0.93210000  1.0 -0.0371803756
C  C345  1  0.46410000  0.30190000  0.30190000  1.0 -0.0371803756
C  C346  1  0.46410000  0.93210000  0.30190000  1.0 -0.0371803756
C  C347  1  0.30190000  0.30190000  0.93210000  1.0 -0.0371803756
C  C348  1  0.30190000  0.30190000  0.46410000  1.0 -0.0371803756
C  C349  1  0.53590000  0.69810000  0.69810000  1.0 -0.0371803756
C  C350  1  0.06790000  0.69810000  0.69810000  1.0 -0.0371803756
C  C351  1  0.69810000  0.06790000  0.53590000  1.0 -0.0371803756
C  C352  1  0.69810000  0.53590000  0.69810000  1.0 -0.0371803756
C  C353  1  0.69810000  0.06790000  0.69810000  1.0 -0.0371803756
C  C354  1  0.53590000  0.69810000  0.06790000  1.0 -0.0371803756
C  C355  1  0.69810000  0.69810000  0.53590000  1.0 -0.0371803756
C  C356  1  0.69810000  0.69810000  0.06790000  1.0 -0.0371803756
C  C357  1  0.06790000  0.53590000  0.69810000  1.0 -0.0371803756
C  C358  1  0.46410000  0.30190000  0.93210000  1.0 -0.0371803756
C  C359  1  0.30190000  0.93210000  0.46410000  1.0 -0.0371803756
C  C360  1  0.93210000  0.46410000  0.30190000  1.0 -0.0371803756
C  C361  1  0.66880000  0.59000000  0.07240000  1.0 0.0089499362
C  C362  1  0.07240000  0.66880000  0.59000000  1.0 0.0089499362
C  C363  1  0.59000000  0.07240000  0.66880000  1.0 0.0089499362
C  C364  1  0.33120000  0.41000000  0.33120000  1.0 0.0089499362
C  C365  1  0.92760000  0.33120000  0.41000000  1.0 0.0089499362
C  C366  1  0.33120000  0.92760000  0.33120000  1.0 0.0089499362
C  C367  1  0.92760000  0.33120000  0.33120000  1.0 0.0089499362
C  C368  1  0.33120000  0.41000000  0.92760000  1.0 0.0089499362
C  C369  1  0.41000000  0.33120000  0.33120000  1.0 0.0089499362
C  C370  1  0.41000000  0.92760000  0.33120000  1.0 0.0089499362
C  C371  1  0.33120000  0.33120000  0.92760000  1.0 0.0089499362
C  C372  1  0.33120000  0.33120000  0.41000000  1.0 0.0089499362
C  C373  1  0.59000000  0.66880000  0.66880000  1.0 0.0089499362
C  C374  1  0.07240000  0.66880000  0.66880000  1.0 0.0089499362
C  C375  1  0.66880000  0.07240000  0.59000000  1.0 0.0089499362
C  C376  1  0.66880000  0.59000000  0.66880000  1.0 0.0089499362
C  C377  1  0.66880000  0.07240000  0.66880000  1.0 0.0089499362
C  C378  1  0.59000000  0.66880000  0.07240000  1.0 0.0089499362
C  C379  1  0.66880000  0.66880000  0.59000000  1.0 0.0089499362
C  C380  1  0.66880000  0.66880000  0.07240000  1.0 0.0089499362
C  C381  1  0.07240000  0.59000000  0.66880000  1.0 0.0089499362
C  C382  1  0.41000000  0.33120000  0.92760000  1.0 0.0089499362
C  C383  1  0.33120000  0.92760000  0.41000000  1.0 0.0089499362
C  C384  1  0.92760000  0.41000000  0.33120000  1.0 0.0089499362
C  C385  1  0.69650000  0.61470000  0.07410000  1.0 0.0089499362
C  C386  1  0.07410000  0.69650000  0.61470000  1.0 0.0089499362
C  C387  1  0.61470000  0.07410000  0.69650000  1.0 0.0089499362
C  C388  1  0.30350000  0.38530000  0.38530000  1.0 0.0089499362
C  C389  1  0.92590000  0.38530000  0.38530000  1.0 0.0089499362
C  C390  1  0.38530000  0.92590000  0.30350000  1.0 0.0089499362
C  C391  1  0.92590000  0.30350000  0.38530000  1.0 0.0089499362
C  C392  1  0.38530000  0.38530000  0.92590000  1.0 0.0089499362
C  C393  1  0.38530000  0.38530000  0.30350000  1.0 0.0089499362
C  C394  1  0.38530000  0.92590000  0.38530000  1.0 0.0089499362
C  C395  1  0.30350000  0.38530000  0.92590000  1.0 0.0089499362
C  C396  1  0.38530000  0.30350000  0.38530000  1.0 0.0089499362
C  C397  1  0.61470000  0.69650000  0.61470000  1.0 0.0089499362
C  C398  1  0.07410000  0.61470000  0.69650000  1.0 0.0089499362
C  C399  1  0.61470000  0.07410000  0.61470000  1.0 0.0089499362
C  C400  1  0.61470000  0.61470000  0.69650000  1.0 0.0089499362
C  C401  1  0.69650000  0.07410000  0.61470000  1.0 0.0089499362
C  C402  1  0.61470000  0.61470000  0.07410000  1.0 0.0089499362
C  C403  1  0.69650000  0.61470000  0.61470000  1.0 0.0089499362
C  C404  1  0.61470000  0.69650000  0.07410000  1.0 0.0089499362
C  C405  1  0.07410000  0.61470000  0.61470000  1.0 0.0089499362
C  C406  1  0.38530000  0.30350000  0.92590000  1.0 0.0089499362
C  C407  1  0.30350000  0.92590000  0.38530000  1.0 0.0089499362
C  C408  1  0.92590000  0.38530000  0.30350000  1.0 0.0089499362
C  C409  1  0.75330000  0.58570000  0.07530000  1.0 -0.1588882695
C  C410  1  0.07530000  0.75330000  0.58570000  1.0 -0.1650502776
C  C411  1  0.58570000  0.07530000  0.75330000  1.0 -0.1588882695
C  C412  1  0.24670000  0.41430000  0.41430000  1.0 -0.1650502776
C  C413  1  0.92470000  0.41430000  0.41430000  1.0 -0.1588882695
C  C414  1  0.41430000  0.92470000  0.24670000  1.0 -0.1650502776
C  C415  1  0.92470000  0.24670000  0.41430000  1.0 -0.1588882695
C  C416  1  0.41430000  0.41430000  0.92470000  1.0 -0.1650502776
C  C417  1  0.41430000  0.41430000  0.24670000  1.0 -0.1650502776
C  C418  1  0.41430000  0.92470000  0.41430000  1.0 -0.1650502776
C  C419  1  0.24670000  0.41430000  0.92470000  1.0 -0.1650502776
C  C420  1  0.41430000  0.24670000  0.41430000  1.0 -0.1588882695
C  C421  1  0.58570000  0.75330000  0.58570000  1.0 -0.1650502776
C  C422  1  0.07530000  0.58570000  0.75330000  1.0 -0.1650502776
C  C423  1  0.58570000  0.07530000  0.58570000  1.0 -0.1588882695
C  C424  1  0.58570000  0.58570000  0.75330000  1.0 -0.1650502776
C  C425  1  0.75330000  0.07530000  0.58570000  1.0 -0.1588882695
C  C426  1  0.58570000  0.58570000  0.07530000  1.0 -0.1588882695
C  C427  1  0.75330000  0.58570000  0.58570000  1.0 -0.1650502776
C  C428  1  0.58570000  0.75330000  0.07530000  1.0 -0.1650502776
C  C429  1  0.07530000  0.58570000  0.58570000  1.0 -0.1650502776
C  C430  1  0.41430000  0.24670000  0.92470000  1.0 -0.1650502776
C  C431  1  0.24670000  0.92470000  0.41430000  1.0 -0.1650502776
C  C432  1  0.92470000  0.41430000  0.24670000  1.0 -0.1588882695
O  O1  1  0.76282000  0.30150000  0.01302000  1.0 -0.5373500644
O  O2  1  0.01302000  0.76282000  0.30150000  1.0 -0.5373500644
O  O3  1  0.30150000  0.01302000  0.76282000  1.0 -0.5373500644
O  O4  1  0.23718000  0.69850000  0.07734000  1.0 -0.5373500644
O  O5  1  0.98698000  0.07734000  0.69850000  1.0 -0.5373500644
O  O6  1  0.07734000  0.98698000  0.23718000  1.0 -0.5373500644
O  O7  1  0.98698000  0.23718000  0.07734000  1.0 -0.5373500644
O  O8  1  0.07734000  0.69850000  0.98698000  1.0 -0.5373500644
O  O9  1  0.69850000  0.07734000  0.23718000  1.0 -0.5373500644
O  O10  1  0.69850000  0.98698000  0.07734000  1.0 -0.5373500644
O  O11  1  0.23718000  0.07734000  0.98698000  1.0 -0.5373500644
O  O12  1  0.07734000  0.23718000  0.69850000  1.0 -0.5373500644
O  O13  1  0.30150000  0.76282000  0.92266000  1.0 -0.5373500644
O  O14  1  0.01302000  0.92266000  0.76282000  1.0 -0.5373500644
O  O15  1  0.92266000  0.01302000  0.30150000  1.0 -0.5373500644
O  O16  1  0.92266000  0.30150000  0.76282000  1.0 -0.5373500644
O  O17  1  0.76282000  0.01302000  0.92266000  1.0 -0.5373500644
O  O18  1  0.30150000  0.92266000  0.01302000  1.0 -0.5373500644
O  O19  1  0.76282000  0.92266000  0.30150000  1.0 -0.5373500644
O  O20  1  0.92266000  0.76282000  0.01302000  1.0 -0.533588702
O  O21  1  0.01302000  0.30150000  0.92266000  1.0 -0.5373500644
O  O22  1  0.69850000  0.23718000  0.98698000  1.0 -0.5373500644
O  O23  1  0.23718000  0.98698000  0.69850000  1.0 -0.5373500644
O  O24  1  0.98698000  0.69850000  0.23718000  1.0 -0.5373500644
O  O25  1  0.23718000  0.69850000  0.98698000  1.0 -0.5373500644
O  O26  1  0.98698000  0.23718000  0.69850000  1.0 -0.5373500644
O  O27  1  0.69850000  0.98698000  0.23718000  1.0 -0.5373500644
O  O28  1  0.76282000  0.30150000  0.92266000  1.0 -0.5373500644
O  O29  1  0.01302000  0.92266000  0.30150000  1.0 -0.5373500644
O  O30  1  0.92266000  0.01302000  0.76282000  1.0 -0.5373500644
O  O31  1  0.01302000  0.76282000  0.92266000  1.0 -0.5373500644
O  O32  1  0.92266000  0.30150000  0.01302000  1.0 -0.5373500644
O  O33  1  0.30150000  0.92266000  0.76282000  1.0 -0.5373500644
O  O34  1  0.30150000  0.01302000  0.92266000  1.0 -0.5373500644
O  O35  1  0.76282000  0.92266000  0.01302000  1.0 -0.5373500644
O  O36  1  0.92266000  0.76282000  0.30150000  1.0 -0.5373500644
O  O37  1  0.69850000  0.23718000  0.07734000  1.0 -0.5373500644
O  O38  1  0.98698000  0.07734000  0.23718000  1.0 -0.5373500644
O  O39  1  0.07734000  0.98698000  0.69850000  1.0 -0.5373500644
O  O40  1  0.07734000  0.69850000  0.23718000  1.0 -0.5373500644
O  O41  1  0.23718000  0.98698000  0.07734000  1.0 -0.5373500644
O  O42  1  0.69850000  0.07734000  0.98698000  1.0 -0.5373500644
O  O43  1  0.23718000  0.07734000  0.69850000  1.0 -0.5373500644
O  O44  1  0.07734000  0.23718000  0.98698000  1.0 -0.5373500644
O  O45  1  0.98698000  0.69850000  0.07734000  1.0 -0.5373500644
O  O46  1  0.30150000  0.76282000  0.01302000  1.0 -0.5373500644
O  O47  1  0.76282000  0.01302000  0.30150000  1.0 -0.5373500644
O  O48  1  0.01302000  0.30150000  0.76282000  1.0 -0.5373500644
O  O49  1  0.68841000  0.37561000  0.01359000  1.0 -0.5373500644
O  O50  1  0.01359000  0.68841000  0.37561000  1.0 -0.5373500644
O  O51  1  0.37561000  0.01359000  0.68841000  1.0 -0.5373500644
O  O52  1  0.31159000  0.62439000  0.07761000  1.0 -0.5373500644
O  O53  1  0.98641000  0.07761000  0.62439000  1.0 -0.5373500644
O  O54  1  0.07761000  0.98641000  0.31159000  1.0 -0.5373500644
O  O55  1  0.98641000  0.31159000  0.07761000  1.0 -0.5373500644
O  O56  1  0.07761000  0.62439000  0.98641000  1.0 -0.5373500644
O  O57  1  0.62439000  0.07761000  0.31159000  1.0 -0.5373500644
O  O58  1  0.62439000  0.98641000  0.07761000  1.0 -0.5373500644
O  O59  1  0.31159000  0.07761000  0.98641000  1.0 -0.5373500644
O  O60  1  0.07761000  0.31159000  0.62439000  1.0 -0.5373500644
O  O61  1  0.37561000  0.68841000  0.92239000  1.0 -0.5373500644
O  O62  1  0.01359000  0.92239000  0.68841000  1.0 -0.5373500644
O  O63  1  0.92239000  0.01359000  0.37561000  1.0 -0.5373500644
O  O64  1  0.92239000  0.37561000  0.68841000  1.0 -0.5373500644
O  O65  1  0.68841000  0.01359000  0.92239000  1.0 -0.5373500644
O  O66  1  0.37561000  0.92239000  0.01359000  1.0 -0.5373500644
O  O67  1  0.68841000  0.92239000  0.37561000  1.0 -0.5373500644
O  O68  1  0.92239000  0.68841000  0.01359000  1.0 -0.5373500644
O  O69  1  0.01359000  0.37561000  0.92239000  1.0 -0.5373500644
O  O70  1  0.62439000  0.31159000  0.98641000  1.0 -0.5373500644
O  O71  1  0.31159000  0.98641000  0.62439000  1.0 -0.5373500644
O  O72  1  0.98641000  0.62439000  0.31159000  1.0 -0.5373500644
O  O73  1  0.31159000  0.62439000  0.98641000  1.0 -0.5373500644
O  O74  1  0.98641000  0.31159000  0.62439000  1.0 -0.5373500644
O  O75  1  0.62439000  0.98641000  0.31159000  1.0 -0.5373500644
O  O76  1  0.68841000  0.37561000  0.92239000  1.0 -0.5373500644
O  O77  1  0.01359000  0.92239000  0.37561000  1.0 -0.5373500644
O  O78  1  0.92239000  0.01359000  0.68841000  1.0 -0.5373500644
O  O79  1  0.01359000  0.68841000  0.92239000  1.0 -0.5373500644
O  O80  1  0.92239000  0.37561000  0.01359000  1.0 -0.5373500644
O  O81  1  0.37561000  0.92239000  0.68841000  1.0 -0.5373500644
O  O82  1  0.37561000  0.01359000  0.92239000  1.0 -0.5373500644
O  O83  1  0.68841000  0.92239000  0.01359000  1.0 -0.5373500644
O  O84  1  0.92239000  0.68841000  0.37561000  1.0 -0.5373500644
O  O85  1  0.62439000  0.31159000  0.07761000  1.0 -0.5373500644
O  O86  1  0.98641000  0.07761000  0.31159000  1.0 -0.5373500644
O  O87  1  0.07761000  0.98641000  0.62439000  1.0 -0.5373500644
O  O88  1  0.07761000  0.62439000  0.31159000  1.0 -0.5373500644
O  O89  1  0.31159000  0.98641000  0.07761000  1.0 -0.5373500644
O  O90  1  0.62439000  0.07761000  0.98641000  1.0 -0.5373500644
O  O91  1  0.31159000  0.07761000  0.62439000  1.0 -0.5373500644
O  O92  1  0.07761000  0.31159000  0.98641000  1.0 -0.5373500644
O  O93  1  0.98641000  0.62439000  0.07761000  1.0 -0.5373500644
O  O94  1  0.37561000  0.68841000  0.01359000  1.0 -0.5373500644
O  O95  1  0.68841000  0.01359000  0.37561000  1.0 -0.5373500644
O  O96  1  0.01359000  0.37561000  0.68841000  1.0 -0.5373500644
