# DDEC6 charges by PACMAN v1.1 (https://github.com/mtap-research/PACMAN-charge/)
data_RAHPAT_ASR_pacman
_symmetry_space_group_name_H-M   'P 1'
_cell_length_a   30.49540000
_cell_length_b   30.49540000
_cell_length_c   30.49540000
_cell_angle_alpha   60.00000000
_cell_angle_beta   60.00000000
_cell_angle_gamma   60.00000000
_symmetry_Int_Tables_number   1
_chemical_formula_structural   Cu3H33C54NO12
_chemical_formula_sum   'Cu24 H264 C432 N8 O96'
_cell_volume   20053.39945860
_cell_formula_units_Z   8
loop_
 _symmetry_equiv_pos_site_id
 _symmetry_equiv_pos_as_xyz
  1  'x, y, z'
loop_
 _atom_site_type_symbol
 _atom_site_label
 _atom_site_symmetry_multiplicity
 _atom_site_fract_x
 _atom_site_fract_y
 _atom_site_fract_z
 _atom_site_occupancy
 _atom_site_charge
Cu  Cu1  1  0.65370000  0.34630000  0.00000000  1.0 0.890615595
Cu  Cu2  1  0.00000000  0.65370000  0.34630000  1.0 0.890615595
Cu  Cu3  1  0.34630000  0.00000000  0.65370000  1.0 0.890615595
Cu  Cu4  1  0.34630000  0.65370000  0.00000000  1.0 0.890615595
Cu  Cu5  1  0.00000000  0.00000000  0.65370000  1.0 0.890615595
Cu  Cu6  1  0.00000000  0.00000000  0.34630000  1.0 0.890615595
Cu  Cu7  1  0.00000000  0.34630000  0.00000000  1.0 0.890615595
Cu  Cu8  1  0.00000000  0.65370000  0.00000000  1.0 0.890615595
Cu  Cu9  1  0.65370000  0.00000000  0.34630000  1.0 0.890615595
Cu  Cu10  1  0.65370000  0.00000000  0.00000000  1.0 0.890615595
Cu  Cu11  1  0.34630000  0.00000000  0.00000000  1.0 0.890615595
Cu  Cu12  1  0.00000000  0.34630000  0.65370000  1.0 0.890615595
Cu  Cu13  1  0.74098000  0.25902000  0.00000000  1.0 0.868553949
Cu  Cu14  1  0.00000000  0.74098000  0.25902000  1.0 0.868553949
Cu  Cu15  1  0.25902000  0.00000000  0.74098000  1.0 0.868553949
Cu  Cu16  1  0.25902000  0.74098000  0.00000000  1.0 0.8643074558
Cu  Cu17  1  0.00000000  0.00000000  0.74098000  1.0 0.868553949
Cu  Cu18  1  0.00000000  0.00000000  0.25902000  1.0 0.8643074558
Cu  Cu19  1  0.00000000  0.25902000  0.00000000  1.0 0.868553949
Cu  Cu20  1  0.00000000  0.74098000  0.00000000  1.0 0.8643074558
Cu  Cu21  1  0.74098000  0.00000000  0.25902000  1.0 0.868553949
Cu  Cu22  1  0.74098000  0.00000000  0.00000000  1.0 0.868553949
Cu  Cu23  1  0.25902000  0.00000000  0.00000000  1.0 0.868553949
Cu  Cu24  1  0.00000000  0.25902000  0.74098000  1.0 0.868553949
H  H1  1  0.83780000  0.30980000  0.83780000  1.0 0.1444031076
H  H2  1  0.83780000  0.83780000  0.30980000  1.0 0.1444031076
H  H3  1  0.30980000  0.83780000  0.83780000  1.0 0.1444031076
H  H4  1  0.16220000  0.69020000  0.98540000  1.0 0.1444031076
H  H5  1  0.16220000  0.98540000  0.69020000  1.0 0.1444031076
H  H6  1  0.98540000  0.16220000  0.16220000  1.0 0.1444031076
H  H7  1  0.16220000  0.16220000  0.98540000  1.0 0.1444031076
H  H8  1  0.98540000  0.69020000  0.16220000  1.0 0.1444031076
H  H9  1  0.69020000  0.98540000  0.16220000  1.0 0.1444031076
H  H10  1  0.69020000  0.16220000  0.98540000  1.0 0.1444031076
H  H11  1  0.16220000  0.98540000  0.16220000  1.0 0.1444031076
H  H12  1  0.98540000  0.16220000  0.69020000  1.0 0.1444031076
H  H13  1  0.30980000  0.83780000  0.01460000  1.0 0.1444031076
H  H14  1  0.83780000  0.01460000  0.83780000  1.0 0.1444031076
H  H15  1  0.01460000  0.83780000  0.30980000  1.0 0.1444031076
H  H16  1  0.01460000  0.30980000  0.83780000  1.0 0.1444031076
H  H17  1  0.83780000  0.83780000  0.01460000  1.0 0.1444031076
H  H18  1  0.30980000  0.01460000  0.83780000  1.0 0.1444031076
H  H19  1  0.83780000  0.01460000  0.30980000  1.0 0.1444031076
H  H20  1  0.01460000  0.83780000  0.83780000  1.0 0.1444031076
H  H21  1  0.83780000  0.30980000  0.01460000  1.0 0.1444031076
H  H22  1  0.69020000  0.16220000  0.16220000  1.0 0.1444031076
H  H23  1  0.16220000  0.16220000  0.69020000  1.0 0.1444031076
H  H24  1  0.16220000  0.69020000  0.16220000  1.0 0.1444031076
H  H25  1  0.69820000  0.43480000  0.83120000  1.0 0.1284522788
H  H26  1  0.83120000  0.69820000  0.43480000  1.0 0.1284522788
H  H27  1  0.43480000  0.83120000  0.69820000  1.0 0.1284522788
H  H28  1  0.30180000  0.56520000  0.96420000  1.0 0.1284522788
H  H29  1  0.16880000  0.96420000  0.56520000  1.0 0.1284522788
H  H30  1  0.96420000  0.16880000  0.30180000  1.0 0.1284522788
H  H31  1  0.16880000  0.30180000  0.96420000  1.0 0.1284522788
H  H32  1  0.96420000  0.56520000  0.16880000  1.0 0.1284522788
H  H33  1  0.56520000  0.96420000  0.30180000  1.0 0.1284522788
H  H34  1  0.56520000  0.16880000  0.96420000  1.0 0.1284522788
H  H35  1  0.30180000  0.96420000  0.16880000  1.0 0.1284522788
H  H36  1  0.96420000  0.30180000  0.56520000  1.0 0.1284522788
H  H37  1  0.43480000  0.69820000  0.03580000  1.0 0.1284522788
H  H38  1  0.83120000  0.03580000  0.69820000  1.0 0.1284522788
H  H39  1  0.03580000  0.83120000  0.43480000  1.0 0.1284522788
H  H40  1  0.03580000  0.43480000  0.69820000  1.0 0.1284522788
H  H41  1  0.69820000  0.83120000  0.03580000  1.0 0.1284522788
H  H42  1  0.43480000  0.03580000  0.83120000  1.0 0.1284522788
H  H43  1  0.69820000  0.03580000  0.43480000  1.0 0.1284522788
H  H44  1  0.03580000  0.69820000  0.83120000  1.0 0.1284522788
H  H45  1  0.83120000  0.43480000  0.03580000  1.0 0.1284522788
H  H46  1  0.56520000  0.30180000  0.16880000  1.0 0.1284522788
H  H47  1  0.30180000  0.16880000  0.56520000  1.0 0.1284522788
H  H48  1  0.16880000  0.56520000  0.30180000  1.0 0.1284522788
H  H49  1  0.30180000  0.56520000  0.16880000  1.0 0.1284522788
H  H50  1  0.16880000  0.30180000  0.56520000  1.0 0.1284522788
H  H51  1  0.56520000  0.16880000  0.30180000  1.0 0.1284522788
H  H52  1  0.69820000  0.43480000  0.03580000  1.0 0.1284522788
H  H53  1  0.83120000  0.03580000  0.43480000  1.0 0.1284522788
H  H54  1  0.03580000  0.83120000  0.69820000  1.0 0.1284522788
H  H55  1  0.83120000  0.69820000  0.03580000  1.0 0.1284522788
H  H56  1  0.03580000  0.43480000  0.83120000  1.0 0.1284522788
H  H57  1  0.43480000  0.03580000  0.69820000  1.0 0.1284522788
H  H58  1  0.43480000  0.83120000  0.03580000  1.0 0.1284522788
H  H59  1  0.69820000  0.03580000  0.83120000  1.0 0.1284522788
H  H60  1  0.03580000  0.69820000  0.43480000  1.0 0.1284522788
H  H61  1  0.56520000  0.30180000  0.96420000  1.0 0.1284522788
H  H62  1  0.16880000  0.96420000  0.30180000  1.0 0.1284522788
H  H63  1  0.96420000  0.16880000  0.56520000  1.0 0.1284522788
H  H64  1  0.96420000  0.56520000  0.30180000  1.0 0.1284522788
H  H65  1  0.30180000  0.16880000  0.96420000  1.0 0.1284522788
H  H66  1  0.56520000  0.96420000  0.16880000  1.0 0.1284522788
H  H67  1  0.30180000  0.96420000  0.56520000  1.0 0.1284522788
H  H68  1  0.96420000  0.30180000  0.16880000  1.0 0.1284522788
H  H69  1  0.16880000  0.56520000  0.96420000  1.0 0.1284522788
H  H70  1  0.43480000  0.69820000  0.83120000  1.0 0.1284522788
H  H71  1  0.69820000  0.83120000  0.43480000  1.0 0.1284522788
H  H72  1  0.83120000  0.43480000  0.69820000  1.0 0.1284522788
H  H73  1  0.68670000  0.52650000  0.79150000  1.0 0.0984839302
H  H74  1  0.79150000  0.68670000  0.52650000  1.0 0.0984839302
H  H75  1  0.52650000  0.79150000  0.68670000  1.0 0.0984839302
H  H76  1  0.31330000  0.47350000  0.00470000  1.0 0.0984839302
H  H77  1  0.20850000  0.00470000  0.47350000  1.0 0.0984839302
H  H78  1  0.00470000  0.20850000  0.31330000  1.0 0.0984839302
H  H79  1  0.20850000  0.31330000  0.00470000  1.0 0.0984839302
H  H80  1  0.00470000  0.47350000  0.20850000  1.0 0.0984839302
H  H81  1  0.47350000  0.00470000  0.31330000  1.0 0.0984839302
H  H82  1  0.47350000  0.20850000  0.00470000  1.0 0.0984839302
H  H83  1  0.31330000  0.00470000  0.20850000  1.0 0.0984839302
H  H84  1  0.00470000  0.31330000  0.47350000  1.0 0.0984839302
H  H85  1  0.52650000  0.68670000  0.99530000  1.0 0.0984839302
H  H86  1  0.79150000  0.99530000  0.68670000  1.0 0.0984839302
H  H87  1  0.99530000  0.79150000  0.52650000  1.0 0.0984839302
H  H88  1  0.99530000  0.52650000  0.68670000  1.0 0.0984839302
H  H89  1  0.68670000  0.79150000  0.99530000  1.0 0.0984839302
H  H90  1  0.52650000  0.99530000  0.79150000  1.0 0.0984839302
H  H91  1  0.68670000  0.99530000  0.52650000  1.0 0.0984839302
H  H92  1  0.99530000  0.68670000  0.79150000  1.0 0.0984839302
H  H93  1  0.79150000  0.52650000  0.99530000  1.0 0.0984839302
H  H94  1  0.47350000  0.31330000  0.20850000  1.0 0.0984839302
H  H95  1  0.31330000  0.20850000  0.47350000  1.0 0.0984839302
H  H96  1  0.20850000  0.47350000  0.31330000  1.0 0.0984839302
H  H97  1  0.31330000  0.47350000  0.20850000  1.0 0.0984839302
H  H98  1  0.20850000  0.31330000  0.47350000  1.0 0.0984839302
H  H99  1  0.47350000  0.20850000  0.31330000  1.0 0.0984839302
H  H100  1  0.68670000  0.52650000  0.99530000  1.0 0.0984839302
H  H101  1  0.79150000  0.99530000  0.52650000  1.0 0.0984839302
H  H102  1  0.99530000  0.79150000  0.68670000  1.0 0.0984839302
H  H103  1  0.79150000  0.68670000  0.99530000  1.0 0.0984839302
H  H104  1  0.99530000  0.52650000  0.79150000  1.0 0.0984839302
H  H105  1  0.52650000  0.99530000  0.68670000  1.0 0.0984839302
H  H106  1  0.52650000  0.79150000  0.99530000  1.0 0.0984839302
H  H107  1  0.68670000  0.99530000  0.79150000  1.0 0.0984839302
H  H108  1  0.99530000  0.68670000  0.52650000  1.0 0.0984839302
H  H109  1  0.47350000  0.31330000  0.00470000  1.0 0.0984839302
H  H110  1  0.20850000  0.00470000  0.31330000  1.0 0.0984839302
H  H111  1  0.00470000  0.20850000  0.47350000  1.0 0.0984839302
H  H112  1  0.00470000  0.47350000  0.31330000  1.0 0.0984839302
H  H113  1  0.31330000  0.20850000  0.00470000  1.0 0.0984839302
H  H114  1  0.47350000  0.00470000  0.20850000  1.0 0.0984839302
H  H115  1  0.31330000  0.00470000  0.47350000  1.0 0.0984839302
H  H116  1  0.00470000  0.31330000  0.20850000  1.0 0.0984839302
H  H117  1  0.20850000  0.47350000  0.00470000  1.0 0.0984839302
H  H118  1  0.52650000  0.68670000  0.79150000  1.0 0.0984839302
H  H119  1  0.68670000  0.79150000  0.52650000  1.0 0.0984839302
H  H120  1  0.79150000  0.52650000  0.68670000  1.0 0.0984839302
H  H121  1  0.64810000  0.61470000  0.73650000  1.0 0.0797519057
H  H122  1  0.73650000  0.64810000  0.61470000  1.0 0.0797519057
H  H123  1  0.61470000  0.73650000  0.64810000  1.0 0.0797519057
H  H124  1  0.35190000  0.38530000  0.99930000  1.0 0.0797519057
H  H125  1  0.26350000  0.99930000  0.38530000  1.0 0.0797519057
H  H126  1  0.99930000  0.26350000  0.35190000  1.0 0.0797519057
H  H127  1  0.26350000  0.35190000  0.99930000  1.0 0.0797519057
H  H128  1  0.99930000  0.38530000  0.26350000  1.0 0.0797519057
H  H129  1  0.38530000  0.99930000  0.35190000  1.0 0.0797519057
H  H130  1  0.38530000  0.26350000  0.99930000  1.0 0.0797519057
H  H131  1  0.35190000  0.99930000  0.26350000  1.0 0.0797519057
H  H132  1  0.99930000  0.35190000  0.38530000  1.0 0.0797519057
H  H133  1  0.61470000  0.64810000  0.00070000  1.0 0.0797519057
H  H134  1  0.73650000  0.00070000  0.64810000  1.0 0.0797519057
H  H135  1  0.00070000  0.73650000  0.61470000  1.0 0.0797519057
H  H136  1  0.00070000  0.61470000  0.64810000  1.0 0.0797519057
H  H137  1  0.64810000  0.73650000  0.00070000  1.0 0.0797519057
H  H138  1  0.61470000  0.00070000  0.73650000  1.0 0.0797519057
H  H139  1  0.64810000  0.00070000  0.61470000  1.0 0.0797519057
H  H140  1  0.00070000  0.64810000  0.73650000  1.0 0.0797519057
H  H141  1  0.73650000  0.61470000  0.00070000  1.0 0.0797519057
H  H142  1  0.38530000  0.35190000  0.26350000  1.0 0.0797519057
H  H143  1  0.35190000  0.26350000  0.38530000  1.0 0.0797519057
H  H144  1  0.26350000  0.38530000  0.35190000  1.0 0.0797519057
H  H145  1  0.35190000  0.38530000  0.26350000  1.0 0.0797519057
H  H146  1  0.26350000  0.35190000  0.38530000  1.0 0.0797519057
H  H147  1  0.38530000  0.26350000  0.35190000  1.0 0.0797519057
H  H148  1  0.64810000  0.61470000  0.00070000  1.0 0.0797519057
H  H149  1  0.73650000  0.00070000  0.61470000  1.0 0.0797519057
H  H150  1  0.00070000  0.73650000  0.64810000  1.0 0.0797519057
H  H151  1  0.73650000  0.64810000  0.00070000  1.0 0.0797519057
H  H152  1  0.00070000  0.61470000  0.73650000  1.0 0.0797519057
H  H153  1  0.61470000  0.00070000  0.64810000  1.0 0.0797519057
H  H154  1  0.61470000  0.73650000  0.00070000  1.0 0.0797519057
H  H155  1  0.64810000  0.00070000  0.73650000  1.0 0.0797519057
H  H156  1  0.00070000  0.64810000  0.61470000  1.0 0.0797519057
H  H157  1  0.38530000  0.35190000  0.99930000  1.0 0.0797519057
H  H158  1  0.26350000  0.99930000  0.35190000  1.0 0.0797519057
H  H159  1  0.99930000  0.26350000  0.38530000  1.0 0.0797519057
H  H160  1  0.99930000  0.38530000  0.35190000  1.0 0.0797519057
H  H161  1  0.35190000  0.26350000  0.99930000  1.0 0.0797519057
H  H162  1  0.38530000  0.99930000  0.26350000  1.0 0.0797519057
H  H163  1  0.35190000  0.99930000  0.38530000  1.0 0.0797519057
H  H164  1  0.99930000  0.35190000  0.26350000  1.0 0.0797519057
H  H165  1  0.26350000  0.38530000  0.99930000  1.0 0.0797519057
H  H166  1  0.61470000  0.64810000  0.73650000  1.0 0.0797519057
H  H167  1  0.64810000  0.73650000  0.61470000  1.0 0.0797519057
H  H168  1  0.73650000  0.61470000  0.64810000  1.0 0.0797519057
H  H169  1  0.75890000  0.47270000  0.66110000  1.0 0.0984839302
H  H170  1  0.66110000  0.75890000  0.47270000  1.0 0.0984839302
H  H171  1  0.47270000  0.66110000  0.75890000  1.0 0.0984839302
H  H172  1  0.24110000  0.52730000  0.89270000  1.0 0.0984839302
H  H173  1  0.33890000  0.89270000  0.52730000  1.0 0.0984839302
H  H174  1  0.89270000  0.33890000  0.24110000  1.0 0.0984839302
H  H175  1  0.33890000  0.24110000  0.89270000  1.0 0.0984839302
H  H176  1  0.89270000  0.52730000  0.33890000  1.0 0.0984839302
H  H177  1  0.52730000  0.89270000  0.24110000  1.0 0.0984839302
H  H178  1  0.52730000  0.33890000  0.89270000  1.0 0.0984839302
H  H179  1  0.24110000  0.89270000  0.33890000  1.0 0.0984839302
H  H180  1  0.89270000  0.24110000  0.52730000  1.0 0.0984839302
H  H181  1  0.47270000  0.75890000  0.10730000  1.0 0.0984839302
H  H182  1  0.66110000  0.10730000  0.75890000  1.0 0.0984839302
H  H183  1  0.10730000  0.66110000  0.47270000  1.0 0.0984839302
H  H184  1  0.10730000  0.47270000  0.75890000  1.0 0.0984839302
H  H185  1  0.75890000  0.66110000  0.10730000  1.0 0.0984839302
H  H186  1  0.47270000  0.10730000  0.66110000  1.0 0.0984839302
H  H187  1  0.75890000  0.10730000  0.47270000  1.0 0.0984839302
H  H188  1  0.10730000  0.75890000  0.66110000  1.0 0.0984839302
H  H189  1  0.66110000  0.47270000  0.10730000  1.0 0.0984839302
H  H190  1  0.52730000  0.24110000  0.33890000  1.0 0.0984839302
H  H191  1  0.24110000  0.33890000  0.52730000  1.0 0.0984839302
H  H192  1  0.33890000  0.52730000  0.24110000  1.0 0.0984839302
H  H193  1  0.24110000  0.52730000  0.33890000  1.0 0.0984839302
H  H194  1  0.33890000  0.24110000  0.52730000  1.0 0.0984839302
H  H195  1  0.52730000  0.33890000  0.24110000  1.0 0.0984839302
H  H196  1  0.75890000  0.47270000  0.10730000  1.0 0.0984839302
H  H197  1  0.66110000  0.10730000  0.47270000  1.0 0.0984839302
H  H198  1  0.10730000  0.66110000  0.75890000  1.0 0.0984839302
H  H199  1  0.66110000  0.75890000  0.10730000  1.0 0.0984839302
H  H200  1  0.10730000  0.47270000  0.66110000  1.0 0.0984839302
H  H201  1  0.47270000  0.10730000  0.75890000  1.0 0.0984839302
H  H202  1  0.47270000  0.66110000  0.10730000  1.0 0.0984839302
H  H203  1  0.75890000  0.10730000  0.66110000  1.0 0.0984839302
H  H204  1  0.10730000  0.75890000  0.47270000  1.0 0.0984839302
H  H205  1  0.52730000  0.24110000  0.89270000  1.0 0.0984839302
H  H206  1  0.33890000  0.89270000  0.24110000  1.0 0.0984839302
H  H207  1  0.89270000  0.33890000  0.52730000  1.0 0.0984839302
H  H208  1  0.89270000  0.52730000  0.24110000  1.0 0.0984839302
H  H209  1  0.24110000  0.33890000  0.89270000  1.0 0.0984839302
H  H210  1  0.52730000  0.89270000  0.33890000  1.0 0.0984839302
H  H211  1  0.24110000  0.89270000  0.52730000  1.0 0.0984839302
H  H212  1  0.89270000  0.24110000  0.33890000  1.0 0.0984839302
H  H213  1  0.33890000  0.52730000  0.89270000  1.0 0.0984839302
H  H214  1  0.47270000  0.75890000  0.66110000  1.0 0.0984839302
H  H215  1  0.75890000  0.66110000  0.47270000  1.0 0.0984839302
H  H216  1  0.66110000  0.47270000  0.75890000  1.0 0.0984839302
H  H217  1  0.61140000  0.55980000  0.71140000  1.0 0.0895596706
H  H218  1  0.71140000  0.61140000  0.55980000  1.0 0.0895596706
H  H219  1  0.55980000  0.71140000  0.61140000  1.0 0.0895596706
H  H220  1  0.38860000  0.44020000  0.88260000  1.0 0.0895596706
H  H221  1  0.28860000  0.88260000  0.44020000  1.0 0.0895596706
H  H222  1  0.88260000  0.28860000  0.38860000  1.0 0.0895596706
H  H223  1  0.28860000  0.38860000  0.88260000  1.0 0.0895596706
H  H224  1  0.88260000  0.44020000  0.28860000  1.0 0.0895596706
H  H225  1  0.44020000  0.88260000  0.38860000  1.0 0.0895596706
H  H226  1  0.44020000  0.28860000  0.88260000  1.0 0.0895596706
H  H227  1  0.38860000  0.88260000  0.28860000  1.0 0.0895596706
H  H228  1  0.88260000  0.38860000  0.44020000  1.0 0.0895596706
H  H229  1  0.55980000  0.61140000  0.11740000  1.0 0.0895596706
H  H230  1  0.71140000  0.11740000  0.61140000  1.0 0.0895596706
H  H231  1  0.11740000  0.71140000  0.55980000  1.0 0.0895596706
H  H232  1  0.11740000  0.55980000  0.61140000  1.0 0.0895596706
H  H233  1  0.61140000  0.71140000  0.11740000  1.0 0.0895596706
H  H234  1  0.55980000  0.11740000  0.71140000  1.0 0.0895596706
H  H235  1  0.61140000  0.11740000  0.55980000  1.0 0.0895596706
H  H236  1  0.11740000  0.61140000  0.71140000  1.0 0.0895596706
H  H237  1  0.71140000  0.55980000  0.11740000  1.0 0.0895596706
H  H238  1  0.44020000  0.38860000  0.28860000  1.0 0.0895596706
H  H239  1  0.38860000  0.28860000  0.44020000  1.0 0.0895596706
H  H240  1  0.28860000  0.44020000  0.38860000  1.0 0.0895596706
H  H241  1  0.38860000  0.44020000  0.28860000  1.0 0.0895596706
H  H242  1  0.28860000  0.38860000  0.44020000  1.0 0.0895596706
H  H243  1  0.44020000  0.28860000  0.38860000  1.0 0.0895596706
H  H244  1  0.61140000  0.55980000  0.11740000  1.0 0.0895596706
H  H245  1  0.71140000  0.11740000  0.55980000  1.0 0.0895596706
H  H246  1  0.11740000  0.71140000  0.61140000  1.0 0.0895596706
H  H247  1  0.71140000  0.61140000  0.11740000  1.0 0.0895596706
H  H248  1  0.11740000  0.55980000  0.71140000  1.0 0.0895596706
H  H249  1  0.55980000  0.11740000  0.61140000  1.0 0.0895596706
H  H250  1  0.55980000  0.71140000  0.11740000  1.0 0.0895596706
H  H251  1  0.61140000  0.11740000  0.71140000  1.0 0.0895596706
H  H252  1  0.11740000  0.61140000  0.55980000  1.0 0.0895596706
H  H253  1  0.44020000  0.38860000  0.88260000  1.0 0.0895596706
H  H254  1  0.28860000  0.88260000  0.38860000  1.0 0.0895596706
H  H255  1  0.88260000  0.28860000  0.44020000  1.0 0.0895596706
H  H256  1  0.88260000  0.44020000  0.38860000  1.0 0.0895596706
H  H257  1  0.38860000  0.28860000  0.88260000  1.0 0.0895596706
H  H258  1  0.44020000  0.88260000  0.28860000  1.0 0.0895596706
H  H259  1  0.38860000  0.88260000  0.44020000  1.0 0.0895596706
H  H260  1  0.88260000  0.38860000  0.28860000  1.0 0.0895596706
H  H261  1  0.28860000  0.44020000  0.88260000  1.0 0.0895596706
H  H262  1  0.55980000  0.61140000  0.71140000  1.0 0.0895596706
H  H263  1  0.61140000  0.71140000  0.55980000  1.0 0.0895596706
H  H264  1  0.71140000  0.55980000  0.61140000  1.0 0.0895596706
C  C1  1  0.74034000  0.34334000  0.90106000  1.0 0.5793480949
C  C2  1  0.90106000  0.74034000  0.34334000  1.0 0.5793480949
C  C3  1  0.34334000  0.90106000  0.74034000  1.0 0.5793480949
C  C4  1  0.25966000  0.65666000  0.98474000  1.0 0.5793480949
C  C5  1  0.09894000  0.98474000  0.65666000  1.0 0.5793480949
C  C6  1  0.98474000  0.09894000  0.25966000  1.0 0.5793480949
C  C7  1  0.09894000  0.25966000  0.98474000  1.0 0.5793480949
C  C8  1  0.98474000  0.65666000  0.09894000  1.0 0.5793480949
C  C9  1  0.65666000  0.98474000  0.25966000  1.0 0.5793480949
C  C10  1  0.65666000  0.09894000  0.98474000  1.0 0.5793480949
C  C11  1  0.25966000  0.98474000  0.09894000  1.0 0.5793480949
C  C12  1  0.98474000  0.25966000  0.65666000  1.0 0.5793480949
C  C13  1  0.34334000  0.74034000  0.01526000  1.0 0.5793480949
C  C14  1  0.90106000  0.01526000  0.74034000  1.0 0.5793480949
C  C15  1  0.01526000  0.90106000  0.34334000  1.0 0.5793480949
C  C16  1  0.01526000  0.34334000  0.74034000  1.0 0.5793480949
C  C17  1  0.74034000  0.90106000  0.01526000  1.0 0.5793480949
C  C18  1  0.34334000  0.01526000  0.90106000  1.0 0.5793480949
C  C19  1  0.74034000  0.01526000  0.34334000  1.0 0.5793480949
C  C20  1  0.01526000  0.74034000  0.90106000  1.0 0.5793480949
C  C21  1  0.90106000  0.34334000  0.01526000  1.0 0.5793480949
C  C22  1  0.65666000  0.25966000  0.09894000  1.0 0.5793480949
C  C23  1  0.25966000  0.09894000  0.65666000  1.0 0.5793480949
C  C24  1  0.09894000  0.65666000  0.25966000  1.0 0.5793480949
C  C25  1  0.25966000  0.65666000  0.09894000  1.0 0.5793480949
C  C26  1  0.09894000  0.25966000  0.65666000  1.0 0.5793480949
C  C27  1  0.65666000  0.09894000  0.25966000  1.0 0.5793480949
C  C28  1  0.74034000  0.34334000  0.01526000  1.0 0.5793480949
C  C29  1  0.90106000  0.01526000  0.34334000  1.0 0.5793480949
C  C30  1  0.01526000  0.90106000  0.74034000  1.0 0.5793480949
C  C31  1  0.90106000  0.74034000  0.01526000  1.0 0.5793480949
C  C32  1  0.01526000  0.34334000  0.90106000  1.0 0.5793480949
C  C33  1  0.34334000  0.01526000  0.74034000  1.0 0.5793480949
C  C34  1  0.34334000  0.90106000  0.01526000  1.0 0.5793480949
C  C35  1  0.74034000  0.01526000  0.90106000  1.0 0.5793480949
C  C36  1  0.01526000  0.74034000  0.34334000  1.0 0.5793480949
C  C37  1  0.65666000  0.25966000  0.98474000  1.0 0.5793480949
C  C38  1  0.09894000  0.98474000  0.25966000  1.0 0.5793480949
C  C39  1  0.98474000  0.09894000  0.65666000  1.0 0.5793480949
C  C40  1  0.98474000  0.65666000  0.25966000  1.0 0.5793480949
C  C41  1  0.25966000  0.09894000  0.98474000  1.0 0.5793480949
C  C42  1  0.65666000  0.98474000  0.09894000  1.0 0.5793480949
C  C43  1  0.25966000  0.98474000  0.65666000  1.0 0.5793480949
C  C44  1  0.98474000  0.25966000  0.09894000  1.0 0.5793480949
C  C45  1  0.09894000  0.65666000  0.98474000  1.0 0.5793480949
C  C46  1  0.34334000  0.74034000  0.90106000  1.0 0.5793480949
C  C47  1  0.74034000  0.90106000  0.34334000  1.0 0.5793480949
C  C48  1  0.90106000  0.34334000  0.74034000  1.0 0.5793480949
C  C49  1  0.76458000  0.36870000  0.84362000  1.0 -0.0365272436
C  C50  1  0.84362000  0.76458000  0.36870000  1.0 -0.0365272436
C  C51  1  0.36870000  0.84362000  0.76458000  1.0 -0.0365272436
C  C52  1  0.23542000  0.63130000  0.97690000  1.0 -0.0365272436
C  C53  1  0.15638000  0.97690000  0.63130000  1.0 -0.0365272436
C  C54  1  0.97690000  0.15638000  0.23542000  1.0 -0.0365272436
C  C55  1  0.15638000  0.23542000  0.97690000  1.0 -0.0365272436
C  C56  1  0.97690000  0.63130000  0.15638000  1.0 -0.0365272436
C  C57  1  0.63130000  0.97690000  0.23542000  1.0 -0.0365272436
C  C58  1  0.63130000  0.15638000  0.97690000  1.0 -0.0365272436
C  C59  1  0.23542000  0.97690000  0.15638000  1.0 -0.0365272436
C  C60  1  0.97690000  0.23542000  0.63130000  1.0 -0.0365272436
C  C61  1  0.36870000  0.76458000  0.02310000  1.0 -0.0365272436
C  C62  1  0.84362000  0.02310000  0.76458000  1.0 -0.0365272436
C  C63  1  0.02310000  0.84362000  0.36870000  1.0 -0.0365272436
C  C64  1  0.02310000  0.36870000  0.76458000  1.0 -0.0365272436
C  C65  1  0.76458000  0.84362000  0.02310000  1.0 -0.0365272436
C  C66  1  0.36870000  0.02310000  0.84362000  1.0 -0.0365272436
C  C67  1  0.76458000  0.02310000  0.36870000  1.0 -0.0365272436
C  C68  1  0.02310000  0.76458000  0.84362000  1.0 -0.0365272436
C  C69  1  0.84362000  0.36870000  0.02310000  1.0 -0.0365272436
C  C70  1  0.63130000  0.23542000  0.15638000  1.0 -0.0365272436
C  C71  1  0.23542000  0.15638000  0.63130000  1.0 -0.0365272436
C  C72  1  0.15638000  0.63130000  0.23542000  1.0 -0.0365272436
C  C73  1  0.23542000  0.63130000  0.15638000  1.0 -0.0365272436
C  C74  1  0.15638000  0.23542000  0.63130000  1.0 -0.0365272436
C  C75  1  0.63130000  0.15638000  0.23542000  1.0 -0.0365272436
C  C76  1  0.76458000  0.36870000  0.02310000  1.0 -0.0365272436
C  C77  1  0.84362000  0.02310000  0.36870000  1.0 -0.0365272436
C  C78  1  0.02310000  0.84362000  0.76458000  1.0 -0.0365272436
C  C79  1  0.84362000  0.76458000  0.02310000  1.0 -0.0365272436
C  C80  1  0.02310000  0.36870000  0.84362000  1.0 -0.0365272436
C  C81  1  0.36870000  0.02310000  0.76458000  1.0 -0.0365272436
C  C82  1  0.36870000  0.84362000  0.02310000  1.0 -0.0365272436
C  C83  1  0.76458000  0.02310000  0.84362000  1.0 -0.0365272436
C  C84  1  0.02310000  0.76458000  0.36870000  1.0 -0.0365272436
C  C85  1  0.63130000  0.23542000  0.97690000  1.0 -0.0365272436
C  C86  1  0.15638000  0.97690000  0.23542000  1.0 -0.0365272436
C  C87  1  0.97690000  0.15638000  0.63130000  1.0 -0.0365272436
C  C88  1  0.97690000  0.63130000  0.23542000  1.0 -0.0365272436
C  C89  1  0.23542000  0.15638000  0.97690000  1.0 -0.0365272436
C  C90  1  0.63130000  0.97690000  0.15638000  1.0 -0.0365272436
C  C91  1  0.23542000  0.97690000  0.63130000  1.0 -0.0365272436
C  C92  1  0.97690000  0.23542000  0.15638000  1.0 -0.0365272436
C  C93  1  0.15638000  0.63130000  0.97690000  1.0 -0.0365272436
C  C94  1  0.36870000  0.76458000  0.84362000  1.0 -0.0365272436
C  C95  1  0.76458000  0.84362000  0.36870000  1.0 -0.0365272436
C  C96  1  0.84362000  0.36870000  0.76458000  1.0 -0.0365272436
C  C97  1  0.81840000  0.34376000  0.81840000  1.0 -0.1019278198
C  C98  1  0.81840000  0.81840000  0.34376000  1.0 -0.1019278198
C  C99  1  0.34376000  0.81840000  0.81840000  1.0 -0.1019278198
C  C100  1  0.18160000  0.65624000  0.98056000  1.0 -0.1019278198
C  C101  1  0.18160000  0.98056000  0.65624000  1.0 -0.1019278198
C  C102  1  0.98056000  0.18160000  0.18160000  1.0 -0.1019278198
C  C103  1  0.18160000  0.18160000  0.98056000  1.0 -0.1019278198
C  C104  1  0.98056000  0.65624000  0.18160000  1.0 -0.1019278198
C  C105  1  0.65624000  0.98056000  0.18160000  1.0 -0.1019278198
C  C106  1  0.65624000  0.18160000  0.98056000  1.0 -0.1019278198
C  C107  1  0.18160000  0.98056000  0.18160000  1.0 -0.1019278198
C  C108  1  0.98056000  0.18160000  0.65624000  1.0 -0.1019278198
C  C109  1  0.34376000  0.81840000  0.01944000  1.0 -0.1019278198
C  C110  1  0.81840000  0.01944000  0.81840000  1.0 -0.1019278198
C  C111  1  0.01944000  0.81840000  0.34376000  1.0 -0.1019278198
C  C112  1  0.01944000  0.34376000  0.81840000  1.0 -0.1019278198
C  C113  1  0.81840000  0.81840000  0.01944000  1.0 -0.1019278198
C  C114  1  0.34376000  0.01944000  0.81840000  1.0 -0.1019278198
C  C115  1  0.81840000  0.01944000  0.34376000  1.0 -0.1019278198
C  C116  1  0.01944000  0.81840000  0.81840000  1.0 -0.1019278198
C  C117  1  0.81840000  0.34376000  0.01944000  1.0 -0.1019278198
C  C118  1  0.65624000  0.18160000  0.18160000  1.0 -0.1019278198
C  C119  1  0.18160000  0.18160000  0.65624000  1.0 -0.1019278198
C  C120  1  0.18160000  0.65624000  0.18160000  1.0 -0.1019278198
C  C121  1  0.73500000  0.41780000  0.81420000  1.0 -0.1531781398
C  C122  1  0.81420000  0.73500000  0.41780000  1.0 -0.1531781398
C  C123  1  0.41780000  0.81420000  0.73500000  1.0 -0.1531781398
C  C124  1  0.26500000  0.58220000  0.96700000  1.0 -0.1531781398
C  C125  1  0.18580000  0.96700000  0.58220000  1.0 -0.1531781398
C  C126  1  0.96700000  0.18580000  0.26500000  1.0 -0.1531781398
C  C127  1  0.18580000  0.26500000  0.96700000  1.0 -0.1531781398
C  C128  1  0.96700000  0.58220000  0.18580000  1.0 -0.1531781398
C  C129  1  0.58220000  0.96700000  0.26500000  1.0 -0.1531781398
C  C130  1  0.58220000  0.18580000  0.96700000  1.0 -0.1531781398
C  C131  1  0.26500000  0.96700000  0.18580000  1.0 -0.1531781398
C  C132  1  0.96700000  0.26500000  0.58220000  1.0 -0.1531781398
C  C133  1  0.41780000  0.73500000  0.03300000  1.0 -0.1531781398
C  C134  1  0.81420000  0.03300000  0.73500000  1.0 -0.1531781398
C  C135  1  0.03300000  0.81420000  0.41780000  1.0 -0.1531781398
C  C136  1  0.03300000  0.41780000  0.73500000  1.0 -0.1531781398
C  C137  1  0.73500000  0.81420000  0.03300000  1.0 -0.1531781398
C  C138  1  0.41780000  0.03300000  0.81420000  1.0 -0.1531781398
C  C139  1  0.73500000  0.03300000  0.41780000  1.0 -0.1531781398
C  C140  1  0.03300000  0.73500000  0.81420000  1.0 -0.1531781398
C  C141  1  0.81420000  0.41780000  0.03300000  1.0 -0.1531781398
C  C142  1  0.58220000  0.26500000  0.18580000  1.0 -0.1531781398
C  C143  1  0.26500000  0.18580000  0.58220000  1.0 -0.1531781398
C  C144  1  0.18580000  0.58220000  0.26500000  1.0 -0.1531781398
C  C145  1  0.26500000  0.58220000  0.18580000  1.0 -0.1531781398
C  C146  1  0.18580000  0.26500000  0.58220000  1.0 -0.1531781398
C  C147  1  0.58220000  0.18580000  0.26500000  1.0 -0.1531781398
C  C148  1  0.73500000  0.41780000  0.03300000  1.0 -0.1531781398
C  C149  1  0.81420000  0.03300000  0.41780000  1.0 -0.1531781398
C  C150  1  0.03300000  0.81420000  0.73500000  1.0 -0.1531781398
C  C151  1  0.81420000  0.73500000  0.03300000  1.0 -0.1531781398
C  C152  1  0.03300000  0.41780000  0.81420000  1.0 -0.1531781398
C  C153  1  0.41780000  0.03300000  0.73500000  1.0 -0.1531781398
C  C154  1  0.41780000  0.81420000  0.03300000  1.0 -0.1531781398
C  C155  1  0.73500000  0.03300000  0.81420000  1.0 -0.1531781398
C  C156  1  0.03300000  0.73500000  0.41780000  1.0 -0.1531781398
C  C157  1  0.58220000  0.26500000  0.96700000  1.0 -0.1531781398
C  C158  1  0.18580000  0.96700000  0.26500000  1.0 -0.1531781398
C  C159  1  0.96700000  0.18580000  0.58220000  1.0 -0.1531781398
C  C160  1  0.96700000  0.58220000  0.26500000  1.0 -0.1531781398
C  C161  1  0.26500000  0.18580000  0.96700000  1.0 -0.1531781398
C  C162  1  0.58220000  0.96700000  0.18580000  1.0 -0.1531781398
C  C163  1  0.26500000  0.96700000  0.58220000  1.0 -0.1531781398
C  C164  1  0.96700000  0.26500000  0.18580000  1.0 -0.1531781398
C  C165  1  0.18580000  0.58220000  0.96700000  1.0 -0.1531781398
C  C166  1  0.41780000  0.73500000  0.81420000  1.0 -0.1531781398
C  C167  1  0.73500000  0.81420000  0.41780000  1.0 -0.1531781398
C  C168  1  0.81420000  0.41780000  0.73500000  1.0 -0.1531781398
C  C169  1  0.76030000  0.44110000  0.76030000  1.0 0.0797519057
C  C170  1  0.76030000  0.76030000  0.44110000  1.0 0.0797519057
C  C171  1  0.44110000  0.76030000  0.76030000  1.0 0.0797519057
C  C172  1  0.23970000  0.55890000  0.96170000  1.0 0.0797519057
C  C173  1  0.23970000  0.96170000  0.55890000  1.0 0.0797519057
C  C174  1  0.96170000  0.23970000  0.23970000  1.0 0.0797519057
C  C175  1  0.23970000  0.23970000  0.96170000  1.0 0.0797519057
C  C176  1  0.96170000  0.55890000  0.23970000  1.0 0.0797519057
C  C177  1  0.55890000  0.96170000  0.23970000  1.0 0.0797519057
C  C178  1  0.55890000  0.23970000  0.96170000  1.0 0.0797519057
C  C179  1  0.23970000  0.96170000  0.23970000  1.0 0.0797519057
C  C180  1  0.96170000  0.23970000  0.55890000  1.0 0.0797519057
C  C181  1  0.44110000  0.76030000  0.03830000  1.0 0.0797519057
C  C182  1  0.76030000  0.03830000  0.76030000  1.0 0.0797519057
C  C183  1  0.03830000  0.76030000  0.44110000  1.0 0.0797519057
C  C184  1  0.03830000  0.44110000  0.76030000  1.0 0.0797519057
C  C185  1  0.76030000  0.76030000  0.03830000  1.0 0.0797519057
C  C186  1  0.44110000  0.03830000  0.76030000  1.0 0.0797519057
C  C187  1  0.76030000  0.03830000  0.44110000  1.0 0.0797519057
C  C188  1  0.03830000  0.76030000  0.76030000  1.0 0.0797519057
C  C189  1  0.76030000  0.44110000  0.03830000  1.0 0.0797519057
C  C190  1  0.55890000  0.23970000  0.23970000  1.0 0.0797519057
C  C191  1  0.23970000  0.23970000  0.55890000  1.0 0.0797519057
C  C192  1  0.23970000  0.55890000  0.23970000  1.0 0.0797519057
C  C193  1  0.72800000  0.49520000  0.72800000  1.0 0.064629037
C  C194  1  0.72800000  0.72800000  0.49520000  1.0 0.064629037
C  C195  1  0.49520000  0.72800000  0.72800000  1.0 0.064629037
C  C196  1  0.27200000  0.50480000  0.95120000  1.0 0.064629037
C  C197  1  0.27200000  0.95120000  0.50480000  1.0 0.064629037
C  C198  1  0.95120000  0.27200000  0.27200000  1.0 0.064629037
C  C199  1  0.27200000  0.27200000  0.95120000  1.0 0.064629037
C  C200  1  0.95120000  0.50480000  0.27200000  1.0 0.064629037
C  C201  1  0.50480000  0.95120000  0.27200000  1.0 0.064629037
C  C202  1  0.50480000  0.27200000  0.95120000  1.0 0.064629037
C  C203  1  0.27200000  0.95120000  0.27200000  1.0 0.064629037
C  C204  1  0.95120000  0.27200000  0.50480000  1.0 0.064629037
C  C205  1  0.49520000  0.72800000  0.04880000  1.0 0.064629037
C  C206  1  0.72800000  0.04880000  0.72800000  1.0 0.064629037
C  C207  1  0.04880000  0.72800000  0.49520000  1.0 0.064629037
C  C208  1  0.04880000  0.49520000  0.72800000  1.0 0.064629037
C  C209  1  0.72800000  0.72800000  0.04880000  1.0 0.064629037
C  C210  1  0.49520000  0.04880000  0.72800000  1.0 0.064629037
C  C211  1  0.72800000  0.04880000  0.49520000  1.0 0.064629037
C  C212  1  0.04880000  0.72800000  0.72800000  1.0 0.064629037
C  C213  1  0.72800000  0.49520000  0.04880000  1.0 0.064629037
C  C214  1  0.50480000  0.27200000  0.27200000  1.0 0.064629037
C  C215  1  0.27200000  0.27200000  0.50480000  1.0 0.064629037
C  C216  1  0.27200000  0.50480000  0.27200000  1.0 0.064629037
C  C217  1  0.69270000  0.53450000  0.75490000  1.0 -0.1130372361
C  C218  1  0.75490000  0.69270000  0.53450000  1.0 -0.1130372361
C  C219  1  0.53450000  0.75490000  0.69270000  1.0 -0.1130372361
C  C220  1  0.30730000  0.46550000  0.98210000  1.0 -0.1130372361
C  C221  1  0.24510000  0.98210000  0.46550000  1.0 -0.1130372361
C  C222  1  0.98210000  0.24510000  0.30730000  1.0 -0.1130372361
C  C223  1  0.24510000  0.30730000  0.98210000  1.0 -0.1130372361
C  C224  1  0.98210000  0.46550000  0.24510000  1.0 -0.1130372361
C  C225  1  0.46550000  0.98210000  0.30730000  1.0 -0.1130372361
C  C226  1  0.46550000  0.24510000  0.98210000  1.0 -0.1130372361
C  C227  1  0.30730000  0.98210000  0.24510000  1.0 -0.1130372361
C  C228  1  0.98210000  0.30730000  0.46550000  1.0 -0.1130372361
C  C229  1  0.53450000  0.69270000  0.01790000  1.0 -0.1130372361
C  C230  1  0.75490000  0.01790000  0.69270000  1.0 -0.1130372361
C  C231  1  0.01790000  0.75490000  0.53450000  1.0 -0.1130372361
C  C232  1  0.01790000  0.53450000  0.69270000  1.0 -0.1130372361
C  C233  1  0.69270000  0.75490000  0.01790000  1.0 -0.1130372361
C  C234  1  0.53450000  0.01790000  0.75490000  1.0 -0.1130372361
C  C235  1  0.69270000  0.01790000  0.53450000  1.0 -0.1130372361
C  C236  1  0.01790000  0.69270000  0.75490000  1.0 -0.1130372361
C  C237  1  0.75490000  0.53450000  0.01790000  1.0 -0.1130372361
C  C238  1  0.46550000  0.30730000  0.24510000  1.0 -0.1130372361
C  C239  1  0.30730000  0.24510000  0.46550000  1.0 -0.1130372361
C  C240  1  0.24510000  0.46550000  0.30730000  1.0 -0.1130372361
C  C241  1  0.30730000  0.46550000  0.24510000  1.0 -0.1130372361
C  C242  1  0.24510000  0.30730000  0.46550000  1.0 -0.1130372361
C  C243  1  0.46550000  0.24510000  0.30730000  1.0 -0.1130372361
C  C244  1  0.69270000  0.53450000  0.01790000  1.0 -0.1130372361
C  C245  1  0.75490000  0.01790000  0.53450000  1.0 -0.1130372361
C  C246  1  0.01790000  0.75490000  0.69270000  1.0 -0.1130372361
C  C247  1  0.75490000  0.69270000  0.01790000  1.0 -0.1130372361
C  C248  1  0.01790000  0.53450000  0.75490000  1.0 -0.1130372361
C  C249  1  0.53450000  0.01790000  0.69270000  1.0 -0.1130372361
C  C250  1  0.53450000  0.75490000  0.01790000  1.0 -0.1130372361
C  C251  1  0.69270000  0.01790000  0.75490000  1.0 -0.1130372361
C  C252  1  0.01790000  0.69270000  0.53450000  1.0 -0.1130372361
C  C253  1  0.46550000  0.30730000  0.98210000  1.0 -0.1130372361
C  C254  1  0.24510000  0.98210000  0.30730000  1.0 -0.1130372361
C  C255  1  0.98210000  0.24510000  0.46550000  1.0 -0.1130372361
C  C256  1  0.98210000  0.46550000  0.30730000  1.0 -0.1130372361
C  C257  1  0.30730000  0.24510000  0.98210000  1.0 -0.1130372361
C  C258  1  0.46550000  0.98210000  0.24510000  1.0 -0.1130372361
C  C259  1  0.30730000  0.98210000  0.46550000  1.0 -0.1130372361
C  C260  1  0.98210000  0.30730000  0.24510000  1.0 -0.1130372361
C  C261  1  0.24510000  0.46550000  0.98210000  1.0 -0.1130372361
C  C262  1  0.53450000  0.69270000  0.75490000  1.0 -0.1130372361
C  C263  1  0.69270000  0.75490000  0.53450000  1.0 -0.1130372361
C  C264  1  0.75490000  0.53450000  0.69270000  1.0 -0.1130372361
C  C265  1  0.66770000  0.58530000  0.72330000  1.0 -0.0916193723
C  C266  1  0.72330000  0.66770000  0.58530000  1.0 -0.0916193723
C  C267  1  0.58530000  0.72330000  0.66770000  1.0 -0.0916193723
C  C268  1  0.33230000  0.41470000  0.97630000  1.0 -0.0916193723
C  C269  1  0.27670000  0.97630000  0.41470000  1.0 -0.0916193723
C  C270  1  0.97630000  0.27670000  0.33230000  1.0 -0.0916193723
C  C271  1  0.27670000  0.33230000  0.97630000  1.0 -0.0916193723
C  C272  1  0.97630000  0.41470000  0.27670000  1.0 -0.0916193723
C  C273  1  0.41470000  0.97630000  0.33230000  1.0 -0.0916193723
C  C274  1  0.41470000  0.27670000  0.97630000  1.0 -0.0916193723
C  C275  1  0.33230000  0.97630000  0.27670000  1.0 -0.0916193723
C  C276  1  0.97630000  0.33230000  0.41470000  1.0 -0.0916193723
C  C277  1  0.58530000  0.66770000  0.02370000  1.0 -0.0916193723
C  C278  1  0.72330000  0.02370000  0.66770000  1.0 -0.0916193723
C  C279  1  0.02370000  0.72330000  0.58530000  1.0 -0.0916193723
C  C280  1  0.02370000  0.58530000  0.66770000  1.0 -0.0916193723
C  C281  1  0.66770000  0.72330000  0.02370000  1.0 -0.0916193723
C  C282  1  0.58530000  0.02370000  0.72330000  1.0 -0.0916193723
C  C283  1  0.66770000  0.02370000  0.58530000  1.0 -0.0916193723
C  C284  1  0.02370000  0.66770000  0.72330000  1.0 -0.0916193723
C  C285  1  0.72330000  0.58530000  0.02370000  1.0 -0.0916193723
C  C286  1  0.41470000  0.33230000  0.27670000  1.0 -0.0916193723
C  C287  1  0.33230000  0.27670000  0.41470000  1.0 -0.0916193723
C  C288  1  0.27670000  0.41470000  0.33230000  1.0 -0.0916193723
C  C289  1  0.33230000  0.41470000  0.27670000  1.0 -0.0916193723
C  C290  1  0.27670000  0.33230000  0.41470000  1.0 -0.0916193723
C  C291  1  0.41470000  0.27670000  0.33230000  1.0 -0.0916193723
C  C292  1  0.66770000  0.58530000  0.02370000  1.0 -0.0916193723
C  C293  1  0.72330000  0.02370000  0.58530000  1.0 -0.0916193723
C  C294  1  0.02370000  0.72330000  0.66770000  1.0 -0.0916193723
C  C295  1  0.72330000  0.66770000  0.02370000  1.0 -0.0916193723
C  C296  1  0.02370000  0.58530000  0.72330000  1.0 -0.0916193723
C  C297  1  0.58530000  0.02370000  0.66770000  1.0 -0.0916193723
C  C298  1  0.58530000  0.72330000  0.02370000  1.0 -0.0916193723
C  C299  1  0.66770000  0.02370000  0.72330000  1.0 -0.0916193723
C  C300  1  0.02370000  0.66770000  0.58530000  1.0 -0.0916193723
C  C301  1  0.41470000  0.33230000  0.97630000  1.0 -0.0916193723
C  C302  1  0.27670000  0.97630000  0.33230000  1.0 -0.0916193723
C  C303  1  0.97630000  0.27670000  0.41470000  1.0 -0.0916193723
C  C304  1  0.97630000  0.41470000  0.33230000  1.0 -0.0916193723
C  C305  1  0.33230000  0.27670000  0.97630000  1.0 -0.0916193723
C  C306  1  0.41470000  0.97630000  0.27670000  1.0 -0.0916193723
C  C307  1  0.33230000  0.97630000  0.41470000  1.0 -0.0916193723
C  C308  1  0.97630000  0.33230000  0.27670000  1.0 -0.0916193723
C  C309  1  0.27670000  0.41470000  0.97630000  1.0 -0.0916193723
C  C310  1  0.58530000  0.66770000  0.72330000  1.0 -0.0916193723
C  C311  1  0.66770000  0.72330000  0.58530000  1.0 -0.0916193723
C  C312  1  0.72330000  0.58530000  0.66770000  1.0 -0.0916193723
C  C313  1  0.73600000  0.50100000  0.67580000  1.0 -0.0916193723
C  C314  1  0.67580000  0.73600000  0.50100000  1.0 -0.0916193723
C  C315  1  0.50100000  0.67580000  0.73600000  1.0 -0.0916193723
C  C316  1  0.26400000  0.49900000  0.91280000  1.0 -0.0916193723
C  C317  1  0.32420000  0.91280000  0.49900000  1.0 -0.0916193723
C  C318  1  0.91280000  0.32420000  0.26400000  1.0 -0.0916193723
C  C319  1  0.32420000  0.26400000  0.91280000  1.0 -0.0916193723
C  C320  1  0.91280000  0.49900000  0.32420000  1.0 -0.0916193723
C  C321  1  0.49900000  0.91280000  0.26400000  1.0 -0.0916193723
C  C322  1  0.49900000  0.32420000  0.91280000  1.0 -0.0916193723
C  C323  1  0.26400000  0.91280000  0.32420000  1.0 -0.0916193723
C  C324  1  0.91280000  0.26400000  0.49900000  1.0 -0.0916193723
C  C325  1  0.50100000  0.73600000  0.08720000  1.0 -0.0916193723
C  C326  1  0.67580000  0.08720000  0.73600000  1.0 -0.0916193723
C  C327  1  0.08720000  0.67580000  0.50100000  1.0 -0.0916193723
C  C328  1  0.08720000  0.50100000  0.73600000  1.0 -0.0916193723
C  C329  1  0.73600000  0.67580000  0.08720000  1.0 -0.0916193723
C  C330  1  0.50100000  0.08720000  0.67580000  1.0 -0.0916193723
C  C331  1  0.73600000  0.08720000  0.50100000  1.0 -0.0916193723
C  C332  1  0.08720000  0.73600000  0.67580000  1.0 -0.0916193723
C  C333  1  0.67580000  0.50100000  0.08720000  1.0 -0.0916193723
C  C334  1  0.49900000  0.26400000  0.32420000  1.0 -0.0916193723
C  C335  1  0.26400000  0.32420000  0.49900000  1.0 -0.0916193723
C  C336  1  0.32420000  0.49900000  0.26400000  1.0 -0.0916193723
C  C337  1  0.26400000  0.49900000  0.32420000  1.0 -0.0916193723
C  C338  1  0.32420000  0.26400000  0.49900000  1.0 -0.0916193723
C  C339  1  0.49900000  0.32420000  0.26400000  1.0 -0.0916193723
C  C340  1  0.73600000  0.50100000  0.08720000  1.0 -0.0916193723
C  C341  1  0.67580000  0.08720000  0.50100000  1.0 -0.0916193723
C  C342  1  0.08720000  0.67580000  0.73600000  1.0 -0.0916193723
C  C343  1  0.67580000  0.73600000  0.08720000  1.0 -0.0916193723
C  C344  1  0.08720000  0.50100000  0.67580000  1.0 -0.0916193723
C  C345  1  0.50100000  0.08720000  0.73600000  1.0 -0.0916193723
C  C346  1  0.50100000  0.67580000  0.08720000  1.0 -0.0916193723
C  C347  1  0.73600000  0.08720000  0.67580000  1.0 -0.0916193723
C  C348  1  0.08720000  0.73600000  0.50100000  1.0 -0.0916193723
C  C349  1  0.49900000  0.26400000  0.91280000  1.0 -0.0916193723
C  C350  1  0.32420000  0.91280000  0.26400000  1.0 -0.0916193723
C  C351  1  0.91280000  0.32420000  0.49900000  1.0 -0.0916193723
C  C352  1  0.91280000  0.49900000  0.26400000  1.0 -0.0916193723
C  C353  1  0.26400000  0.32420000  0.91280000  1.0 -0.0916193723
C  C354  1  0.49900000  0.91280000  0.32420000  1.0 -0.0916193723
C  C355  1  0.26400000  0.91280000  0.49900000  1.0 -0.0916193723
C  C356  1  0.91280000  0.26400000  0.32420000  1.0 -0.0916193723
C  C357  1  0.32420000  0.49900000  0.91280000  1.0 -0.0916193723
C  C358  1  0.50100000  0.73600000  0.67580000  1.0 -0.0916193723
C  C359  1  0.73600000  0.67580000  0.50100000  1.0 -0.0916193723
C  C360  1  0.67580000  0.50100000  0.73600000  1.0 -0.0916193723
C  C361  1  0.64730000  0.55230000  0.70710000  1.0 -0.1019278198
C  C362  1  0.70710000  0.64730000  0.55230000  1.0 -0.1019278198
C  C363  1  0.55230000  0.70710000  0.64730000  1.0 -0.1019278198
C  C364  1  0.35270000  0.44770000  0.90670000  1.0 -0.1019278198
C  C365  1  0.29290000  0.90670000  0.44770000  1.0 -0.1019278198
C  C366  1  0.90670000  0.29290000  0.35270000  1.0 -0.1019278198
C  C367  1  0.29290000  0.35270000  0.90670000  1.0 -0.1019278198
C  C368  1  0.90670000  0.44770000  0.29290000  1.0 -0.1019278198
C  C369  1  0.44770000  0.90670000  0.35270000  1.0 -0.1019278198
C  C370  1  0.44770000  0.29290000  0.90670000  1.0 -0.1019278198
C  C371  1  0.35270000  0.90670000  0.29290000  1.0 -0.1019278198
C  C372  1  0.90670000  0.35270000  0.44770000  1.0 -0.1019278198
C  C373  1  0.55230000  0.64730000  0.09330000  1.0 -0.1019278198
C  C374  1  0.70710000  0.09330000  0.64730000  1.0 -0.1019278198
C  C375  1  0.09330000  0.70710000  0.55230000  1.0 -0.1019278198
C  C376  1  0.09330000  0.55230000  0.64730000  1.0 -0.1019278198
C  C377  1  0.64730000  0.70710000  0.09330000  1.0 -0.1019278198
C  C378  1  0.55230000  0.09330000  0.70710000  1.0 -0.1019278198
C  C379  1  0.64730000  0.09330000  0.55230000  1.0 -0.1019278198
C  C380  1  0.09330000  0.64730000  0.70710000  1.0 -0.1019278198
C  C381  1  0.70710000  0.55230000  0.09330000  1.0 -0.1019278198
C  C382  1  0.44770000  0.35270000  0.29290000  1.0 -0.1019278198
C  C383  1  0.35270000  0.29290000  0.44770000  1.0 -0.1019278198
C  C384  1  0.29290000  0.44770000  0.35270000  1.0 -0.1019278198
C  C385  1  0.35270000  0.44770000  0.29290000  1.0 -0.1019278198
C  C386  1  0.29290000  0.35270000  0.44770000  1.0 -0.1019278198
C  C387  1  0.44770000  0.29290000  0.35270000  1.0 -0.1019278198
C  C388  1  0.64730000  0.55230000  0.09330000  1.0 -0.1019278198
C  C389  1  0.70710000  0.09330000  0.55230000  1.0 -0.1019278198
C  C390  1  0.09330000  0.70710000  0.64730000  1.0 -0.1019278198
C  C391  1  0.70710000  0.64730000  0.09330000  1.0 -0.1019278198
C  C392  1  0.09330000  0.55230000  0.70710000  1.0 -0.1019278198
C  C393  1  0.55230000  0.09330000  0.64730000  1.0 -0.1019278198
C  C394  1  0.55230000  0.70710000  0.09330000  1.0 -0.1019278198
C  C395  1  0.64730000  0.09330000  0.70710000  1.0 -0.1019278198
C  C396  1  0.09330000  0.64730000  0.55230000  1.0 -0.1019278198
C  C397  1  0.44770000  0.35270000  0.90670000  1.0 -0.1019278198
C  C398  1  0.29290000  0.90670000  0.35270000  1.0 -0.1019278198
C  C399  1  0.90670000  0.29290000  0.44770000  1.0 -0.1019278198
C  C400  1  0.90670000  0.44770000  0.35270000  1.0 -0.1019278198
C  C401  1  0.35270000  0.29290000  0.90670000  1.0 -0.1019278198
C  C402  1  0.44770000  0.90670000  0.29290000  1.0 -0.1019278198
C  C403  1  0.35270000  0.90670000  0.44770000  1.0 -0.1019278198
C  C404  1  0.90670000  0.35270000  0.29290000  1.0 -0.1019278198
C  C405  1  0.29290000  0.44770000  0.90670000  1.0 -0.1019278198
C  C406  1  0.55230000  0.64730000  0.70710000  1.0 -0.1019278198
C  C407  1  0.64730000  0.70710000  0.55230000  1.0 -0.1019278198
C  C408  1  0.70710000  0.55230000  0.64730000  1.0 -0.1019278198
C  C409  1  0.67160000  0.59280000  0.67160000  1.0 0.1080091991
C  C410  1  0.67160000  0.67160000  0.59280000  1.0 0.1080091991
C  C411  1  0.59280000  0.67160000  0.67160000  1.0 0.1080091991
C  C412  1  0.32840000  0.40720000  0.93600000  1.0 0.1080091991
C  C413  1  0.32840000  0.93600000  0.40720000  1.0 0.1080091991
C  C414  1  0.93600000  0.32840000  0.32840000  1.0 0.1080091991
C  C415  1  0.32840000  0.32840000  0.93600000  1.0 0.1080091991
C  C416  1  0.93600000  0.40720000  0.32840000  1.0 0.1080091991
C  C417  1  0.40720000  0.93600000  0.32840000  1.0 0.1080091991
C  C418  1  0.40720000  0.32840000  0.93600000  1.0 0.1080091991
C  C419  1  0.32840000  0.93600000  0.32840000  1.0 0.1080091991
C  C420  1  0.93600000  0.32840000  0.40720000  1.0 0.1080091991
C  C421  1  0.59280000  0.67160000  0.06400000  1.0 0.1080091991
C  C422  1  0.67160000  0.06400000  0.67160000  1.0 0.1080091991
C  C423  1  0.06400000  0.67160000  0.59280000  1.0 0.1080091991
C  C424  1  0.06400000  0.59280000  0.67160000  1.0 0.1080091991
C  C425  1  0.67160000  0.67160000  0.06400000  1.0 0.1080091991
C  C426  1  0.59280000  0.06400000  0.67160000  1.0 0.1080091991
C  C427  1  0.67160000  0.06400000  0.59280000  1.0 0.1080091991
C  C428  1  0.06400000  0.67160000  0.67160000  1.0 0.1080091991
C  C429  1  0.67160000  0.59280000  0.06400000  1.0 0.1080091991
C  C430  1  0.40720000  0.32840000  0.32840000  1.0 0.1080091991
C  C431  1  0.32840000  0.32840000  0.40720000  1.0 0.1080091991
C  C432  1  0.32840000  0.40720000  0.32840000  1.0 0.1080091991
N  N1  1  0.64270000  0.64270000  0.64270000  1.0 -0.2411612848
N  N2  1  0.35730000  0.35730000  0.92810000  1.0 -0.2411612848
N  N3  1  0.35730000  0.92810000  0.35730000  1.0 -0.2411612848
N  N4  1  0.92810000  0.35730000  0.35730000  1.0 -0.2411612848
N  N5  1  0.64270000  0.64270000  0.07190000  1.0 -0.2411612848
N  N6  1  0.64270000  0.07190000  0.64270000  1.0 -0.2411612848
N  N7  1  0.07190000  0.64270000  0.64270000  1.0 -0.2411612848
N  N8  1  0.35730000  0.35730000  0.35730000  1.0 -0.2411612848
O  O1  1  0.69240000  0.37072000  0.92388000  1.0 -0.5326431467
O  O2  1  0.92388000  0.69240000  0.37072000  1.0 -0.5326431467
O  O3  1  0.37072000  0.92388000  0.69240000  1.0 -0.5326431467
O  O4  1  0.30760000  0.62928000  0.98700000  1.0 -0.5326431467
O  O5  1  0.07612000  0.98700000  0.62928000  1.0 -0.5326431467
O  O6  1  0.98700000  0.07612000  0.30760000  1.0 -0.5326431467
O  O7  1  0.07612000  0.30760000  0.98700000  1.0 -0.5326431467
O  O8  1  0.98700000  0.62928000  0.07612000  1.0 -0.5326431467
O  O9  1  0.62928000  0.98700000  0.30760000  1.0 -0.5326431467
O  O10  1  0.62928000  0.07612000  0.98700000  1.0 -0.5326431467
O  O11  1  0.30760000  0.98700000  0.07612000  1.0 -0.5326431467
O  O12  1  0.98700000  0.30760000  0.62928000  1.0 -0.5326431467
O  O13  1  0.37072000  0.69240000  0.01300000  1.0 -0.5326431467
O  O14  1  0.92388000  0.01300000  0.69240000  1.0 -0.5326431467
O  O15  1  0.01300000  0.92388000  0.37072000  1.0 -0.5326431467
O  O16  1  0.01300000  0.37072000  0.69240000  1.0 -0.5326431467
O  O17  1  0.69240000  0.92388000  0.01300000  1.0 -0.5326431467
O  O18  1  0.37072000  0.01300000  0.92388000  1.0 -0.5326431467
O  O19  1  0.69240000  0.01300000  0.37072000  1.0 -0.5326431467
O  O20  1  0.01300000  0.69240000  0.92388000  1.0 -0.5326431467
O  O21  1  0.92388000  0.37072000  0.01300000  1.0 -0.5326431467
O  O22  1  0.62928000  0.30760000  0.07612000  1.0 -0.5326431467
O  O23  1  0.30760000  0.07612000  0.62928000  1.0 -0.5326431467
O  O24  1  0.07612000  0.62928000  0.30760000  1.0 -0.5326431467
O  O25  1  0.30760000  0.62928000  0.07612000  1.0 -0.5326431467
O  O26  1  0.07612000  0.30760000  0.62928000  1.0 -0.5326431467
O  O27  1  0.62928000  0.07612000  0.30760000  1.0 -0.5326431467
O  O28  1  0.69240000  0.37072000  0.01300000  1.0 -0.5326431467
O  O29  1  0.92388000  0.01300000  0.37072000  1.0 -0.5326431467
O  O30  1  0.01300000  0.92388000  0.69240000  1.0 -0.5326431467
O  O31  1  0.92388000  0.69240000  0.01300000  1.0 -0.5326431467
O  O32  1  0.01300000  0.37072000  0.92388000  1.0 -0.5326431467
O  O33  1  0.37072000  0.01300000  0.69240000  1.0 -0.5326431467
O  O34  1  0.37072000  0.92388000  0.01300000  1.0 -0.5326431467
O  O35  1  0.69240000  0.01300000  0.92388000  1.0 -0.5326431467
O  O36  1  0.01300000  0.69240000  0.37072000  1.0 -0.5326431467
O  O37  1  0.62928000  0.30760000  0.98700000  1.0 -0.5326431467
O  O38  1  0.07612000  0.98700000  0.30760000  1.0 -0.5326431467
O  O39  1  0.98700000  0.07612000  0.62928000  1.0 -0.5326431467
O  O40  1  0.98700000  0.62928000  0.30760000  1.0 -0.5326431467
O  O41  1  0.30760000  0.07612000  0.98700000  1.0 -0.5326431467
O  O42  1  0.62928000  0.98700000  0.07612000  1.0 -0.5326431467
O  O43  1  0.30760000  0.98700000  0.62928000  1.0 -0.5326431467
O  O44  1  0.98700000  0.30760000  0.07612000  1.0 -0.5326431467
O  O45  1  0.07612000  0.62928000  0.98700000  1.0 -0.5326431467
O  O46  1  0.37072000  0.69240000  0.92388000  1.0 -0.5326431467
O  O47  1  0.69240000  0.92388000  0.37072000  1.0 -0.5326431467
O  O48  1  0.92388000  0.37072000  0.69240000  1.0 -0.5326431467
O  O49  1  0.76639000  0.29765000  0.92413000  1.0 -0.5002936273
O  O50  1  0.92413000  0.76639000  0.29765000  1.0 -0.5002936273
O  O51  1  0.29765000  0.92413000  0.76639000  1.0 -0.5002936273
O  O52  1  0.23361000  0.70235000  0.98817000  1.0 -0.5002936273
O  O53  1  0.07587000  0.98817000  0.70235000  1.0 -0.5002936273
O  O54  1  0.98817000  0.07587000  0.23361000  1.0 -0.5002936273
O  O55  1  0.07587000  0.23361000  0.98817000  1.0 -0.5002936273
O  O56  1  0.98817000  0.70235000  0.07587000  1.0 -0.5002936273
O  O57  1  0.70235000  0.98817000  0.23361000  1.0 -0.5002936273
O  O58  1  0.70235000  0.07587000  0.98817000  1.0 -0.5002936273
O  O59  1  0.23361000  0.98817000  0.07587000  1.0 -0.5002936273
O  O60  1  0.98817000  0.23361000  0.70235000  1.0 -0.5002936273
O  O61  1  0.29765000  0.76639000  0.01183000  1.0 -0.5002936273
O  O62  1  0.92413000  0.01183000  0.76639000  1.0 -0.5002936273
O  O63  1  0.01183000  0.92413000  0.29765000  1.0 -0.5002936273
O  O64  1  0.01183000  0.29765000  0.76639000  1.0 -0.5002936273
O  O65  1  0.76639000  0.92413000  0.01183000  1.0 -0.5002936273
O  O66  1  0.29765000  0.01183000  0.92413000  1.0 -0.5002936273
O  O67  1  0.76639000  0.01183000  0.29765000  1.0 -0.5002936273
O  O68  1  0.01183000  0.76639000  0.92413000  1.0 -0.5002936273
O  O69  1  0.92413000  0.29765000  0.01183000  1.0 -0.5002936273
O  O70  1  0.70235000  0.23361000  0.07587000  1.0 -0.5002936273
O  O71  1  0.23361000  0.07587000  0.70235000  1.0 -0.5002936273
O  O72  1  0.07587000  0.70235000  0.23361000  1.0 -0.5002936273
O  O73  1  0.23361000  0.70235000  0.07587000  1.0 -0.5002936273
O  O74  1  0.07587000  0.23361000  0.70235000  1.0 -0.5002936273
O  O75  1  0.70235000  0.07587000  0.23361000  1.0 -0.5002936273
O  O76  1  0.76639000  0.29765000  0.01183000  1.0 -0.5002936273
O  O77  1  0.92413000  0.01183000  0.29765000  1.0 -0.5002936273
O  O78  1  0.01183000  0.92413000  0.76639000  1.0 -0.5002936273
O  O79  1  0.92413000  0.76639000  0.01183000  1.0 -0.5002936273
O  O80  1  0.01183000  0.29765000  0.92413000  1.0 -0.5002936273
O  O81  1  0.29765000  0.01183000  0.76639000  1.0 -0.5002936273
O  O82  1  0.29765000  0.92413000  0.01183000  1.0 -0.5002936273
O  O83  1  0.76639000  0.01183000  0.92413000  1.0 -0.5002936273
O  O84  1  0.01183000  0.76639000  0.29765000  1.0 -0.5002936273
O  O85  1  0.70235000  0.23361000  0.98817000  1.0 -0.5002936273
O  O86  1  0.07587000  0.98817000  0.23361000  1.0 -0.5002936273
O  O87  1  0.98817000  0.07587000  0.70235000  1.0 -0.5002936273
O  O88  1  0.98817000  0.70235000  0.23361000  1.0 -0.5002936273
O  O89  1  0.23361000  0.07587000  0.98817000  1.0 -0.5002936273
O  O90  1  0.70235000  0.98817000  0.07587000  1.0 -0.5002936273
O  O91  1  0.23361000  0.98817000  0.70235000  1.0 -0.5002936273
O  O92  1  0.98817000  0.23361000  0.07587000  1.0 -0.5002936273
O  O93  1  0.07587000  0.70235000  0.98817000  1.0 -0.5002936273
O  O94  1  0.29765000  0.76639000  0.92413000  1.0 -0.5002936273
O  O95  1  0.76639000  0.92413000  0.29765000  1.0 -0.5002936273
O  O96  1  0.92413000  0.29765000  0.76639000  1.0 -0.5002936273
