# DDEC6 charges by PACMAN v1.1 (https://github.com/mtap-research/PACMAN-charge/)
data_RAKPAX_ASR_pacman
_symmetry_space_group_name_H-M   'P 1'
_cell_length_a   28.25170000
_cell_length_b   28.25170000
_cell_length_c   28.25170000
_cell_angle_alpha   60.00000000
_cell_angle_beta   60.00000000
_cell_angle_gamma   60.00000000
_symmetry_Int_Tables_number   1
_chemical_formula_structural   Cu2H20C22NO10
_chemical_formula_sum   'Cu24 H240 C264 N12 O120'
_cell_volume   15944.78838885
_cell_formula_units_Z   12
loop_
 _symmetry_equiv_pos_site_id
 _symmetry_equiv_pos_as_xyz
  1  'x, y, z'
loop_
 _atom_site_type_symbol
 _atom_site_label
 _atom_site_symmetry_multiplicity
 _atom_site_fract_x
 _atom_site_fract_y
 _atom_site_fract_z
 _atom_site_occupancy
 _atom_site_charge
Cu  Cu1  1  0.12332000  0.50000000  0.50000000  1.0 0.6272617912
Cu  Cu2  1  0.21752000  0.50000000  0.50000000  1.0 0.8534300015
Cu  Cu3  1  0.50000000  0.87668000  0.12332000  1.0 0.6272617912
Cu  Cu4  1  0.50000000  0.78248000  0.21752000  1.0 0.8534300015
Cu  Cu5  1  0.50000000  0.12332000  0.87668000  1.0 0.6272617912
Cu  Cu6  1  0.50000000  0.21752000  0.78248000  1.0 0.8534300015
Cu  Cu7  1  0.87668000  0.50000000  0.50000000  1.0 0.6272617912
Cu  Cu8  1  0.78248000  0.50000000  0.50000000  1.0 0.8534300015
Cu  Cu9  1  0.50000000  0.50000000  0.12332000  1.0 0.6272617912
Cu  Cu10  1  0.50000000  0.50000000  0.21752000  1.0 0.8534300015
Cu  Cu11  1  0.87668000  0.12332000  0.50000000  1.0 0.6272617912
Cu  Cu12  1  0.78248000  0.21752000  0.50000000  1.0 0.8534300015
Cu  Cu13  1  0.12332000  0.87668000  0.50000000  1.0 0.6272617912
Cu  Cu14  1  0.21752000  0.78248000  0.50000000  1.0 0.8534300015
Cu  Cu15  1  0.50000000  0.50000000  0.87668000  1.0 0.6272617912
Cu  Cu16  1  0.50000000  0.50000000  0.78248000  1.0 0.8534300015
Cu  Cu17  1  0.50000000  0.12332000  0.50000000  1.0 0.6272617912
Cu  Cu18  1  0.50000000  0.21752000  0.50000000  1.0 0.8534300015
Cu  Cu19  1  0.12332000  0.50000000  0.87668000  1.0 0.6272617912
Cu  Cu20  1  0.21752000  0.50000000  0.78248000  1.0 0.8534300015
Cu  Cu21  1  0.87668000  0.50000000  0.12332000  1.0 0.6272617912
Cu  Cu22  1  0.78248000  0.50000000  0.21752000  1.0 0.8534300015
Cu  Cu23  1  0.50000000  0.87668000  0.50000000  1.0 0.6272617912
Cu  Cu24  1  0.50000000  0.78248000  0.50000000  1.0 0.8534300015
H  H1  1  0.02180000  0.47380000  0.68220000  1.0 0.1423506542
H  H2  1  0.93580000  0.50000000  0.78120000  1.0 0.362771671
H  H3  1  0.05840000  0.54660000  0.41420000  1.0 0.0786088743
H  H4  1  0.06980000  0.52680000  0.41200000  1.0 0.0786088743
H  H5  1  0.98890000  0.54110000  0.55970000  1.0 0.0786088743
H  H6  1  0.68220000  0.82220000  0.02180000  1.0 0.1423506542
H  H7  1  0.78120000  0.78300000  0.93580000  1.0 0.362771671
H  H8  1  0.41420000  0.98080000  0.05840000  1.0 0.0786088743
H  H9  1  0.41200000  0.99140000  0.06980000  1.0 0.0786088743
H  H10  1  0.55970000  0.91030000  0.98890000  1.0 0.0786088743
H  H11  1  0.47380000  0.02180000  0.82220000  1.0 0.1423506542
H  H12  1  0.50000000  0.93580000  0.78300000  1.0 0.362771671
H  H13  1  0.54660000  0.05840000  0.98080000  1.0 0.0786088743
H  H14  1  0.52680000  0.06980000  0.99140000  1.0 0.0786088743
H  H15  1  0.54110000  0.98890000  0.91030000  1.0 0.0786088743
H  H16  1  0.82220000  0.68220000  0.47380000  1.0 0.1423506542
H  H17  1  0.78300000  0.78120000  0.50000000  1.0 0.362771671
H  H18  1  0.98080000  0.41420000  0.54660000  1.0 0.0786088743
H  H19  1  0.99140000  0.41200000  0.52680000  1.0 0.0786088743
H  H20  1  0.91030000  0.55970000  0.54110000  1.0 0.0786088743
H  H21  1  0.47380000  0.68220000  0.02180000  1.0 0.1423506542
H  H22  1  0.50000000  0.78120000  0.93580000  1.0 0.362771671
H  H23  1  0.54660000  0.41420000  0.05840000  1.0 0.0786088743
H  H24  1  0.52680000  0.41200000  0.06980000  1.0 0.0786088743
H  H25  1  0.54110000  0.55970000  0.98890000  1.0 0.0786088743
H  H26  1  0.82220000  0.02180000  0.68220000  1.0 0.1423506542
H  H27  1  0.78300000  0.93580000  0.78120000  1.0 0.362771671
H  H28  1  0.98080000  0.05840000  0.41420000  1.0 0.0786088743
H  H29  1  0.99140000  0.06980000  0.41200000  1.0 0.0786088743
H  H30  1  0.91030000  0.98890000  0.55970000  1.0 0.0786088743
H  H31  1  0.02180000  0.82220000  0.47380000  1.0 0.1423506542
H  H32  1  0.93580000  0.78300000  0.50000000  1.0 0.362771671
H  H33  1  0.05840000  0.98080000  0.54660000  1.0 0.0786088743
H  H34  1  0.06980000  0.99140000  0.52680000  1.0 0.0786088743
H  H35  1  0.98890000  0.91030000  0.54110000  1.0 0.0786088743
H  H36  1  0.68220000  0.47380000  0.82220000  1.0 0.1423506542
H  H37  1  0.78120000  0.50000000  0.78300000  1.0 0.362771671
H  H38  1  0.41420000  0.54660000  0.98080000  1.0 0.0786088743
H  H39  1  0.41200000  0.52680000  0.99140000  1.0 0.0786088743
H  H40  1  0.55970000  0.54110000  0.91030000  1.0 0.0786088743
H  H41  1  0.68220000  0.02180000  0.47380000  1.0 0.1423506542
H  H42  1  0.78120000  0.93580000  0.50000000  1.0 0.362771671
H  H43  1  0.41420000  0.05840000  0.54660000  1.0 0.0786088743
H  H44  1  0.41200000  0.06980000  0.52680000  1.0 0.0786088743
H  H45  1  0.55970000  0.98890000  0.54110000  1.0 0.0786088743
H  H46  1  0.02180000  0.68220000  0.82220000  1.0 0.1423506542
H  H47  1  0.93580000  0.78120000  0.78300000  1.0 0.362771671
H  H48  1  0.05840000  0.41420000  0.98080000  1.0 0.0786088743
H  H49  1  0.06980000  0.41200000  0.99140000  1.0 0.0786088743
H  H50  1  0.98890000  0.55970000  0.91030000  1.0 0.0786088743
H  H51  1  0.82220000  0.47380000  0.02180000  1.0 0.1423506542
H  H52  1  0.78300000  0.50000000  0.93580000  1.0 0.362771671
H  H53  1  0.98080000  0.54660000  0.05840000  1.0 0.0786088743
H  H54  1  0.99140000  0.52680000  0.06980000  1.0 0.0786088743
H  H55  1  0.91030000  0.54110000  0.98890000  1.0 0.0786088743
H  H56  1  0.47380000  0.82220000  0.68220000  1.0 0.1423506542
H  H57  1  0.50000000  0.78300000  0.78120000  1.0 0.362771671
H  H58  1  0.54660000  0.98080000  0.41420000  1.0 0.0786088743
H  H59  1  0.52680000  0.99140000  0.41200000  1.0 0.0786088743
H  H60  1  0.54110000  0.91030000  0.55970000  1.0 0.0786088743
H  H61  1  0.97820000  0.17780000  0.31780000  1.0 0.1423506542
H  H62  1  0.06420000  0.21700000  0.21880000  1.0 0.362771671
H  H63  1  0.94160000  0.01920000  0.58580000  1.0 0.0786088743
H  H64  1  0.93020000  0.00860000  0.58800000  1.0 0.0786088743
H  H65  1  0.01110000  0.08970000  0.44030000  1.0 0.0786088743
H  H66  1  0.31780000  0.52620000  0.97820000  1.0 0.1423506542
H  H67  1  0.21880000  0.50000000  0.06420000  1.0 0.362771671
H  H68  1  0.58580000  0.45340000  0.94160000  1.0 0.0786088743
H  H69  1  0.58800000  0.47320000  0.93020000  1.0 0.0786088743
H  H70  1  0.44030000  0.45890000  0.01110000  1.0 0.0786088743
H  H71  1  0.52620000  0.31780000  0.17780000  1.0 0.1423506542
H  H72  1  0.50000000  0.21880000  0.21700000  1.0 0.362771671
H  H73  1  0.45340000  0.58580000  0.01920000  1.0 0.0786088743
H  H74  1  0.47320000  0.58800000  0.00860000  1.0 0.0786088743
H  H75  1  0.45890000  0.44030000  0.08970000  1.0 0.0786088743
H  H76  1  0.17780000  0.97820000  0.52620000  1.0 0.1423506542
H  H77  1  0.21700000  0.06420000  0.50000000  1.0 0.362771671
H  H78  1  0.01920000  0.94160000  0.45340000  1.0 0.0786088743
H  H79  1  0.00860000  0.93020000  0.47320000  1.0 0.0786088743
H  H80  1  0.08970000  0.01110000  0.45890000  1.0 0.0786088743
H  H81  1  0.52620000  0.17780000  0.97820000  1.0 0.1423506542
H  H82  1  0.50000000  0.21700000  0.06420000  1.0 0.362771671
H  H83  1  0.45340000  0.01920000  0.94160000  1.0 0.0786088743
H  H84  1  0.47320000  0.00860000  0.93020000  1.0 0.0786088743
H  H85  1  0.45890000  0.08970000  0.01110000  1.0 0.0786088743
H  H86  1  0.17780000  0.52620000  0.31780000  1.0 0.1423506542
H  H87  1  0.21700000  0.50000000  0.21880000  1.0 0.362771671
H  H88  1  0.01920000  0.45340000  0.58580000  1.0 0.0786088743
H  H89  1  0.00860000  0.47320000  0.58800000  1.0 0.0786088743
H  H90  1  0.08970000  0.45890000  0.44030000  1.0 0.0786088743
H  H91  1  0.97820000  0.31780000  0.52620000  1.0 0.1423506542
H  H92  1  0.06420000  0.21880000  0.50000000  1.0 0.362771671
H  H93  1  0.94160000  0.58580000  0.45340000  1.0 0.0786088743
H  H94  1  0.93020000  0.58800000  0.47320000  1.0 0.0786088743
H  H95  1  0.01110000  0.44030000  0.45890000  1.0 0.0786088743
H  H96  1  0.31780000  0.97820000  0.17780000  1.0 0.1423506542
H  H97  1  0.21880000  0.06420000  0.21700000  1.0 0.362771671
H  H98  1  0.58580000  0.94160000  0.01920000  1.0 0.0786088743
H  H99  1  0.58800000  0.93020000  0.00860000  1.0 0.0786088743
H  H100  1  0.44030000  0.01110000  0.08970000  1.0 0.0786088743
H  H101  1  0.31780000  0.17780000  0.52620000  1.0 0.1423506542
H  H102  1  0.21880000  0.21700000  0.50000000  1.0 0.362771671
H  H103  1  0.58580000  0.01920000  0.45340000  1.0 0.0786088743
H  H104  1  0.58800000  0.00860000  0.47320000  1.0 0.0786088743
H  H105  1  0.44030000  0.08970000  0.45890000  1.0 0.0786088743
H  H106  1  0.97820000  0.52620000  0.17780000  1.0 0.1423506542
H  H107  1  0.06420000  0.50000000  0.21700000  1.0 0.362771671
H  H108  1  0.94160000  0.45340000  0.01920000  1.0 0.0786088743
H  H109  1  0.93020000  0.47320000  0.00860000  1.0 0.0786088743
H  H110  1  0.01110000  0.45890000  0.08970000  1.0 0.0786088743
H  H111  1  0.17780000  0.31780000  0.97820000  1.0 0.1423506542
H  H112  1  0.21700000  0.21880000  0.06420000  1.0 0.362771671
H  H113  1  0.01920000  0.58580000  0.94160000  1.0 0.0786088743
H  H114  1  0.00860000  0.58800000  0.93020000  1.0 0.0786088743
H  H115  1  0.08970000  0.44030000  0.01110000  1.0 0.0786088743
H  H116  1  0.52620000  0.97820000  0.31780000  1.0 0.1423506542
H  H117  1  0.50000000  0.06420000  0.21880000  1.0 0.362771671
H  H118  1  0.45340000  0.94160000  0.58580000  1.0 0.0786088743
H  H119  1  0.47320000  0.93020000  0.58800000  1.0 0.0786088743
H  H120  1  0.45890000  0.01110000  0.44030000  1.0 0.0786088743
H  H121  1  0.97820000  0.52620000  0.31780000  1.0 0.1423506542
H  H122  1  0.94160000  0.45340000  0.58580000  1.0 0.0786088743
H  H123  1  0.93020000  0.47320000  0.58800000  1.0 0.0786088743
H  H124  1  0.01110000  0.45890000  0.44030000  1.0 0.0786088743
H  H125  1  0.31780000  0.17780000  0.97820000  1.0 0.1423506542
H  H126  1  0.58580000  0.01920000  0.94160000  1.0 0.0786088743
H  H127  1  0.58800000  0.00860000  0.93020000  1.0 0.0786088743
H  H128  1  0.44030000  0.08970000  0.01110000  1.0 0.0786088743
H  H129  1  0.52620000  0.97820000  0.17780000  1.0 0.1423506542
H  H130  1  0.45340000  0.94160000  0.01920000  1.0 0.0786088743
H  H131  1  0.47320000  0.93020000  0.00860000  1.0 0.0786088743
H  H132  1  0.45890000  0.01110000  0.08970000  1.0 0.0786088743
H  H133  1  0.17780000  0.31780000  0.52620000  1.0 0.1423506542
H  H134  1  0.01920000  0.58580000  0.45340000  1.0 0.0786088743
H  H135  1  0.00860000  0.58800000  0.47320000  1.0 0.0786088743
H  H136  1  0.08970000  0.44030000  0.45890000  1.0 0.0786088743
H  H137  1  0.52620000  0.31780000  0.97820000  1.0 0.1423506542
H  H138  1  0.45340000  0.58580000  0.94160000  1.0 0.0786088743
H  H139  1  0.47320000  0.58800000  0.93020000  1.0 0.0786088743
H  H140  1  0.45890000  0.44030000  0.01110000  1.0 0.0786088743
H  H141  1  0.17780000  0.97820000  0.31780000  1.0 0.1423506542
H  H142  1  0.01920000  0.94160000  0.58580000  1.0 0.0786088743
H  H143  1  0.00860000  0.93020000  0.58800000  1.0 0.0786088743
H  H144  1  0.08970000  0.01110000  0.44030000  1.0 0.0786088743
H  H145  1  0.97820000  0.17780000  0.52620000  1.0 0.1423506542
H  H146  1  0.94160000  0.01920000  0.45340000  1.0 0.0786088743
H  H147  1  0.93020000  0.00860000  0.47320000  1.0 0.0786088743
H  H148  1  0.01110000  0.08970000  0.45890000  1.0 0.0786088743
H  H149  1  0.31780000  0.52620000  0.17780000  1.0 0.1423506542
H  H150  1  0.58580000  0.45340000  0.01920000  1.0 0.0786088743
H  H151  1  0.58800000  0.47320000  0.00860000  1.0 0.0786088743
H  H152  1  0.44030000  0.45890000  0.08970000  1.0 0.0786088743
H  H153  1  0.31780000  0.97820000  0.52620000  1.0 0.1423506542
H  H154  1  0.58580000  0.94160000  0.45340000  1.0 0.0786088743
H  H155  1  0.58800000  0.93020000  0.47320000  1.0 0.0786088743
H  H156  1  0.44030000  0.01110000  0.45890000  1.0 0.0786088743
H  H157  1  0.97820000  0.31780000  0.17780000  1.0 0.1423506542
H  H158  1  0.94160000  0.58580000  0.01920000  1.0 0.0786088743
H  H159  1  0.93020000  0.58800000  0.00860000  1.0 0.0786088743
H  H160  1  0.01110000  0.44030000  0.08970000  1.0 0.0786088743
H  H161  1  0.17780000  0.52620000  0.97820000  1.0 0.1423506542
H  H162  1  0.01920000  0.45340000  0.94160000  1.0 0.0786088743
H  H163  1  0.00860000  0.47320000  0.93020000  1.0 0.0786088743
H  H164  1  0.08970000  0.45890000  0.01110000  1.0 0.0786088743
H  H165  1  0.52620000  0.17780000  0.31780000  1.0 0.1423506542
H  H166  1  0.45340000  0.01920000  0.58580000  1.0 0.0786088743
H  H167  1  0.47320000  0.00860000  0.58800000  1.0 0.0786088743
H  H168  1  0.45890000  0.08970000  0.44030000  1.0 0.0786088743
H  H169  1  0.02180000  0.82220000  0.68220000  1.0 0.1423506542
H  H170  1  0.05840000  0.98080000  0.41420000  1.0 0.0786088743
H  H171  1  0.06980000  0.99140000  0.41200000  1.0 0.0786088743
H  H172  1  0.98890000  0.91030000  0.55970000  1.0 0.0786088743
H  H173  1  0.68220000  0.47380000  0.02180000  1.0 0.1423506542
H  H174  1  0.41420000  0.54660000  0.05840000  1.0 0.0786088743
H  H175  1  0.41200000  0.52680000  0.06980000  1.0 0.0786088743
H  H176  1  0.55970000  0.54110000  0.98890000  1.0 0.0786088743
H  H177  1  0.47380000  0.68220000  0.82220000  1.0 0.1423506542
H  H178  1  0.54660000  0.41420000  0.98080000  1.0 0.0786088743
H  H179  1  0.52680000  0.41200000  0.99140000  1.0 0.0786088743
H  H180  1  0.54110000  0.55970000  0.91030000  1.0 0.0786088743
H  H181  1  0.82220000  0.02180000  0.47380000  1.0 0.1423506542
H  H182  1  0.98080000  0.05840000  0.54660000  1.0 0.0786088743
H  H183  1  0.99140000  0.06980000  0.52680000  1.0 0.0786088743
H  H184  1  0.91030000  0.98890000  0.54110000  1.0 0.0786088743
H  H185  1  0.47380000  0.82220000  0.02180000  1.0 0.1423506542
H  H186  1  0.54660000  0.98080000  0.05840000  1.0 0.0786088743
H  H187  1  0.52680000  0.99140000  0.06980000  1.0 0.0786088743
H  H188  1  0.54110000  0.91030000  0.98890000  1.0 0.0786088743
H  H189  1  0.82220000  0.47380000  0.68220000  1.0 0.1423506542
H  H190  1  0.98080000  0.54660000  0.41420000  1.0 0.0786088743
H  H191  1  0.99140000  0.52680000  0.41200000  1.0 0.0786088743
H  H192  1  0.91030000  0.54110000  0.55970000  1.0 0.0786088743
H  H193  1  0.02180000  0.68220000  0.47380000  1.0 0.1423506542
H  H194  1  0.05840000  0.41420000  0.54660000  1.0 0.0786088743
H  H195  1  0.06980000  0.41200000  0.52680000  1.0 0.0786088743
H  H196  1  0.98890000  0.55970000  0.54110000  1.0 0.0786088743
H  H197  1  0.68220000  0.02180000  0.82220000  1.0 0.1423506542
H  H198  1  0.41420000  0.05840000  0.98080000  1.0 0.0786088743
H  H199  1  0.41200000  0.06980000  0.99140000  1.0 0.0786088743
H  H200  1  0.55970000  0.98890000  0.91030000  1.0 0.0786088743
H  H201  1  0.68220000  0.82220000  0.47380000  1.0 0.1423506542
H  H202  1  0.41420000  0.98080000  0.54660000  1.0 0.0786088743
H  H203  1  0.41200000  0.99140000  0.52680000  1.0 0.0786088743
H  H204  1  0.55970000  0.91030000  0.54110000  1.0 0.0786088743
H  H205  1  0.02180000  0.47380000  0.82220000  1.0 0.1423506542
H  H206  1  0.05840000  0.54660000  0.98080000  1.0 0.0786088743
H  H207  1  0.06980000  0.52680000  0.99140000  1.0 0.0786088743
H  H208  1  0.98890000  0.54110000  0.91030000  1.0 0.0786088743
H  H209  1  0.82220000  0.68220000  0.02180000  1.0 0.1423506542
H  H210  1  0.98080000  0.41420000  0.05840000  1.0 0.0786088743
H  H211  1  0.99140000  0.41200000  0.06980000  1.0 0.0786088743
H  H212  1  0.91030000  0.55970000  0.98890000  1.0 0.0786088743
H  H213  1  0.47380000  0.02180000  0.68220000  1.0 0.1423506542
H  H214  1  0.54660000  0.05840000  0.41420000  1.0 0.0786088743
H  H215  1  0.52680000  0.06980000  0.41200000  1.0 0.0786088743
H  H216  1  0.54110000  0.98890000  0.55970000  1.0 0.0786088743
H  H217  1  0.16140000  0.48220000  0.67820000  1.0 0.1519777574
H  H218  1  0.67820000  0.67820000  0.16140000  1.0 0.1519777574
H  H219  1  0.48220000  0.16140000  0.67820000  1.0 0.1519777574
H  H220  1  0.67820000  0.67820000  0.48220000  1.0 0.1519777574
H  H221  1  0.48220000  0.67820000  0.16140000  1.0 0.1519777574
H  H222  1  0.67820000  0.16140000  0.67820000  1.0 0.1519777574
H  H223  1  0.16140000  0.67820000  0.48220000  1.0 0.1519777574
H  H224  1  0.67820000  0.48220000  0.67820000  1.0 0.1519777574
H  H225  1  0.67820000  0.16140000  0.48220000  1.0 0.1519777574
H  H226  1  0.16140000  0.67820000  0.67820000  1.0 0.1519777574
H  H227  1  0.67820000  0.48220000  0.16140000  1.0 0.1519777574
H  H228  1  0.48220000  0.67820000  0.67820000  1.0 0.1519777574
H  H229  1  0.83860000  0.32180000  0.32180000  1.0 0.1519777574
H  H230  1  0.32180000  0.51780000  0.83860000  1.0 0.1519777574
H  H231  1  0.51780000  0.32180000  0.32180000  1.0 0.1519777574
H  H232  1  0.32180000  0.83860000  0.51780000  1.0 0.1519777574
H  H233  1  0.51780000  0.32180000  0.83860000  1.0 0.1519777574
H  H234  1  0.32180000  0.51780000  0.32180000  1.0 0.1519777574
H  H235  1  0.83860000  0.32180000  0.51780000  1.0 0.1519777574
H  H236  1  0.32180000  0.83860000  0.32180000  1.0 0.1519777574
H  H237  1  0.32180000  0.32180000  0.51780000  1.0 0.1519777574
H  H238  1  0.83860000  0.51780000  0.32180000  1.0 0.1519777574
H  H239  1  0.32180000  0.32180000  0.83860000  1.0 0.1519777574
H  H240  1  0.51780000  0.83860000  0.32180000  1.0 0.1519777574
C  C1  1  0.12556000  0.48384000  0.60680000  1.0 0.5635544593
C  C2  1  0.99740000  0.50540000  0.55540000  1.0 -0.1157855876
C  C3  1  0.09702000  0.47908000  0.66970000  1.0 0.0178604136
C  C4  1  0.04110000  0.47410000  0.70070000  1.0 -0.2178435958
C  C5  1  0.60680000  0.78380000  0.12556000  1.0 0.5635544593
C  C6  1  0.55540000  0.94180000  0.99740000  1.0 -0.1157855876
C  C7  1  0.66970000  0.75420000  0.09702000  1.0 0.0178604136
C  C8  1  0.70070000  0.78410000  0.04110000  1.0 -0.2178435958
C  C9  1  0.48384000  0.12556000  0.78380000  1.0 0.5635544593
C  C10  1  0.50540000  0.99740000  0.94180000  1.0 -0.1157855876
C  C11  1  0.47908000  0.09702000  0.75420000  1.0 0.0178604136
C  C12  1  0.47410000  0.04110000  0.78410000  1.0 -0.2178435958
C  C13  1  0.78380000  0.60680000  0.48384000  1.0 0.5635544593
C  C14  1  0.94180000  0.55540000  0.50540000  1.0 -0.1157855876
C  C15  1  0.75420000  0.66970000  0.47908000  1.0 0.0178604136
C  C16  1  0.78410000  0.70070000  0.47410000  1.0 -0.2178435958
C  C17  1  0.48384000  0.60680000  0.12556000  1.0 0.5635544593
C  C18  1  0.50540000  0.55540000  0.99740000  1.0 -0.1157855876
C  C19  1  0.47908000  0.66970000  0.09702000  1.0 0.0178604136
C  C20  1  0.47410000  0.70070000  0.04110000  1.0 -0.2178435958
C  C21  1  0.78380000  0.12556000  0.60680000  1.0 0.5635544593
C  C22  1  0.94180000  0.99740000  0.55540000  1.0 -0.1157855876
C  C23  1  0.75420000  0.09702000  0.66970000  1.0 0.0178604136
C  C24  1  0.78410000  0.04110000  0.70070000  1.0 -0.2178435958
C  C25  1  0.12556000  0.78380000  0.48384000  1.0 0.5635544593
C  C26  1  0.99740000  0.94180000  0.50540000  1.0 -0.1157855876
C  C27  1  0.09702000  0.75420000  0.47908000  1.0 0.0178604136
C  C28  1  0.04110000  0.78410000  0.47410000  1.0 -0.2178435958
C  C29  1  0.60680000  0.48384000  0.78380000  1.0 0.5635544593
C  C30  1  0.55540000  0.50540000  0.94180000  1.0 -0.1157855876
C  C31  1  0.66970000  0.47908000  0.75420000  1.0 0.0178604136
C  C32  1  0.70070000  0.47410000  0.78410000  1.0 -0.2178435958
C  C33  1  0.60680000  0.12556000  0.48384000  1.0 0.5635544593
C  C34  1  0.55540000  0.99740000  0.50540000  1.0 -0.1157855876
C  C35  1  0.66970000  0.09702000  0.47908000  1.0 0.0178604136
C  C36  1  0.70070000  0.04110000  0.47410000  1.0 -0.2178435958
C  C37  1  0.12556000  0.60680000  0.78380000  1.0 0.5635544593
C  C38  1  0.99740000  0.55540000  0.94180000  1.0 -0.1157855876
C  C39  1  0.09702000  0.66970000  0.75420000  1.0 0.0178604136
C  C40  1  0.04110000  0.70070000  0.78410000  1.0 -0.2178435958
C  C41  1  0.78380000  0.48384000  0.12556000  1.0 0.5635544593
C  C42  1  0.94180000  0.50540000  0.99740000  1.0 -0.1157855876
C  C43  1  0.75420000  0.47908000  0.09702000  1.0 0.0178604136
C  C44  1  0.78410000  0.47410000  0.04110000  1.0 -0.2178435958
C  C45  1  0.48384000  0.78380000  0.60680000  1.0 0.5635544593
C  C46  1  0.50540000  0.94180000  0.55540000  1.0 -0.1157855876
C  C47  1  0.47908000  0.75420000  0.66970000  1.0 0.0178604136
C  C48  1  0.47410000  0.78410000  0.70070000  1.0 -0.2178435958
C  C49  1  0.87444000  0.21620000  0.39320000  1.0 0.5635544593
C  C50  1  0.00260000  0.05820000  0.44460000  1.0 -0.1157855876
C  C51  1  0.90298000  0.24580000  0.33030000  1.0 0.0178604136
C  C52  1  0.95890000  0.21590000  0.29930000  1.0 -0.2178435958
C  C53  1  0.39320000  0.51616000  0.87444000  1.0 0.5635544593
C  C54  1  0.44460000  0.49460000  0.00260000  1.0 -0.1157855876
C  C55  1  0.33030000  0.52092000  0.90298000  1.0 0.0178604136
C  C56  1  0.29930000  0.52590000  0.95890000  1.0 -0.2178435958
C  C57  1  0.51616000  0.39320000  0.21620000  1.0 0.5635544593
C  C58  1  0.49460000  0.44460000  0.05820000  1.0 -0.1157855876
C  C59  1  0.52092000  0.33030000  0.24580000  1.0 0.0178604136
C  C60  1  0.52590000  0.29930000  0.21590000  1.0 -0.2178435958
C  C61  1  0.21620000  0.87444000  0.51616000  1.0 0.5635544593
C  C62  1  0.05820000  0.00260000  0.49460000  1.0 -0.1157855876
C  C63  1  0.24580000  0.90298000  0.52092000  1.0 0.0178604136
C  C64  1  0.21590000  0.95890000  0.52590000  1.0 -0.2178435958
C  C65  1  0.51616000  0.21620000  0.87444000  1.0 0.5635544593
C  C66  1  0.49460000  0.05820000  0.00260000  1.0 -0.1157855876
C  C67  1  0.52092000  0.24580000  0.90298000  1.0 0.0178604136
C  C68  1  0.52590000  0.21590000  0.95890000  1.0 -0.2178435958
C  C69  1  0.21620000  0.51616000  0.39320000  1.0 0.5635544593
C  C70  1  0.05820000  0.49460000  0.44460000  1.0 -0.1157855876
C  C71  1  0.24580000  0.52092000  0.33030000  1.0 0.0178604136
C  C72  1  0.21590000  0.52590000  0.29930000  1.0 -0.2178435958
C  C73  1  0.87444000  0.39320000  0.51616000  1.0 0.5635544593
C  C74  1  0.00260000  0.44460000  0.49460000  1.0 -0.1157855876
C  C75  1  0.90298000  0.33030000  0.52092000  1.0 0.0178604136
C  C76  1  0.95890000  0.29930000  0.52590000  1.0 -0.2178435958
C  C77  1  0.39320000  0.87444000  0.21620000  1.0 0.5635544593
C  C78  1  0.44460000  0.00260000  0.05820000  1.0 -0.1157855876
C  C79  1  0.33030000  0.90298000  0.24580000  1.0 0.0178604136
C  C80  1  0.29930000  0.95890000  0.21590000  1.0 -0.2178435958
C  C81  1  0.39320000  0.21620000  0.51616000  1.0 0.5635544593
C  C82  1  0.44460000  0.05820000  0.49460000  1.0 -0.1157855876
C  C83  1  0.33030000  0.24580000  0.52092000  1.0 0.0178604136
C  C84  1  0.29930000  0.21590000  0.52590000  1.0 -0.2178435958
C  C85  1  0.87444000  0.51616000  0.21620000  1.0 0.5635544593
C  C86  1  0.00260000  0.49460000  0.05820000  1.0 -0.1157855876
C  C87  1  0.90298000  0.52092000  0.24580000  1.0 0.0178604136
C  C88  1  0.95890000  0.52590000  0.21590000  1.0 -0.2178435958
C  C89  1  0.21620000  0.39320000  0.87444000  1.0 0.5635544593
C  C90  1  0.05820000  0.44460000  0.00260000  1.0 -0.1157855876
C  C91  1  0.24580000  0.33030000  0.90298000  1.0 0.0178604136
C  C92  1  0.21590000  0.29930000  0.95890000  1.0 -0.2178435958
C  C93  1  0.51616000  0.87444000  0.39320000  1.0 0.5635544593
C  C94  1  0.49460000  0.00260000  0.44460000  1.0 -0.1157855876
C  C95  1  0.52092000  0.90298000  0.33030000  1.0 0.0178604136
C  C96  1  0.52590000  0.95890000  0.29930000  1.0 -0.2178435958
C  C97  1  0.87444000  0.51616000  0.39320000  1.0 0.5635544593
C  C98  1  0.00260000  0.49460000  0.44460000  1.0 -0.1157855876
C  C99  1  0.90298000  0.52092000  0.33030000  1.0 0.0178604136
C  C100  1  0.95890000  0.52590000  0.29930000  1.0 -0.2178435958
C  C101  1  0.39320000  0.21620000  0.87444000  1.0 0.5635544593
C  C102  1  0.44460000  0.05820000  0.00260000  1.0 -0.1157855876
C  C103  1  0.33030000  0.24580000  0.90298000  1.0 0.0178604136
C  C104  1  0.29930000  0.21590000  0.95890000  1.0 -0.2178435958
C  C105  1  0.51616000  0.87444000  0.21620000  1.0 0.5635544593
C  C106  1  0.49460000  0.00260000  0.05820000  1.0 -0.1157855876
C  C107  1  0.52092000  0.90298000  0.24580000  1.0 0.0178604136
C  C108  1  0.52590000  0.95890000  0.21590000  1.0 -0.2178435958
C  C109  1  0.21620000  0.39320000  0.51616000  1.0 0.5635544593
C  C110  1  0.05820000  0.44460000  0.49460000  1.0 -0.1157855876
C  C111  1  0.24580000  0.33030000  0.52092000  1.0 0.0178604136
C  C112  1  0.21590000  0.29930000  0.52590000  1.0 -0.2178435958
C  C113  1  0.51616000  0.39320000  0.87444000  1.0 0.5635544593
C  C114  1  0.49460000  0.44460000  0.00260000  1.0 -0.1157855876
C  C115  1  0.52092000  0.33030000  0.90298000  1.0 0.0178604136
C  C116  1  0.52590000  0.29930000  0.95890000  1.0 -0.2178435958
C  C117  1  0.21620000  0.87444000  0.39320000  1.0 0.5635544593
C  C118  1  0.05820000  0.00260000  0.44460000  1.0 -0.1157855876
C  C119  1  0.24580000  0.90298000  0.33030000  1.0 0.0178604136
C  C120  1  0.21590000  0.95890000  0.29930000  1.0 -0.2178435958
C  C121  1  0.87444000  0.21620000  0.51616000  1.0 0.5635544593
C  C122  1  0.00260000  0.05820000  0.49460000  1.0 -0.1157855876
C  C123  1  0.90298000  0.24580000  0.52092000  1.0 0.0178604136
C  C124  1  0.95890000  0.21590000  0.52590000  1.0 -0.2178435958
C  C125  1  0.39320000  0.51616000  0.21620000  1.0 0.5635544593
C  C126  1  0.44460000  0.49460000  0.05820000  1.0 -0.1157855876
C  C127  1  0.33030000  0.52092000  0.24580000  1.0 0.0178604136
C  C128  1  0.29930000  0.52590000  0.21590000  1.0 -0.2178435958
C  C129  1  0.39320000  0.87444000  0.51616000  1.0 0.5635544593
C  C130  1  0.44460000  0.00260000  0.49460000  1.0 -0.1157855876
C  C131  1  0.33030000  0.90298000  0.52092000  1.0 0.0178604136
C  C132  1  0.29930000  0.95890000  0.52590000  1.0 -0.2178435958
C  C133  1  0.87444000  0.39320000  0.21620000  1.0 0.5635544593
C  C134  1  0.00260000  0.44460000  0.05820000  1.0 -0.1157855876
C  C135  1  0.90298000  0.33030000  0.24580000  1.0 0.0178604136
C  C136  1  0.95890000  0.29930000  0.21590000  1.0 -0.2178435958
C  C137  1  0.21620000  0.51616000  0.87444000  1.0 0.5635544593
C  C138  1  0.05820000  0.49460000  0.00260000  1.0 -0.1157855876
C  C139  1  0.24580000  0.52092000  0.90298000  1.0 0.0178604136
C  C140  1  0.21590000  0.52590000  0.95890000  1.0 -0.2178435958
C  C141  1  0.51616000  0.21620000  0.39320000  1.0 0.5635544593
C  C142  1  0.49460000  0.05820000  0.44460000  1.0 -0.1157855876
C  C143  1  0.52092000  0.24580000  0.33030000  1.0 0.0178604136
C  C144  1  0.52590000  0.21590000  0.29930000  1.0 -0.2178435958
C  C145  1  0.12556000  0.78380000  0.60680000  1.0 0.5635544593
C  C146  1  0.99740000  0.94180000  0.55540000  1.0 -0.1157855876
C  C147  1  0.09702000  0.75420000  0.66970000  1.0 0.0178604136
C  C148  1  0.04110000  0.78410000  0.70070000  1.0 -0.2178435958
C  C149  1  0.60680000  0.48384000  0.12556000  1.0 0.5635544593
C  C150  1  0.55540000  0.50540000  0.99740000  1.0 -0.1157855876
C  C151  1  0.66970000  0.47908000  0.09702000  1.0 0.0178604136
C  C152  1  0.70070000  0.47410000  0.04110000  1.0 -0.2178435958
C  C153  1  0.48384000  0.60680000  0.78380000  1.0 0.5635544593
C  C154  1  0.50540000  0.55540000  0.94180000  1.0 -0.1157855876
C  C155  1  0.47908000  0.66970000  0.75420000  1.0 0.0178604136
C  C156  1  0.47410000  0.70070000  0.78410000  1.0 -0.2178435958
C  C157  1  0.78380000  0.12556000  0.48384000  1.0 0.5635544593
C  C158  1  0.94180000  0.99740000  0.50540000  1.0 -0.1157855876
C  C159  1  0.75420000  0.09702000  0.47908000  1.0 0.0178604136
C  C160  1  0.78410000  0.04110000  0.47410000  1.0 -0.2178435958
C  C161  1  0.48384000  0.78380000  0.12556000  1.0 0.5635544593
C  C162  1  0.50540000  0.94180000  0.99740000  1.0 -0.1157855876
C  C163  1  0.47908000  0.75420000  0.09702000  1.0 0.0178604136
C  C164  1  0.47410000  0.78410000  0.04110000  1.0 -0.2178435958
C  C165  1  0.78380000  0.48384000  0.60680000  1.0 0.5635544593
C  C166  1  0.94180000  0.50540000  0.55540000  1.0 -0.1157855876
C  C167  1  0.75420000  0.47908000  0.66970000  1.0 0.0178604136
C  C168  1  0.78410000  0.47410000  0.70070000  1.0 -0.2178435958
C  C169  1  0.12556000  0.60680000  0.48384000  1.0 0.5635544593
C  C170  1  0.99740000  0.55540000  0.50540000  1.0 -0.1157855876
C  C171  1  0.09702000  0.66970000  0.47908000  1.0 0.0178604136
C  C172  1  0.04110000  0.70070000  0.47410000  1.0 -0.2178435958
C  C173  1  0.60680000  0.12556000  0.78380000  1.0 0.5635544593
C  C174  1  0.55540000  0.99740000  0.94180000  1.0 -0.1157855876
C  C175  1  0.66970000  0.09702000  0.75420000  1.0 0.0178604136
C  C176  1  0.70070000  0.04110000  0.78410000  1.0 -0.2178435958
C  C177  1  0.60680000  0.78380000  0.48384000  1.0 0.5635544593
C  C178  1  0.55540000  0.94180000  0.50540000  1.0 -0.1157855876
C  C179  1  0.66970000  0.75420000  0.47908000  1.0 0.0178604136
C  C180  1  0.70070000  0.78410000  0.47410000  1.0 -0.2178435958
C  C181  1  0.12556000  0.48384000  0.78380000  1.0 0.5635544593
C  C182  1  0.99740000  0.50540000  0.94180000  1.0 -0.1157855876
C  C183  1  0.09702000  0.47908000  0.75420000  1.0 0.0178604136
C  C184  1  0.04110000  0.47410000  0.78410000  1.0 -0.2178435958
C  C185  1  0.78380000  0.60680000  0.12556000  1.0 0.5635544593
C  C186  1  0.94180000  0.55540000  0.99740000  1.0 -0.1157855876
C  C187  1  0.75420000  0.66970000  0.09702000  1.0 0.0178604136
C  C188  1  0.78410000  0.70070000  0.04110000  1.0 -0.2178435958
C  C189  1  0.48384000  0.12556000  0.60680000  1.0 0.5635544593
C  C190  1  0.50540000  0.99740000  0.55540000  1.0 -0.1157855876
C  C191  1  0.47908000  0.09702000  0.66970000  1.0 0.0178604136
C  C192  1  0.47410000  0.04110000  0.70070000  1.0 -0.2178435958
C  C193  1  0.02730000  0.54970000  0.45030000  1.0 -0.1148966019
C  C194  1  0.45030000  0.97270000  0.02730000  1.0 -0.1157855876
C  C195  1  0.54970000  0.02730000  0.97270000  1.0 -0.1157855876
C  C196  1  0.97270000  0.45030000  0.54970000  1.0 -0.1157855876
C  C197  1  0.54970000  0.45030000  0.02730000  1.0 -0.1148966019
C  C198  1  0.97270000  0.02730000  0.45030000  1.0 -0.1157855876
C  C199  1  0.02730000  0.97270000  0.54970000  1.0 -0.1157855876
C  C200  1  0.45030000  0.54970000  0.97270000  1.0 -0.1157855876
C  C201  1  0.45030000  0.02730000  0.54970000  1.0 -0.1157855876
C  C202  1  0.02730000  0.45030000  0.97270000  1.0 -0.1157855876
C  C203  1  0.97270000  0.54970000  0.02730000  1.0 -0.1157855876
C  C204  1  0.54970000  0.97270000  0.45030000  1.0 -0.1157855876
C  C205  1  0.97270000  0.02730000  0.54970000  1.0 -0.1157855876
C  C206  1  0.54970000  0.45030000  0.97270000  1.0 -0.1157855876
C  C207  1  0.45030000  0.54970000  0.02730000  1.0 -0.1148966019
C  C208  1  0.02730000  0.97270000  0.45030000  1.0 -0.1157855876
C  C209  1  0.45030000  0.02730000  0.97270000  1.0 -0.1157855876
C  C210  1  0.02730000  0.45030000  0.54970000  1.0 -0.1148966019
C  C211  1  0.97270000  0.54970000  0.45030000  1.0 -0.1157855876
C  C212  1  0.54970000  0.97270000  0.02730000  1.0 -0.1148966019
C  C213  1  0.54970000  0.02730000  0.45030000  1.0 -0.1157855876
C  C214  1  0.97270000  0.45030000  0.02730000  1.0 -0.1157855876
C  C215  1  0.02730000  0.54970000  0.97270000  1.0 -0.1148966019
C  C216  1  0.45030000  0.97270000  0.54970000  1.0 -0.1157855876
C  C217  1  0.12402000  0.48038000  0.69780000  1.0 -0.1277690879
C  C218  1  0.01600000  0.46960000  0.75720000  1.0 0.2602039139
C  C219  1  0.69780000  0.69780000  0.12402000  1.0 -0.1277690879
C  C220  1  0.75720000  0.75720000  0.01600000  1.0 0.2602039139
C  C221  1  0.48038000  0.12402000  0.69780000  1.0 -0.1277690879
C  C222  1  0.46960000  0.01600000  0.75720000  1.0 0.2602039139
C  C223  1  0.69780000  0.69780000  0.48038000  1.0 -0.1277690879
C  C224  1  0.75720000  0.75720000  0.46960000  1.0 0.2602039139
C  C225  1  0.48038000  0.69780000  0.12402000  1.0 -0.1277690879
C  C226  1  0.46960000  0.75720000  0.01600000  1.0 0.2602039139
C  C227  1  0.69780000  0.12402000  0.69780000  1.0 -0.1277690879
C  C228  1  0.75720000  0.01600000  0.75720000  1.0 0.2602039139
C  C229  1  0.12402000  0.69780000  0.48038000  1.0 -0.1277690879
C  C230  1  0.01600000  0.75720000  0.46960000  1.0 0.2602039139
C  C231  1  0.69780000  0.48038000  0.69780000  1.0 -0.1277690879
C  C232  1  0.75720000  0.46960000  0.75720000  1.0 0.2602039139
C  C233  1  0.69780000  0.12402000  0.48038000  1.0 -0.1277690879
C  C234  1  0.75720000  0.01600000  0.46960000  1.0 0.2602039139
C  C235  1  0.12402000  0.69780000  0.69780000  1.0 -0.1277690879
C  C236  1  0.01600000  0.75720000  0.75720000  1.0 0.2602039139
C  C237  1  0.69780000  0.48038000  0.12402000  1.0 -0.1277690879
C  C238  1  0.75720000  0.46960000  0.01600000  1.0 0.2602039139
C  C239  1  0.48038000  0.69780000  0.69780000  1.0 -0.1277690879
C  C240  1  0.46960000  0.75720000  0.75720000  1.0 0.2602039139
C  C241  1  0.87598000  0.30220000  0.30220000  1.0 -0.1277690879
C  C242  1  0.98400000  0.24280000  0.24280000  1.0 0.2602039139
C  C243  1  0.30220000  0.51962000  0.87598000  1.0 -0.1277690879
C  C244  1  0.24280000  0.53040000  0.98400000  1.0 0.2602039139
C  C245  1  0.51962000  0.30220000  0.30220000  1.0 -0.1277690879
C  C246  1  0.53040000  0.24280000  0.24280000  1.0 0.2602039139
C  C247  1  0.30220000  0.87598000  0.51962000  1.0 -0.1277690879
C  C248  1  0.24280000  0.98400000  0.53040000  1.0 0.2602039139
C  C249  1  0.51962000  0.30220000  0.87598000  1.0 -0.1277690879
C  C250  1  0.53040000  0.24280000  0.98400000  1.0 0.2602039139
C  C251  1  0.30220000  0.51962000  0.30220000  1.0 -0.1277690879
C  C252  1  0.24280000  0.53040000  0.24280000  1.0 0.2602039139
C  C253  1  0.87598000  0.30220000  0.51962000  1.0 -0.1277690879
C  C254  1  0.98400000  0.24280000  0.53040000  1.0 0.2602039139
C  C255  1  0.30220000  0.87598000  0.30220000  1.0 -0.1277690879
C  C256  1  0.24280000  0.98400000  0.24280000  1.0 0.2602039139
C  C257  1  0.30220000  0.30220000  0.51962000  1.0 -0.1277690879
C  C258  1  0.24280000  0.24280000  0.53040000  1.0 0.2602039139
C  C259  1  0.87598000  0.51962000  0.30220000  1.0 -0.1277690879
C  C260  1  0.98400000  0.53040000  0.24280000  1.0 0.2602039139
C  C261  1  0.30220000  0.30220000  0.87598000  1.0 -0.1277690879
C  C262  1  0.24280000  0.24280000  0.98400000  1.0 0.2602039139
C  C263  1  0.51962000  0.87598000  0.30220000  1.0 -0.1277690879
C  C264  1  0.53040000  0.98400000  0.24280000  1.0 0.2602039139
N  N1  1  0.04618000  0.50000000  0.50000000  1.0 -0.0679075223
N  N2  1  0.50000000  0.95382000  0.04618000  1.0 -0.0679075223
N  N3  1  0.50000000  0.04618000  0.95382000  1.0 -0.0679075223
N  N4  1  0.95382000  0.50000000  0.50000000  1.0 -0.0679075223
N  N5  1  0.50000000  0.50000000  0.04618000  1.0 -0.0679075223
N  N6  1  0.95382000  0.04618000  0.50000000  1.0 -0.0679075223
N  N7  1  0.04618000  0.95382000  0.50000000  1.0 -0.0679075223
N  N8  1  0.50000000  0.50000000  0.95382000  1.0 -0.0679075223
N  N9  1  0.50000000  0.04618000  0.50000000  1.0 -0.0679075223
N  N10  1  0.04618000  0.50000000  0.95382000  1.0 -0.0679075223
N  N11  1  0.95382000  0.50000000  0.04618000  1.0 -0.0679075223
N  N12  1  0.50000000  0.95382000  0.50000000  1.0 -0.0679075223
O  O1  1  0.09691000  0.48637000  0.58275000  1.0 -0.5228605657
O  O2  1  0.17564000  0.48622000  0.58328000  1.0 -0.4893998288
O  O3  1  0.58275000  0.83397000  0.09691000  1.0 -0.5228605657
O  O4  1  0.58328000  0.75486000  0.17564000  1.0 -0.4893998288
O  O5  1  0.48637000  0.09691000  0.83397000  1.0 -0.5228605657
O  O6  1  0.48622000  0.17564000  0.75486000  1.0 -0.4893998288
O  O7  1  0.83397000  0.58275000  0.48637000  1.0 -0.5228605657
O  O8  1  0.75486000  0.58328000  0.48622000  1.0 -0.4893998288
O  O9  1  0.48637000  0.58275000  0.09691000  1.0 -0.5228605657
O  O10  1  0.48622000  0.58328000  0.17564000  1.0 -0.4893998288
O  O11  1  0.83397000  0.09691000  0.58275000  1.0 -0.5228605657
O  O12  1  0.75486000  0.17564000  0.58328000  1.0 -0.4893998288
O  O13  1  0.09691000  0.83397000  0.48637000  1.0 -0.5228605657
O  O14  1  0.17564000  0.75486000  0.48622000  1.0 -0.4893998288
O  O15  1  0.58275000  0.48637000  0.83397000  1.0 -0.5228605657
O  O16  1  0.58328000  0.48622000  0.75486000  1.0 -0.4893998288
O  O17  1  0.58275000  0.09691000  0.48637000  1.0 -0.5228605657
O  O18  1  0.58328000  0.17564000  0.48622000  1.0 -0.4893998288
O  O19  1  0.09691000  0.58275000  0.83397000  1.0 -0.5228605657
O  O20  1  0.17564000  0.58328000  0.75486000  1.0 -0.4893998288
O  O21  1  0.83397000  0.48637000  0.09691000  1.0 -0.5228605657
O  O22  1  0.75486000  0.48622000  0.17564000  1.0 -0.4893998288
O  O23  1  0.48637000  0.83397000  0.58275000  1.0 -0.5228605657
O  O24  1  0.48622000  0.75486000  0.58328000  1.0 -0.4893998288
O  O25  1  0.90309000  0.16603000  0.41725000  1.0 -0.5228605657
O  O26  1  0.82436000  0.24514000  0.41672000  1.0 -0.4893998288
O  O27  1  0.41725000  0.51363000  0.90309000  1.0 -0.5228605657
O  O28  1  0.41672000  0.51378000  0.82436000  1.0 -0.4893998288
O  O29  1  0.51363000  0.41725000  0.16603000  1.0 -0.5228605657
O  O30  1  0.51378000  0.41672000  0.24514000  1.0 -0.4893998288
O  O31  1  0.16603000  0.90309000  0.51363000  1.0 -0.5228605657
O  O32  1  0.24514000  0.82436000  0.51378000  1.0 -0.4893998288
O  O33  1  0.51363000  0.16603000  0.90309000  1.0 -0.5228605657
O  O34  1  0.51378000  0.24514000  0.82436000  1.0 -0.4893998288
O  O35  1  0.16603000  0.51363000  0.41725000  1.0 -0.5228605657
O  O36  1  0.24514000  0.51378000  0.41672000  1.0 -0.4893998288
O  O37  1  0.90309000  0.41725000  0.51363000  1.0 -0.5228605657
O  O38  1  0.82436000  0.41672000  0.51378000  1.0 -0.4893998288
O  O39  1  0.41725000  0.90309000  0.16603000  1.0 -0.5228605657
O  O40  1  0.41672000  0.82436000  0.24514000  1.0 -0.4893998288
O  O41  1  0.41725000  0.16603000  0.51363000  1.0 -0.5228605657
O  O42  1  0.41672000  0.24514000  0.51378000  1.0 -0.4893998288
O  O43  1  0.90309000  0.51363000  0.16603000  1.0 -0.5228605657
O  O44  1  0.82436000  0.51378000  0.24514000  1.0 -0.4893998288
O  O45  1  0.16603000  0.41725000  0.90309000  1.0 -0.5228605657
O  O46  1  0.24514000  0.41672000  0.82436000  1.0 -0.4893998288
O  O47  1  0.51363000  0.90309000  0.41725000  1.0 -0.5228605657
O  O48  1  0.51378000  0.82436000  0.41672000  1.0 -0.4893998288
O  O49  1  0.90309000  0.51363000  0.41725000  1.0 -0.5228605657
O  O50  1  0.82436000  0.51378000  0.41672000  1.0 -0.4893998288
O  O51  1  0.41725000  0.16603000  0.90309000  1.0 -0.5228605657
O  O52  1  0.41672000  0.24514000  0.82436000  1.0 -0.4893998288
O  O53  1  0.51363000  0.90309000  0.16603000  1.0 -0.5228605657
O  O54  1  0.51378000  0.82436000  0.24514000  1.0 -0.4893998288
O  O55  1  0.16603000  0.41725000  0.51363000  1.0 -0.5228605657
O  O56  1  0.24514000  0.41672000  0.51378000  1.0 -0.4893998288
O  O57  1  0.51363000  0.41725000  0.90309000  1.0 -0.5228605657
O  O58  1  0.51378000  0.41672000  0.82436000  1.0 -0.4893998288
O  O59  1  0.16603000  0.90309000  0.41725000  1.0 -0.5228605657
O  O60  1  0.24514000  0.82436000  0.41672000  1.0 -0.4893998288
O  O61  1  0.90309000  0.16603000  0.51363000  1.0 -0.5228605657
O  O62  1  0.82436000  0.24514000  0.51378000  1.0 -0.4893998288
O  O63  1  0.41725000  0.51363000  0.16603000  1.0 -0.5228605657
O  O64  1  0.41672000  0.51378000  0.24514000  1.0 -0.4893998288
O  O65  1  0.41725000  0.90309000  0.51363000  1.0 -0.5228605657
O  O66  1  0.41672000  0.82436000  0.51378000  1.0 -0.4893998288
O  O67  1  0.90309000  0.41725000  0.16603000  1.0 -0.5228605657
O  O68  1  0.82436000  0.41672000  0.24514000  1.0 -0.4893998288
O  O69  1  0.16603000  0.51363000  0.90309000  1.0 -0.5228605657
O  O70  1  0.24514000  0.51378000  0.82436000  1.0 -0.4893998288
O  O71  1  0.51363000  0.16603000  0.41725000  1.0 -0.5228605657
O  O72  1  0.51378000  0.24514000  0.41672000  1.0 -0.4893998288
O  O73  1  0.09691000  0.83397000  0.58275000  1.0 -0.5228605657
O  O74  1  0.17564000  0.75486000  0.58328000  1.0 -0.4893998288
O  O75  1  0.58275000  0.48637000  0.09691000  1.0 -0.5228605657
O  O76  1  0.58328000  0.48622000  0.17564000  1.0 -0.4893998288
O  O77  1  0.48637000  0.58275000  0.83397000  1.0 -0.5228605657
O  O78  1  0.48622000  0.58328000  0.75486000  1.0 -0.4893998288
O  O79  1  0.83397000  0.09691000  0.48637000  1.0 -0.5228605657
O  O80  1  0.75486000  0.17564000  0.48622000  1.0 -0.4893998288
O  O81  1  0.48637000  0.83397000  0.09691000  1.0 -0.5228605657
O  O82  1  0.48622000  0.75486000  0.17564000  1.0 -0.4893998288
O  O83  1  0.83397000  0.48637000  0.58275000  1.0 -0.5228605657
O  O84  1  0.75486000  0.48622000  0.58328000  1.0 -0.4893998288
O  O85  1  0.09691000  0.58275000  0.48637000  1.0 -0.5228605657
O  O86  1  0.17564000  0.58328000  0.48622000  1.0 -0.4893998288
O  O87  1  0.58275000  0.09691000  0.83397000  1.0 -0.5228605657
O  O88  1  0.58328000  0.17564000  0.75486000  1.0 -0.4893998288
O  O89  1  0.58275000  0.83397000  0.48637000  1.0 -0.5228605657
O  O90  1  0.58328000  0.75486000  0.48622000  1.0 -0.4893998288
O  O91  1  0.09691000  0.48637000  0.83397000  1.0 -0.5228605657
O  O92  1  0.17564000  0.48622000  0.75486000  1.0 -0.4893998288
O  O93  1  0.83397000  0.58275000  0.09691000  1.0 -0.5228605657
O  O94  1  0.75486000  0.58328000  0.17564000  1.0 -0.4893998288
O  O95  1  0.48637000  0.09691000  0.58275000  1.0 -0.5228605657
O  O96  1  0.48622000  0.17564000  0.58328000  1.0 -0.4893998288
O  O97  1  0.95940000  0.46700000  0.78680000  1.0 -0.4658452355
O  O98  1  0.78680000  0.78680000  0.95940000  1.0 -0.4658452355
O  O99  1  0.46700000  0.95940000  0.78680000  1.0 -0.4658452355
O  O100  1  0.78680000  0.78680000  0.46700000  1.0 -0.4658452355
O  O101  1  0.46700000  0.78680000  0.95940000  1.0 -0.4658452355
O  O102  1  0.78680000  0.95940000  0.78680000  1.0 -0.4658452355
O  O103  1  0.95940000  0.78680000  0.46700000  1.0 -0.4658452355
O  O104  1  0.78680000  0.46700000  0.78680000  1.0 -0.4658452355
O  O105  1  0.78680000  0.95940000  0.46700000  1.0 -0.4658452355
O  O106  1  0.95940000  0.78680000  0.78680000  1.0 -0.4658452355
O  O107  1  0.78680000  0.46700000  0.95940000  1.0 -0.4658452355
O  O108  1  0.46700000  0.78680000  0.78680000  1.0 -0.4645641063
O  O109  1  0.04060000  0.21320000  0.21320000  1.0 -0.4645641063
O  O110  1  0.21320000  0.53300000  0.04060000  1.0 -0.4658452355
O  O111  1  0.53300000  0.21320000  0.21320000  1.0 -0.4645641063
O  O112  1  0.21320000  0.04060000  0.53300000  1.0 -0.4645641063
O  O113  1  0.53300000  0.21320000  0.04060000  1.0 -0.4658452355
O  O114  1  0.21320000  0.53300000  0.21320000  1.0 -0.4658452355
O  O115  1  0.04060000  0.21320000  0.53300000  1.0 -0.4645641063
O  O116  1  0.21320000  0.04060000  0.21320000  1.0 -0.4645641063
O  O117  1  0.21320000  0.21320000  0.53300000  1.0 -0.4658452355
O  O118  1  0.04060000  0.53300000  0.21320000  1.0 -0.4645641063
O  O119  1  0.21320000  0.21320000  0.04060000  1.0 -0.4658452355
O  O120  1  0.53300000  0.04060000  0.21320000  1.0 -0.4645641063
