# DDEC6 charges by PACMAN v1.1 (https://github.com/mtap-research/PACMAN-charge/)
data_RAKPAX01_ASR_pacman
_symmetry_space_group_name_H-M   'P 1'
_cell_length_a   28.19800000
_cell_length_b   28.19800000
_cell_length_c   28.19800000
_cell_angle_alpha   60.00000000
_cell_angle_beta   60.00000000
_cell_angle_gamma   60.00000000
_symmetry_Int_Tables_number   1
_chemical_formula_structural   Cu2H20C22NO10
_chemical_formula_sum   'Cu24 H240 C264 N12 O120'
_cell_volume   15854.03894782
_cell_formula_units_Z   12
loop_
 _symmetry_equiv_pos_site_id
 _symmetry_equiv_pos_as_xyz
  1  'x, y, z'
loop_
 _atom_site_type_symbol
 _atom_site_label
 _atom_site_symmetry_multiplicity
 _atom_site_fract_x
 _atom_site_fract_y
 _atom_site_fract_z
 _atom_site_occupancy
 _atom_site_charge
Cu  Cu1  1  0.12362000  0.50000000  0.50000000  1.0 0.6000262734
Cu  Cu2  1  0.21784000  0.50000000  0.50000000  1.0 0.8736395078
Cu  Cu3  1  0.50000000  0.87638000  0.12362000  1.0 0.6000262734
Cu  Cu4  1  0.50000000  0.78216000  0.21784000  1.0 0.8736395078
Cu  Cu5  1  0.50000000  0.12362000  0.87638000  1.0 0.6000262734
Cu  Cu6  1  0.50000000  0.21784000  0.78216000  1.0 0.8736395078
Cu  Cu7  1  0.87638000  0.50000000  0.50000000  1.0 0.6000262734
Cu  Cu8  1  0.78216000  0.50000000  0.50000000  1.0 0.8736395078
Cu  Cu9  1  0.50000000  0.50000000  0.12362000  1.0 0.6000262734
Cu  Cu10  1  0.50000000  0.50000000  0.21784000  1.0 0.8736395078
Cu  Cu11  1  0.87638000  0.12362000  0.50000000  1.0 0.6000262734
Cu  Cu12  1  0.78216000  0.21784000  0.50000000  1.0 0.8736395078
Cu  Cu13  1  0.12362000  0.87638000  0.50000000  1.0 0.6000262734
Cu  Cu14  1  0.21784000  0.78216000  0.50000000  1.0 0.8736395078
Cu  Cu15  1  0.50000000  0.50000000  0.87638000  1.0 0.6000262734
Cu  Cu16  1  0.50000000  0.50000000  0.78216000  1.0 0.8736395078
Cu  Cu17  1  0.50000000  0.12362000  0.50000000  1.0 0.6000262734
Cu  Cu18  1  0.50000000  0.21784000  0.50000000  1.0 0.8736395078
Cu  Cu19  1  0.12362000  0.50000000  0.87638000  1.0 0.6000262734
Cu  Cu20  1  0.21784000  0.50000000  0.78216000  1.0 0.8736395078
Cu  Cu21  1  0.87638000  0.50000000  0.12362000  1.0 0.6000262734
Cu  Cu22  1  0.78216000  0.50000000  0.21784000  1.0 0.8736395078
Cu  Cu23  1  0.50000000  0.87638000  0.50000000  1.0 0.6000262734
Cu  Cu24  1  0.50000000  0.78216000  0.50000000  1.0 0.8736395078
H  H1  1  0.02170000  0.47430000  0.67870000  1.0 0.1440802849
H  H2  1  0.98800000  0.54420000  0.55800000  1.0 0.0981459654
H  H3  1  0.00660000  0.47640000  0.58880000  1.0 0.0706586129
H  H4  1  0.05870000  0.54650000  0.41410000  1.0 0.0773049638
H  H5  1  0.67870000  0.82530000  0.02170000  1.0 0.1440802849
H  H6  1  0.55800000  0.90980000  0.98800000  1.0 0.0981459654
H  H7  1  0.58880000  0.92820000  0.00660000  1.0 0.0706586129
H  H8  1  0.41410000  0.98070000  0.05870000  1.0 0.0773049638
H  H9  1  0.47430000  0.02170000  0.82530000  1.0 0.1440802849
H  H10  1  0.54420000  0.98800000  0.90980000  1.0 0.0981459654
H  H11  1  0.47640000  0.00660000  0.92820000  1.0 0.0706586129
H  H12  1  0.54650000  0.05870000  0.98070000  1.0 0.0773049638
H  H13  1  0.82530000  0.67870000  0.47430000  1.0 0.1440802849
H  H14  1  0.90980000  0.55800000  0.54420000  1.0 0.0981459654
H  H15  1  0.92820000  0.58880000  0.47640000  1.0 0.0706586129
H  H16  1  0.98070000  0.41410000  0.54650000  1.0 0.0773049638
H  H17  1  0.47430000  0.67870000  0.02170000  1.0 0.1440802849
H  H18  1  0.54420000  0.55800000  0.98800000  1.0 0.0981459654
H  H19  1  0.47640000  0.58880000  0.00660000  1.0 0.0706586129
H  H20  1  0.54650000  0.41410000  0.05870000  1.0 0.0773049638
H  H21  1  0.82530000  0.02170000  0.67870000  1.0 0.1440802849
H  H22  1  0.90980000  0.98800000  0.55800000  1.0 0.0981459654
H  H23  1  0.92820000  0.00660000  0.58880000  1.0 0.0706586129
H  H24  1  0.98070000  0.05870000  0.41410000  1.0 0.0773049638
H  H25  1  0.02170000  0.82530000  0.47430000  1.0 0.1440802849
H  H26  1  0.98800000  0.90980000  0.54420000  1.0 0.0981459654
H  H27  1  0.00660000  0.92820000  0.47640000  1.0 0.0706586129
H  H28  1  0.05870000  0.98070000  0.54650000  1.0 0.0773049638
H  H29  1  0.67870000  0.47430000  0.82530000  1.0 0.1440802849
H  H30  1  0.55800000  0.54420000  0.90980000  1.0 0.0981459654
H  H31  1  0.58880000  0.47640000  0.92820000  1.0 0.0706586129
H  H32  1  0.41410000  0.54650000  0.98070000  1.0 0.0773049638
H  H33  1  0.67870000  0.02170000  0.47430000  1.0 0.1440802849
H  H34  1  0.55800000  0.98800000  0.54420000  1.0 0.0981459654
H  H35  1  0.58880000  0.00660000  0.47640000  1.0 0.0706586129
H  H36  1  0.41410000  0.05870000  0.54650000  1.0 0.0773049638
H  H37  1  0.02170000  0.67870000  0.82530000  1.0 0.1440802849
H  H38  1  0.98800000  0.55800000  0.90980000  1.0 0.0981459654
H  H39  1  0.00660000  0.58880000  0.92820000  1.0 0.0706586129
H  H40  1  0.05870000  0.41410000  0.98070000  1.0 0.0773049638
H  H41  1  0.82530000  0.47430000  0.02170000  1.0 0.1440802849
H  H42  1  0.90980000  0.54420000  0.98800000  1.0 0.0981459654
H  H43  1  0.92820000  0.47640000  0.00660000  1.0 0.0706586129
H  H44  1  0.98070000  0.54650000  0.05870000  1.0 0.0773049638
H  H45  1  0.47430000  0.82530000  0.67870000  1.0 0.1440802849
H  H46  1  0.54420000  0.90980000  0.55800000  1.0 0.0981459654
H  H47  1  0.47640000  0.92820000  0.58880000  1.0 0.0706586129
H  H48  1  0.54650000  0.98070000  0.41410000  1.0 0.0773049638
H  H49  1  0.97830000  0.17470000  0.32130000  1.0 0.1440802849
H  H50  1  0.01200000  0.09020000  0.44200000  1.0 0.0981459654
H  H51  1  0.99340000  0.07180000  0.41120000  1.0 0.0706586129
H  H52  1  0.94130000  0.01930000  0.58590000  1.0 0.0773049638
H  H53  1  0.32130000  0.52570000  0.97830000  1.0 0.1440802849
H  H54  1  0.44200000  0.45580000  0.01200000  1.0 0.0981459654
H  H55  1  0.41120000  0.52360000  0.99340000  1.0 0.0706586129
H  H56  1  0.58590000  0.45350000  0.94130000  1.0 0.0773049638
H  H57  1  0.52570000  0.32130000  0.17470000  1.0 0.1440802849
H  H58  1  0.45580000  0.44200000  0.09020000  1.0 0.0981459654
H  H59  1  0.52360000  0.41120000  0.07180000  1.0 0.0706586129
H  H60  1  0.45350000  0.58590000  0.01930000  1.0 0.0773049638
H  H61  1  0.17470000  0.97830000  0.52570000  1.0 0.1440802849
H  H62  1  0.09020000  0.01200000  0.45580000  1.0 0.0981459654
H  H63  1  0.07180000  0.99340000  0.52360000  1.0 0.0706586129
H  H64  1  0.01930000  0.94130000  0.45350000  1.0 0.0773049638
H  H65  1  0.52570000  0.17470000  0.97830000  1.0 0.1440802849
H  H66  1  0.45580000  0.09020000  0.01200000  1.0 0.0981459654
H  H67  1  0.52360000  0.07180000  0.99340000  1.0 0.0706586129
H  H68  1  0.45350000  0.01930000  0.94130000  1.0 0.0773049638
H  H69  1  0.17470000  0.52570000  0.32130000  1.0 0.1440802849
H  H70  1  0.09020000  0.45580000  0.44200000  1.0 0.0981459654
H  H71  1  0.07180000  0.52360000  0.41120000  1.0 0.0706586129
H  H72  1  0.01930000  0.45350000  0.58590000  1.0 0.0773049638
H  H73  1  0.97830000  0.32130000  0.52570000  1.0 0.1440802849
H  H74  1  0.01200000  0.44200000  0.45580000  1.0 0.0981459654
H  H75  1  0.99340000  0.41120000  0.52360000  1.0 0.0706586129
H  H76  1  0.94130000  0.58590000  0.45350000  1.0 0.0773049638
H  H77  1  0.32130000  0.97830000  0.17470000  1.0 0.1440802849
H  H78  1  0.44200000  0.01200000  0.09020000  1.0 0.0981459654
H  H79  1  0.41120000  0.99340000  0.07180000  1.0 0.0706586129
H  H80  1  0.58590000  0.94130000  0.01930000  1.0 0.0773049638
H  H81  1  0.32130000  0.17470000  0.52570000  1.0 0.1440802849
H  H82  1  0.44200000  0.09020000  0.45580000  1.0 0.0981459654
H  H83  1  0.41120000  0.07180000  0.52360000  1.0 0.0706586129
H  H84  1  0.58590000  0.01930000  0.45350000  1.0 0.0773049638
H  H85  1  0.97830000  0.52570000  0.17470000  1.0 0.1440802849
H  H86  1  0.01200000  0.45580000  0.09020000  1.0 0.0981459654
H  H87  1  0.99340000  0.52360000  0.07180000  1.0 0.0706586129
H  H88  1  0.94130000  0.45350000  0.01930000  1.0 0.0773049638
H  H89  1  0.17470000  0.32130000  0.97830000  1.0 0.1440802849
H  H90  1  0.09020000  0.44200000  0.01200000  1.0 0.0981459654
H  H91  1  0.07180000  0.41120000  0.99340000  1.0 0.0706586129
H  H92  1  0.01930000  0.58590000  0.94130000  1.0 0.0773049638
H  H93  1  0.52570000  0.97830000  0.32130000  1.0 0.1440802849
H  H94  1  0.45580000  0.01200000  0.44200000  1.0 0.0981459654
H  H95  1  0.52360000  0.99340000  0.41120000  1.0 0.0706586129
H  H96  1  0.45350000  0.94130000  0.58590000  1.0 0.0773049638
H  H97  1  0.97830000  0.52570000  0.32130000  1.0 0.1440802849
H  H98  1  0.01200000  0.45580000  0.44200000  1.0 0.0981459654
H  H99  1  0.99340000  0.52360000  0.41120000  1.0 0.0706586129
H  H100  1  0.94130000  0.45350000  0.58590000  1.0 0.0773049638
H  H101  1  0.32130000  0.17470000  0.97830000  1.0 0.1440802849
H  H102  1  0.44200000  0.09020000  0.01200000  1.0 0.0981459654
H  H103  1  0.41120000  0.07180000  0.99340000  1.0 0.0706586129
H  H104  1  0.58590000  0.01930000  0.94130000  1.0 0.0773049638
H  H105  1  0.52570000  0.97830000  0.17470000  1.0 0.1440802849
H  H106  1  0.45580000  0.01200000  0.09020000  1.0 0.0981459654
H  H107  1  0.52360000  0.99340000  0.07180000  1.0 0.0706586129
H  H108  1  0.45350000  0.94130000  0.01930000  1.0 0.0773049638
H  H109  1  0.17470000  0.32130000  0.52570000  1.0 0.1440802849
H  H110  1  0.09020000  0.44200000  0.45580000  1.0 0.0981459654
H  H111  1  0.07180000  0.41120000  0.52360000  1.0 0.0706586129
H  H112  1  0.01930000  0.58590000  0.45350000  1.0 0.0773049638
H  H113  1  0.52570000  0.32130000  0.97830000  1.0 0.1440802849
H  H114  1  0.45580000  0.44200000  0.01200000  1.0 0.0981459654
H  H115  1  0.52360000  0.41120000  0.99340000  1.0 0.0706586129
H  H116  1  0.45350000  0.58590000  0.94130000  1.0 0.0773049638
H  H117  1  0.17470000  0.97830000  0.32130000  1.0 0.1440802849
H  H118  1  0.09020000  0.01200000  0.44200000  1.0 0.0981459654
H  H119  1  0.07180000  0.99340000  0.41120000  1.0 0.0706586129
H  H120  1  0.01930000  0.94130000  0.58590000  1.0 0.0773049638
H  H121  1  0.97830000  0.17470000  0.52570000  1.0 0.1440802849
H  H122  1  0.01200000  0.09020000  0.45580000  1.0 0.0981459654
H  H123  1  0.99340000  0.07180000  0.52360000  1.0 0.0706586129
H  H124  1  0.94130000  0.01930000  0.45350000  1.0 0.0773049638
H  H125  1  0.32130000  0.52570000  0.17470000  1.0 0.1440802849
H  H126  1  0.44200000  0.45580000  0.09020000  1.0 0.0981459654
H  H127  1  0.41120000  0.52360000  0.07180000  1.0 0.0706586129
H  H128  1  0.58590000  0.45350000  0.01930000  1.0 0.0773049638
H  H129  1  0.32130000  0.97830000  0.52570000  1.0 0.1440802849
H  H130  1  0.44200000  0.01200000  0.45580000  1.0 0.0981459654
H  H131  1  0.41120000  0.99340000  0.52360000  1.0 0.0706586129
H  H132  1  0.58590000  0.94130000  0.45350000  1.0 0.0773049638
H  H133  1  0.97830000  0.32130000  0.17470000  1.0 0.1440802849
H  H134  1  0.01200000  0.44200000  0.09020000  1.0 0.0981459654
H  H135  1  0.99340000  0.41120000  0.07180000  1.0 0.0706586129
H  H136  1  0.94130000  0.58590000  0.01930000  1.0 0.0773049638
H  H137  1  0.17470000  0.52570000  0.97830000  1.0 0.1440802849
H  H138  1  0.09020000  0.45580000  0.01200000  1.0 0.0981459654
H  H139  1  0.07180000  0.52360000  0.99340000  1.0 0.0706586129
H  H140  1  0.01930000  0.45350000  0.94130000  1.0 0.0773049638
H  H141  1  0.52570000  0.17470000  0.32130000  1.0 0.1440802849
H  H142  1  0.45580000  0.09020000  0.44200000  1.0 0.0981459654
H  H143  1  0.52360000  0.07180000  0.41120000  1.0 0.0706586129
H  H144  1  0.45350000  0.01930000  0.58590000  1.0 0.0773049638
H  H145  1  0.02170000  0.82530000  0.67870000  1.0 0.1440802849
H  H146  1  0.98800000  0.90980000  0.55800000  1.0 0.0981459654
H  H147  1  0.00660000  0.92820000  0.58880000  1.0 0.0706586129
H  H148  1  0.05870000  0.98070000  0.41410000  1.0 0.0773049638
H  H149  1  0.67870000  0.47430000  0.02170000  1.0 0.1440802849
H  H150  1  0.55800000  0.54420000  0.98800000  1.0 0.0981459654
H  H151  1  0.58880000  0.47640000  0.00660000  1.0 0.0706586129
H  H152  1  0.41410000  0.54650000  0.05870000  1.0 0.0773049638
H  H153  1  0.47430000  0.67870000  0.82530000  1.0 0.1440802849
H  H154  1  0.54420000  0.55800000  0.90980000  1.0 0.0981459654
H  H155  1  0.47640000  0.58880000  0.92820000  1.0 0.0706586129
H  H156  1  0.54650000  0.41410000  0.98070000  1.0 0.0773049638
H  H157  1  0.82530000  0.02170000  0.47430000  1.0 0.1440802849
H  H158  1  0.90980000  0.98800000  0.54420000  1.0 0.0981459654
H  H159  1  0.92820000  0.00660000  0.47640000  1.0 0.0706586129
H  H160  1  0.98070000  0.05870000  0.54650000  1.0 0.0773049638
H  H161  1  0.47430000  0.82530000  0.02170000  1.0 0.1440802849
H  H162  1  0.54420000  0.90980000  0.98800000  1.0 0.0981459654
H  H163  1  0.47640000  0.92820000  0.00660000  1.0 0.0706586129
H  H164  1  0.54650000  0.98070000  0.05870000  1.0 0.0773049638
H  H165  1  0.82530000  0.47430000  0.67870000  1.0 0.1440802849
H  H166  1  0.90980000  0.54420000  0.55800000  1.0 0.0981459654
H  H167  1  0.92820000  0.47640000  0.58880000  1.0 0.0706586129
H  H168  1  0.98070000  0.54650000  0.41410000  1.0 0.0773049638
H  H169  1  0.02170000  0.67870000  0.47430000  1.0 0.1440802849
H  H170  1  0.98800000  0.55800000  0.54420000  1.0 0.0981459654
H  H171  1  0.00660000  0.58880000  0.47640000  1.0 0.0706586129
H  H172  1  0.05870000  0.41410000  0.54650000  1.0 0.0773049638
H  H173  1  0.67870000  0.02170000  0.82530000  1.0 0.1440802849
H  H174  1  0.55800000  0.98800000  0.90980000  1.0 0.0981459654
H  H175  1  0.58880000  0.00660000  0.92820000  1.0 0.0706586129
H  H176  1  0.41410000  0.05870000  0.98070000  1.0 0.0773049638
H  H177  1  0.67870000  0.82530000  0.47430000  1.0 0.1440802849
H  H178  1  0.55800000  0.90980000  0.54420000  1.0 0.0981459654
H  H179  1  0.58880000  0.92820000  0.47640000  1.0 0.0706586129
H  H180  1  0.41410000  0.98070000  0.54650000  1.0 0.0773049638
H  H181  1  0.02170000  0.47430000  0.82530000  1.0 0.1440802849
H  H182  1  0.98800000  0.54420000  0.90980000  1.0 0.0981459654
H  H183  1  0.00660000  0.47640000  0.92820000  1.0 0.0706586129
H  H184  1  0.05870000  0.54650000  0.98070000  1.0 0.0773049638
H  H185  1  0.82530000  0.67870000  0.02170000  1.0 0.1440802849
H  H186  1  0.90980000  0.55800000  0.98800000  1.0 0.0981459654
H  H187  1  0.92820000  0.58880000  0.00660000  1.0 0.0706586129
H  H188  1  0.98070000  0.41410000  0.05870000  1.0 0.0773049638
H  H189  1  0.47430000  0.02170000  0.67870000  1.0 0.1440802849
H  H190  1  0.54420000  0.98800000  0.55800000  1.0 0.0981459654
H  H191  1  0.47640000  0.00660000  0.58880000  1.0 0.0706586129
H  H192  1  0.54650000  0.05870000  0.41410000  1.0 0.0773049638
H  H193  1  0.16020000  0.48500000  0.67740000  1.0 0.1512565295
H  H194  1  0.94060000  0.48020000  0.78960000  1.0 0.3668335812
H  H195  1  0.67740000  0.67740000  0.16020000  1.0 0.1512565295
H  H196  1  0.78960000  0.78960000  0.94060000  1.0 0.3668335812
H  H197  1  0.48500000  0.16020000  0.67740000  1.0 0.1512565295
H  H198  1  0.48020000  0.94060000  0.78960000  1.0 0.3668335812
H  H199  1  0.67740000  0.67740000  0.48500000  1.0 0.1512565295
H  H200  1  0.78960000  0.78960000  0.48020000  1.0 0.3668335812
H  H201  1  0.48500000  0.67740000  0.16020000  1.0 0.1512565295
H  H202  1  0.48020000  0.78960000  0.94060000  1.0 0.3668335812
H  H203  1  0.67740000  0.16020000  0.67740000  1.0 0.1512565295
H  H204  1  0.78960000  0.94060000  0.78960000  1.0 0.3668335812
H  H205  1  0.16020000  0.67740000  0.48500000  1.0 0.1512565295
H  H206  1  0.94060000  0.78960000  0.48020000  1.0 0.3668335812
H  H207  1  0.67740000  0.48500000  0.67740000  1.0 0.1512565295
H  H208  1  0.78960000  0.48020000  0.78960000  1.0 0.3668335812
H  H209  1  0.67740000  0.16020000  0.48500000  1.0 0.1512565295
H  H210  1  0.78960000  0.94060000  0.48020000  1.0 0.3668335812
H  H211  1  0.16020000  0.67740000  0.67740000  1.0 0.1512565295
H  H212  1  0.94060000  0.78960000  0.78960000  1.0 0.3668335812
H  H213  1  0.67740000  0.48500000  0.16020000  1.0 0.1512565295
H  H214  1  0.78960000  0.48020000  0.94060000  1.0 0.3668335812
H  H215  1  0.48500000  0.67740000  0.67740000  1.0 0.1512565295
H  H216  1  0.48020000  0.78960000  0.78960000  1.0 0.3668335812
H  H217  1  0.83980000  0.32260000  0.32260000  1.0 0.1512565295
H  H218  1  0.05940000  0.21040000  0.21040000  1.0 0.3668335812
H  H219  1  0.32260000  0.51500000  0.83980000  1.0 0.1512565295
H  H220  1  0.21040000  0.51980000  0.05940000  1.0 0.3668335812
H  H221  1  0.51500000  0.32260000  0.32260000  1.0 0.1512565295
H  H222  1  0.51980000  0.21040000  0.21040000  1.0 0.3668335812
H  H223  1  0.32260000  0.83980000  0.51500000  1.0 0.1512565295
H  H224  1  0.21040000  0.05940000  0.51980000  1.0 0.3668335812
H  H225  1  0.51500000  0.32260000  0.83980000  1.0 0.1512565295
H  H226  1  0.51980000  0.21040000  0.05940000  1.0 0.3668335812
H  H227  1  0.32260000  0.51500000  0.32260000  1.0 0.1512565295
H  H228  1  0.21040000  0.51980000  0.21040000  1.0 0.3668335812
H  H229  1  0.83980000  0.32260000  0.51500000  1.0 0.1512565295
H  H230  1  0.05940000  0.21040000  0.51980000  1.0 0.3668335812
H  H231  1  0.32260000  0.83980000  0.32260000  1.0 0.1512565295
H  H232  1  0.21040000  0.05940000  0.21040000  1.0 0.3668335812
H  H233  1  0.32260000  0.32260000  0.51500000  1.0 0.1512565295
H  H234  1  0.21040000  0.21040000  0.51980000  1.0 0.3668335812
H  H235  1  0.83980000  0.51500000  0.32260000  1.0 0.1512565295
H  H236  1  0.05940000  0.51980000  0.21040000  1.0 0.3668335812
H  H237  1  0.32260000  0.32260000  0.83980000  1.0 0.1512565295
H  H238  1  0.21040000  0.21040000  0.05940000  1.0 0.3668335812
H  H239  1  0.51500000  0.83980000  0.32260000  1.0 0.1512565295
H  H240  1  0.51980000  0.05940000  0.21040000  1.0 0.3668335812
C  C1  1  0.12440000  0.48380000  0.60780000  1.0 0.5692045799
C  C2  1  0.09580000  0.48100000  0.66920000  1.0 -0.0063984052
C  C3  1  0.04100000  0.47560000  0.69660000  1.0 -0.2201141688
C  C4  1  0.99570000  0.50790000  0.55550000  1.0 -0.1205822978
C  C5  1  0.60780000  0.78400000  0.12440000  1.0 0.5692045799
C  C6  1  0.66920000  0.75400000  0.09580000  1.0 -0.0063984052
C  C7  1  0.69660000  0.78680000  0.04100000  1.0 -0.2201141688
C  C8  1  0.55550000  0.94090000  0.99570000  1.0 -0.1205822978
C  C9  1  0.48380000  0.12440000  0.78400000  1.0 0.5692045799
C  C10  1  0.48100000  0.09580000  0.75400000  1.0 -0.0063984052
C  C11  1  0.47560000  0.04100000  0.78680000  1.0 -0.2201141688
C  C12  1  0.50790000  0.99570000  0.94090000  1.0 -0.1205822978
C  C13  1  0.78400000  0.60780000  0.48380000  1.0 0.5692045799
C  C14  1  0.75400000  0.66920000  0.48100000  1.0 -0.0063984052
C  C15  1  0.78680000  0.69660000  0.47560000  1.0 -0.2201141688
C  C16  1  0.94090000  0.55550000  0.50790000  1.0 -0.1205822978
C  C17  1  0.48380000  0.60780000  0.12440000  1.0 0.5692045799
C  C18  1  0.48100000  0.66920000  0.09580000  1.0 -0.0063984052
C  C19  1  0.47560000  0.69660000  0.04100000  1.0 -0.2201141688
C  C20  1  0.50790000  0.55550000  0.99570000  1.0 -0.1205822978
C  C21  1  0.78400000  0.12440000  0.60780000  1.0 0.5692045799
C  C22  1  0.75400000  0.09580000  0.66920000  1.0 -0.0063984052
C  C23  1  0.78680000  0.04100000  0.69660000  1.0 -0.2201141688
C  C24  1  0.94090000  0.99570000  0.55550000  1.0 -0.1205822978
C  C25  1  0.12440000  0.78400000  0.48380000  1.0 0.5692045799
C  C26  1  0.09580000  0.75400000  0.48100000  1.0 -0.0063984052
C  C27  1  0.04100000  0.78680000  0.47560000  1.0 -0.2201141688
C  C28  1  0.99570000  0.94090000  0.50790000  1.0 -0.1205822978
C  C29  1  0.60780000  0.48380000  0.78400000  1.0 0.5692045799
C  C30  1  0.66920000  0.48100000  0.75400000  1.0 -0.0063984052
C  C31  1  0.69660000  0.47560000  0.78680000  1.0 -0.2201141688
C  C32  1  0.55550000  0.50790000  0.94090000  1.0 -0.1205822978
C  C33  1  0.60780000  0.12440000  0.48380000  1.0 0.5692045799
C  C34  1  0.66920000  0.09580000  0.48100000  1.0 -0.0063984052
C  C35  1  0.69660000  0.04100000  0.47560000  1.0 -0.2201141688
C  C36  1  0.55550000  0.99570000  0.50790000  1.0 -0.1205822978
C  C37  1  0.12440000  0.60780000  0.78400000  1.0 0.5692045799
C  C38  1  0.09580000  0.66920000  0.75400000  1.0 -0.0063984052
C  C39  1  0.04100000  0.69660000  0.78680000  1.0 -0.2201141688
C  C40  1  0.99570000  0.55550000  0.94090000  1.0 -0.1205822978
C  C41  1  0.78400000  0.48380000  0.12440000  1.0 0.5692045799
C  C42  1  0.75400000  0.48100000  0.09580000  1.0 -0.0063984052
C  C43  1  0.78680000  0.47560000  0.04100000  1.0 -0.2201141688
C  C44  1  0.94090000  0.50790000  0.99570000  1.0 -0.1205822978
C  C45  1  0.48380000  0.78400000  0.60780000  1.0 0.5692045799
C  C46  1  0.48100000  0.75400000  0.66920000  1.0 -0.0063984052
C  C47  1  0.47560000  0.78680000  0.69660000  1.0 -0.2201141688
C  C48  1  0.50790000  0.94090000  0.55550000  1.0 -0.1205822978
C  C49  1  0.87560000  0.21600000  0.39220000  1.0 0.5692045799
C  C50  1  0.90420000  0.24600000  0.33080000  1.0 -0.0063984052
C  C51  1  0.95900000  0.21320000  0.30340000  1.0 -0.2201141688
C  C52  1  0.00430000  0.05910000  0.44450000  1.0 -0.1205822978
C  C53  1  0.39220000  0.51620000  0.87560000  1.0 0.5692045799
C  C54  1  0.33080000  0.51900000  0.90420000  1.0 -0.0063984052
C  C55  1  0.30340000  0.52440000  0.95900000  1.0 -0.2201141688
C  C56  1  0.44450000  0.49210000  0.00430000  1.0 -0.1205822978
C  C57  1  0.51620000  0.39220000  0.21600000  1.0 0.5692045799
C  C58  1  0.51900000  0.33080000  0.24600000  1.0 -0.0063984052
C  C59  1  0.52440000  0.30340000  0.21320000  1.0 -0.2201141688
C  C60  1  0.49210000  0.44450000  0.05910000  1.0 -0.1205822978
C  C61  1  0.21600000  0.87560000  0.51620000  1.0 0.5692045799
C  C62  1  0.24600000  0.90420000  0.51900000  1.0 -0.0063984052
C  C63  1  0.21320000  0.95900000  0.52440000  1.0 -0.2201141688
C  C64  1  0.05910000  0.00430000  0.49210000  1.0 -0.1205822978
C  C65  1  0.51620000  0.21600000  0.87560000  1.0 0.5692045799
C  C66  1  0.51900000  0.24600000  0.90420000  1.0 -0.0063984052
C  C67  1  0.52440000  0.21320000  0.95900000  1.0 -0.2201141688
C  C68  1  0.49210000  0.05910000  0.00430000  1.0 -0.1205822978
C  C69  1  0.21600000  0.51620000  0.39220000  1.0 0.5692045799
C  C70  1  0.24600000  0.51900000  0.33080000  1.0 -0.0063984052
C  C71  1  0.21320000  0.52440000  0.30340000  1.0 -0.2201141688
C  C72  1  0.05910000  0.49210000  0.44450000  1.0 -0.1205822978
C  C73  1  0.87560000  0.39220000  0.51620000  1.0 0.5692045799
C  C74  1  0.90420000  0.33080000  0.51900000  1.0 -0.0063984052
C  C75  1  0.95900000  0.30340000  0.52440000  1.0 -0.2201141688
C  C76  1  0.00430000  0.44450000  0.49210000  1.0 -0.1205822978
C  C77  1  0.39220000  0.87560000  0.21600000  1.0 0.5692045799
C  C78  1  0.33080000  0.90420000  0.24600000  1.0 -0.0063984052
C  C79  1  0.30340000  0.95900000  0.21320000  1.0 -0.2201141688
C  C80  1  0.44450000  0.00430000  0.05910000  1.0 -0.1205822978
C  C81  1  0.39220000  0.21600000  0.51620000  1.0 0.5692045799
C  C82  1  0.33080000  0.24600000  0.51900000  1.0 -0.0063984052
C  C83  1  0.30340000  0.21320000  0.52440000  1.0 -0.2201141688
C  C84  1  0.44450000  0.05910000  0.49210000  1.0 -0.1205822978
C  C85  1  0.87560000  0.51620000  0.21600000  1.0 0.5692045799
C  C86  1  0.90420000  0.51900000  0.24600000  1.0 -0.0063984052
C  C87  1  0.95900000  0.52440000  0.21320000  1.0 -0.2201141688
C  C88  1  0.00430000  0.49210000  0.05910000  1.0 -0.1205822978
C  C89  1  0.21600000  0.39220000  0.87560000  1.0 0.5692045799
C  C90  1  0.24600000  0.33080000  0.90420000  1.0 -0.0063984052
C  C91  1  0.21320000  0.30340000  0.95900000  1.0 -0.2201141688
C  C92  1  0.05910000  0.44450000  0.00430000  1.0 -0.1205822978
C  C93  1  0.51620000  0.87560000  0.39220000  1.0 0.5692045799
C  C94  1  0.51900000  0.90420000  0.33080000  1.0 -0.0063984052
C  C95  1  0.52440000  0.95900000  0.30340000  1.0 -0.2201141688
C  C96  1  0.49210000  0.00430000  0.44450000  1.0 -0.1205822978
C  C97  1  0.87560000  0.51620000  0.39220000  1.0 0.5692045799
C  C98  1  0.90420000  0.51900000  0.33080000  1.0 -0.0063984052
C  C99  1  0.95900000  0.52440000  0.30340000  1.0 -0.2201141688
C  C100  1  0.00430000  0.49210000  0.44450000  1.0 -0.1205822978
C  C101  1  0.39220000  0.21600000  0.87560000  1.0 0.5692045799
C  C102  1  0.33080000  0.24600000  0.90420000  1.0 -0.0063984052
C  C103  1  0.30340000  0.21320000  0.95900000  1.0 -0.2201141688
C  C104  1  0.44450000  0.05910000  0.00430000  1.0 -0.1205822978
C  C105  1  0.51620000  0.87560000  0.21600000  1.0 0.5692045799
C  C106  1  0.51900000  0.90420000  0.24600000  1.0 -0.0063984052
C  C107  1  0.52440000  0.95900000  0.21320000  1.0 -0.2201141688
C  C108  1  0.49210000  0.00430000  0.05910000  1.0 -0.1205822978
C  C109  1  0.21600000  0.39220000  0.51620000  1.0 0.5692045799
C  C110  1  0.24600000  0.33080000  0.51900000  1.0 -0.0063984052
C  C111  1  0.21320000  0.30340000  0.52440000  1.0 -0.2201141688
C  C112  1  0.05910000  0.44450000  0.49210000  1.0 -0.1205822978
C  C113  1  0.51620000  0.39220000  0.87560000  1.0 0.5692045799
C  C114  1  0.51900000  0.33080000  0.90420000  1.0 -0.0063984052
C  C115  1  0.52440000  0.30340000  0.95900000  1.0 -0.2201141688
C  C116  1  0.49210000  0.44450000  0.00430000  1.0 -0.1205822978
C  C117  1  0.21600000  0.87560000  0.39220000  1.0 0.5692045799
C  C118  1  0.24600000  0.90420000  0.33080000  1.0 -0.0063984052
C  C119  1  0.21320000  0.95900000  0.30340000  1.0 -0.2201141688
C  C120  1  0.05910000  0.00430000  0.44450000  1.0 -0.1205822978
C  C121  1  0.87560000  0.21600000  0.51620000  1.0 0.5692045799
C  C122  1  0.90420000  0.24600000  0.51900000  1.0 -0.0063984052
C  C123  1  0.95900000  0.21320000  0.52440000  1.0 -0.2201141688
C  C124  1  0.00430000  0.05910000  0.49210000  1.0 -0.1205822978
C  C125  1  0.39220000  0.51620000  0.21600000  1.0 0.5692045799
C  C126  1  0.33080000  0.51900000  0.24600000  1.0 -0.0063984052
C  C127  1  0.30340000  0.52440000  0.21320000  1.0 -0.2201141688
C  C128  1  0.44450000  0.49210000  0.05910000  1.0 -0.1205822978
C  C129  1  0.39220000  0.87560000  0.51620000  1.0 0.5692045799
C  C130  1  0.33080000  0.90420000  0.51900000  1.0 -0.0063984052
C  C131  1  0.30340000  0.95900000  0.52440000  1.0 -0.2201141688
C  C132  1  0.44450000  0.00430000  0.49210000  1.0 -0.1205822978
C  C133  1  0.87560000  0.39220000  0.21600000  1.0 0.5692045799
C  C134  1  0.90420000  0.33080000  0.24600000  1.0 -0.0063984052
C  C135  1  0.95900000  0.30340000  0.21320000  1.0 -0.2201141688
C  C136  1  0.00430000  0.44450000  0.05910000  1.0 -0.1205822978
C  C137  1  0.21600000  0.51620000  0.87560000  1.0 0.5692045799
C  C138  1  0.24600000  0.51900000  0.90420000  1.0 -0.0063984052
C  C139  1  0.21320000  0.52440000  0.95900000  1.0 -0.2201141688
C  C140  1  0.05910000  0.49210000  0.00430000  1.0 -0.1205822978
C  C141  1  0.51620000  0.21600000  0.39220000  1.0 0.5692045799
C  C142  1  0.51900000  0.24600000  0.33080000  1.0 -0.0063984052
C  C143  1  0.52440000  0.21320000  0.30340000  1.0 -0.2201141688
C  C144  1  0.49210000  0.05910000  0.44450000  1.0 -0.1205822978
C  C145  1  0.12440000  0.78400000  0.60780000  1.0 0.5692045799
C  C146  1  0.09580000  0.75400000  0.66920000  1.0 -0.0063984052
C  C147  1  0.04100000  0.78680000  0.69660000  1.0 -0.2201141688
C  C148  1  0.99570000  0.94090000  0.55550000  1.0 -0.1205822978
C  C149  1  0.60780000  0.48380000  0.12440000  1.0 0.5692045799
C  C150  1  0.66920000  0.48100000  0.09580000  1.0 -0.0063984052
C  C151  1  0.69660000  0.47560000  0.04100000  1.0 -0.2201141688
C  C152  1  0.55550000  0.50790000  0.99570000  1.0 -0.1205822978
C  C153  1  0.48380000  0.60780000  0.78400000  1.0 0.5692045799
C  C154  1  0.48100000  0.66920000  0.75400000  1.0 -0.0063984052
C  C155  1  0.47560000  0.69660000  0.78680000  1.0 -0.2201141688
C  C156  1  0.50790000  0.55550000  0.94090000  1.0 -0.1205822978
C  C157  1  0.78400000  0.12440000  0.48380000  1.0 0.5692045799
C  C158  1  0.75400000  0.09580000  0.48100000  1.0 -0.0063984052
C  C159  1  0.78680000  0.04100000  0.47560000  1.0 -0.2201141688
C  C160  1  0.94090000  0.99570000  0.50790000  1.0 -0.1205822978
C  C161  1  0.48380000  0.78400000  0.12440000  1.0 0.5692045799
C  C162  1  0.48100000  0.75400000  0.09580000  1.0 -0.0063984052
C  C163  1  0.47560000  0.78680000  0.04100000  1.0 -0.2201141688
C  C164  1  0.50790000  0.94090000  0.99570000  1.0 -0.1205822978
C  C165  1  0.78400000  0.48380000  0.60780000  1.0 0.5692045799
C  C166  1  0.75400000  0.48100000  0.66920000  1.0 -0.0063984052
C  C167  1  0.78680000  0.47560000  0.69660000  1.0 -0.2201141688
C  C168  1  0.94090000  0.50790000  0.55550000  1.0 -0.1205822978
C  C169  1  0.12440000  0.60780000  0.48380000  1.0 0.5692045799
C  C170  1  0.09580000  0.66920000  0.48100000  1.0 -0.0063984052
C  C171  1  0.04100000  0.69660000  0.47560000  1.0 -0.2201141688
C  C172  1  0.99570000  0.55550000  0.50790000  1.0 -0.1205822978
C  C173  1  0.60780000  0.12440000  0.78400000  1.0 0.5692045799
C  C174  1  0.66920000  0.09580000  0.75400000  1.0 -0.0063984052
C  C175  1  0.69660000  0.04100000  0.78680000  1.0 -0.2201141688
C  C176  1  0.55550000  0.99570000  0.94090000  1.0 -0.1205822978
C  C177  1  0.60780000  0.78400000  0.48380000  1.0 0.5692045799
C  C178  1  0.66920000  0.75400000  0.48100000  1.0 -0.0063984052
C  C179  1  0.69660000  0.78680000  0.47560000  1.0 -0.2201141688
C  C180  1  0.55550000  0.94090000  0.50790000  1.0 -0.1205822978
C  C181  1  0.12440000  0.48380000  0.78400000  1.0 0.5692045799
C  C182  1  0.09580000  0.48100000  0.75400000  1.0 -0.0063984052
C  C183  1  0.04100000  0.47560000  0.78680000  1.0 -0.2201141688
C  C184  1  0.99570000  0.50790000  0.94090000  1.0 -0.1205822978
C  C185  1  0.78400000  0.60780000  0.12440000  1.0 0.5692045799
C  C186  1  0.75400000  0.66920000  0.09580000  1.0 -0.0063984052
C  C187  1  0.78680000  0.69660000  0.04100000  1.0 -0.2201141688
C  C188  1  0.94090000  0.55550000  0.99570000  1.0 -0.1205822978
C  C189  1  0.48380000  0.12440000  0.60780000  1.0 0.5692045799
C  C190  1  0.48100000  0.09580000  0.66920000  1.0 -0.0063984052
C  C191  1  0.47560000  0.04100000  0.69660000  1.0 -0.2201141688
C  C192  1  0.50790000  0.99570000  0.55550000  1.0 -0.1205822978
C  C193  1  0.12300000  0.48260000  0.69720000  1.0 -0.1205822978
C  C194  1  0.01870000  0.47230000  0.75450000  1.0 0.2698205534
C  C195  1  0.69720000  0.69720000  0.12300000  1.0 -0.1205822978
C  C196  1  0.75450000  0.75450000  0.01870000  1.0 0.2698205534
C  C197  1  0.48260000  0.12300000  0.69720000  1.0 -0.1205822978
C  C198  1  0.47230000  0.01870000  0.75450000  1.0 0.2698205534
C  C199  1  0.69720000  0.69720000  0.48260000  1.0 -0.1205822978
C  C200  1  0.75450000  0.75450000  0.47230000  1.0 0.2698205534
C  C201  1  0.48260000  0.69720000  0.12300000  1.0 -0.1205822978
C  C202  1  0.47230000  0.75450000  0.01870000  1.0 0.2698205534
C  C203  1  0.69720000  0.12300000  0.69720000  1.0 -0.1205822978
C  C204  1  0.75450000  0.01870000  0.75450000  1.0 0.2698205534
C  C205  1  0.12300000  0.69720000  0.48260000  1.0 -0.1205822978
C  C206  1  0.01870000  0.75450000  0.47230000  1.0 0.2698205534
C  C207  1  0.69720000  0.48260000  0.69720000  1.0 -0.1205822978
C  C208  1  0.75450000  0.47230000  0.75450000  1.0 0.2698205534
C  C209  1  0.69720000  0.12300000  0.48260000  1.0 -0.1205822978
C  C210  1  0.75450000  0.01870000  0.47230000  1.0 0.2698205534
C  C211  1  0.12300000  0.69720000  0.69720000  1.0 -0.1205822978
C  C212  1  0.01870000  0.75450000  0.75450000  1.0 0.2698205534
C  C213  1  0.69720000  0.48260000  0.12300000  1.0 -0.1205822978
C  C214  1  0.75450000  0.47230000  0.01870000  1.0 0.2698205534
C  C215  1  0.48260000  0.69720000  0.69720000  1.0 -0.1205822978
C  C216  1  0.47230000  0.75450000  0.75450000  1.0 0.2698205534
C  C217  1  0.87700000  0.30280000  0.30280000  1.0 -0.1205822978
C  C218  1  0.98130000  0.24550000  0.24550000  1.0 0.2698205534
C  C219  1  0.30280000  0.51740000  0.87700000  1.0 -0.1205822978
C  C220  1  0.24550000  0.52770000  0.98130000  1.0 0.2698205534
C  C221  1  0.51740000  0.30280000  0.30280000  1.0 -0.1205822978
C  C222  1  0.52770000  0.24550000  0.24550000  1.0 0.2698205534
C  C223  1  0.30280000  0.87700000  0.51740000  1.0 -0.1205822978
C  C224  1  0.24550000  0.98130000  0.52770000  1.0 0.2698205534
C  C225  1  0.51740000  0.30280000  0.87700000  1.0 -0.1205822978
C  C226  1  0.52770000  0.24550000  0.98130000  1.0 0.2698205534
C  C227  1  0.30280000  0.51740000  0.30280000  1.0 -0.1205822978
C  C228  1  0.24550000  0.52770000  0.24550000  1.0 0.2698205534
C  C229  1  0.87700000  0.30280000  0.51740000  1.0 -0.1205822978
C  C230  1  0.98130000  0.24550000  0.52770000  1.0 0.2698205534
C  C231  1  0.30280000  0.87700000  0.30280000  1.0 -0.1205822978
C  C232  1  0.24550000  0.98130000  0.24550000  1.0 0.2698205534
C  C233  1  0.30280000  0.30280000  0.51740000  1.0 -0.1205822978
C  C234  1  0.24550000  0.24550000  0.52770000  1.0 0.2698205534
C  C235  1  0.87700000  0.51740000  0.30280000  1.0 -0.1205822978
C  C236  1  0.98130000  0.52770000  0.24550000  1.0 0.2698205534
C  C237  1  0.30280000  0.30280000  0.87700000  1.0 -0.1205822978
C  C238  1  0.24550000  0.24550000  0.98130000  1.0 0.2698205534
C  C239  1  0.51740000  0.87700000  0.30280000  1.0 -0.1205822978
C  C240  1  0.52770000  0.98130000  0.24550000  1.0 0.2698205534
C  C241  1  0.02740000  0.54980000  0.45020000  1.0 -0.1082555019
C  C242  1  0.45020000  0.97260000  0.02740000  1.0 -0.1082555019
C  C243  1  0.54980000  0.02740000  0.97260000  1.0 -0.1082555019
C  C244  1  0.97260000  0.45020000  0.54980000  1.0 -0.1082555019
C  C245  1  0.54980000  0.45020000  0.02740000  1.0 -0.1082555019
C  C246  1  0.97260000  0.02740000  0.45020000  1.0 -0.1082555019
C  C247  1  0.02740000  0.97260000  0.54980000  1.0 -0.1082555019
C  C248  1  0.45020000  0.54980000  0.97260000  1.0 -0.1082555019
C  C249  1  0.45020000  0.02740000  0.54980000  1.0 -0.1082555019
C  C250  1  0.02740000  0.45020000  0.97260000  1.0 -0.1082555019
C  C251  1  0.97260000  0.54980000  0.02740000  1.0 -0.1082555019
C  C252  1  0.54980000  0.97260000  0.45020000  1.0 -0.1082555019
C  C253  1  0.97260000  0.02740000  0.54980000  1.0 -0.1082555019
C  C254  1  0.54980000  0.45020000  0.97260000  1.0 -0.1082555019
C  C255  1  0.45020000  0.54980000  0.02740000  1.0 -0.1082555019
C  C256  1  0.02740000  0.97260000  0.45020000  1.0 -0.1082555019
C  C257  1  0.45020000  0.02740000  0.97260000  1.0 -0.1082555019
C  C258  1  0.02740000  0.45020000  0.54980000  1.0 -0.1082555019
C  C259  1  0.97260000  0.54980000  0.45020000  1.0 -0.1082555019
C  C260  1  0.54980000  0.97260000  0.02740000  1.0 -0.1082555019
C  C261  1  0.54980000  0.02740000  0.45020000  1.0 -0.1082555019
C  C262  1  0.97260000  0.45020000  0.02740000  1.0 -0.1082555019
C  C263  1  0.02740000  0.54980000  0.97260000  1.0 -0.1082555019
C  C264  1  0.45020000  0.97260000  0.54980000  1.0 -0.1082555019
N  N1  1  0.04440000  0.50000000  0.50000000  1.0 -0.070375378
N  N2  1  0.50000000  0.95560000  0.04440000  1.0 -0.070375378
N  N3  1  0.50000000  0.04440000  0.95560000  1.0 -0.070375378
N  N4  1  0.95560000  0.50000000  0.50000000  1.0 -0.070375378
N  N5  1  0.50000000  0.50000000  0.04440000  1.0 -0.070375378
N  N6  1  0.95560000  0.04440000  0.50000000  1.0 -0.070375378
N  N7  1  0.04440000  0.95560000  0.50000000  1.0 -0.070375378
N  N8  1  0.50000000  0.50000000  0.95560000  1.0 -0.070375378
N  N9  1  0.50000000  0.04440000  0.50000000  1.0 -0.070375378
N  N10  1  0.04440000  0.50000000  0.95560000  1.0 -0.070375378
N  N11  1  0.95560000  0.50000000  0.04440000  1.0 -0.070375378
N  N12  1  0.50000000  0.95560000  0.50000000  1.0 -0.070375378
O  O1  1  0.09620000  0.48560000  0.58380000  1.0 -0.5134481491
O  O2  1  0.17570000  0.48550000  0.58342000  1.0 -0.5023235394
O  O3  1  0.58380000  0.83440000  0.09620000  1.0 -0.5134481491
O  O4  1  0.58342000  0.75538000  0.17570000  1.0 -0.5023235394
O  O5  1  0.48560000  0.09620000  0.83440000  1.0 -0.5134481491
O  O6  1  0.48550000  0.17570000  0.75538000  1.0 -0.5023235394
O  O7  1  0.83440000  0.58380000  0.48560000  1.0 -0.5134481491
O  O8  1  0.75538000  0.58342000  0.48550000  1.0 -0.5023235394
O  O9  1  0.48560000  0.58380000  0.09620000  1.0 -0.5134481491
O  O10  1  0.48550000  0.58342000  0.17570000  1.0 -0.5023235394
O  O11  1  0.83440000  0.09620000  0.58380000  1.0 -0.5134481491
O  O12  1  0.75538000  0.17570000  0.58342000  1.0 -0.5023235394
O  O13  1  0.09620000  0.83440000  0.48560000  1.0 -0.5134481491
O  O14  1  0.17570000  0.75538000  0.48550000  1.0 -0.5023235394
O  O15  1  0.58380000  0.48560000  0.83440000  1.0 -0.5134481491
O  O16  1  0.58342000  0.48550000  0.75538000  1.0 -0.5023235394
O  O17  1  0.58380000  0.09620000  0.48560000  1.0 -0.5134481491
O  O18  1  0.58342000  0.17570000  0.48550000  1.0 -0.5023235394
O  O19  1  0.09620000  0.58380000  0.83440000  1.0 -0.5134481491
O  O20  1  0.17570000  0.58342000  0.75538000  1.0 -0.5023235394
O  O21  1  0.83440000  0.48560000  0.09620000  1.0 -0.5134481491
O  O22  1  0.75538000  0.48550000  0.17570000  1.0 -0.5023235394
O  O23  1  0.48560000  0.83440000  0.58380000  1.0 -0.5134481491
O  O24  1  0.48550000  0.75538000  0.58342000  1.0 -0.5023235394
O  O25  1  0.90380000  0.16560000  0.41620000  1.0 -0.5134481491
O  O26  1  0.82430000  0.24462000  0.41658000  1.0 -0.5023235394
O  O27  1  0.41620000  0.51440000  0.90380000  1.0 -0.5134481491
O  O28  1  0.41658000  0.51450000  0.82430000  1.0 -0.5023235394
O  O29  1  0.51440000  0.41620000  0.16560000  1.0 -0.5134481491
O  O30  1  0.51450000  0.41658000  0.24462000  1.0 -0.5023235394
O  O31  1  0.16560000  0.90380000  0.51440000  1.0 -0.5134481491
O  O32  1  0.24462000  0.82430000  0.51450000  1.0 -0.5023235394
O  O33  1  0.51440000  0.16560000  0.90380000  1.0 -0.5134481491
O  O34  1  0.51450000  0.24462000  0.82430000  1.0 -0.5023235394
O  O35  1  0.16560000  0.51440000  0.41620000  1.0 -0.5134481491
O  O36  1  0.24462000  0.51450000  0.41658000  1.0 -0.5023235394
O  O37  1  0.90380000  0.41620000  0.51440000  1.0 -0.5134481491
O  O38  1  0.82430000  0.41658000  0.51450000  1.0 -0.5023235394
O  O39  1  0.41620000  0.90380000  0.16560000  1.0 -0.5134481491
O  O40  1  0.41658000  0.82430000  0.24462000  1.0 -0.5023235394
O  O41  1  0.41620000  0.16560000  0.51440000  1.0 -0.5134481491
O  O42  1  0.41658000  0.24462000  0.51450000  1.0 -0.5023235394
O  O43  1  0.90380000  0.51440000  0.16560000  1.0 -0.5134481491
O  O44  1  0.82430000  0.51450000  0.24462000  1.0 -0.5023235394
O  O45  1  0.16560000  0.41620000  0.90380000  1.0 -0.5134481491
O  O46  1  0.24462000  0.41658000  0.82430000  1.0 -0.5023235394
O  O47  1  0.51440000  0.90380000  0.41620000  1.0 -0.5134481491
O  O48  1  0.51450000  0.82430000  0.41658000  1.0 -0.5023235394
O  O49  1  0.90380000  0.51440000  0.41620000  1.0 -0.5134481491
O  O50  1  0.82430000  0.51450000  0.41658000  1.0 -0.5023235394
O  O51  1  0.41620000  0.16560000  0.90380000  1.0 -0.5134481491
O  O52  1  0.41658000  0.24462000  0.82430000  1.0 -0.5023235394
O  O53  1  0.51440000  0.90380000  0.16560000  1.0 -0.5134481491
O  O54  1  0.51450000  0.82430000  0.24462000  1.0 -0.5023235394
O  O55  1  0.16560000  0.41620000  0.51440000  1.0 -0.5134481491
O  O56  1  0.24462000  0.41658000  0.51450000  1.0 -0.5023235394
O  O57  1  0.51440000  0.41620000  0.90380000  1.0 -0.5134481491
O  O58  1  0.51450000  0.41658000  0.82430000  1.0 -0.5023235394
O  O59  1  0.16560000  0.90380000  0.41620000  1.0 -0.5134481491
O  O60  1  0.24462000  0.82430000  0.41658000  1.0 -0.5023235394
O  O61  1  0.90380000  0.16560000  0.51440000  1.0 -0.5134481491
O  O62  1  0.82430000  0.24462000  0.51450000  1.0 -0.5023235394
O  O63  1  0.41620000  0.51440000  0.16560000  1.0 -0.5134481491
O  O64  1  0.41658000  0.51450000  0.24462000  1.0 -0.5023235394
O  O65  1  0.41620000  0.90380000  0.51440000  1.0 -0.5134481491
O  O66  1  0.41658000  0.82430000  0.51450000  1.0 -0.5023235394
O  O67  1  0.90380000  0.41620000  0.16560000  1.0 -0.5134481491
O  O68  1  0.82430000  0.41658000  0.24462000  1.0 -0.5023235394
O  O69  1  0.16560000  0.51440000  0.90380000  1.0 -0.5134481491
O  O70  1  0.24462000  0.51450000  0.82430000  1.0 -0.5023235394
O  O71  1  0.51440000  0.16560000  0.41620000  1.0 -0.5134481491
O  O72  1  0.51450000  0.24462000  0.41658000  1.0 -0.5023235394
O  O73  1  0.09620000  0.83440000  0.58380000  1.0 -0.5134481491
O  O74  1  0.17570000  0.75538000  0.58342000  1.0 -0.5023235394
O  O75  1  0.58380000  0.48560000  0.09620000  1.0 -0.5134481491
O  O76  1  0.58342000  0.48550000  0.17570000  1.0 -0.5023235394
O  O77  1  0.48560000  0.58380000  0.83440000  1.0 -0.5134481491
O  O78  1  0.48550000  0.58342000  0.75538000  1.0 -0.5023235394
O  O79  1  0.83440000  0.09620000  0.48560000  1.0 -0.5134481491
O  O80  1  0.75538000  0.17570000  0.48550000  1.0 -0.5023235394
O  O81  1  0.48560000  0.83440000  0.09620000  1.0 -0.5134481491
O  O82  1  0.48550000  0.75538000  0.17570000  1.0 -0.5023235394
O  O83  1  0.83440000  0.48560000  0.58380000  1.0 -0.5134481491
O  O84  1  0.75538000  0.48550000  0.58342000  1.0 -0.5023235394
O  O85  1  0.09620000  0.58380000  0.48560000  1.0 -0.5134481491
O  O86  1  0.17570000  0.58342000  0.48550000  1.0 -0.5023235394
O  O87  1  0.58380000  0.09620000  0.83440000  1.0 -0.5134481491
O  O88  1  0.58342000  0.17570000  0.75538000  1.0 -0.5023235394
O  O89  1  0.58380000  0.83440000  0.48560000  1.0 -0.5134481491
O  O90  1  0.58342000  0.75538000  0.48550000  1.0 -0.5023235394
O  O91  1  0.09620000  0.48560000  0.83440000  1.0 -0.5134481491
O  O92  1  0.17570000  0.48550000  0.75538000  1.0 -0.5023235394
O  O93  1  0.83440000  0.58380000  0.09620000  1.0 -0.5134481491
O  O94  1  0.75538000  0.58342000  0.17570000  1.0 -0.5023235394
O  O95  1  0.48560000  0.09620000  0.58380000  1.0 -0.5134481491
O  O96  1  0.48550000  0.17570000  0.58342000  1.0 -0.5023235394
O  O97  1  0.97070000  0.45230000  0.78850000  1.0 -0.455658164
O  O98  1  0.78850000  0.78850000  0.97070000  1.0 -0.4533968785
O  O99  1  0.45230000  0.97070000  0.78850000  1.0 -0.4533968785
O  O100  1  0.78850000  0.78850000  0.45230000  1.0 -0.4533968785
O  O101  1  0.45230000  0.78850000  0.97070000  1.0 -0.4533968785
O  O102  1  0.78850000  0.97070000  0.78850000  1.0 -0.4533968785
O  O103  1  0.97070000  0.78850000  0.45230000  1.0 -0.4533968785
O  O104  1  0.78850000  0.45230000  0.78850000  1.0 -0.455658164
O  O105  1  0.78850000  0.97070000  0.45230000  1.0 -0.4533968785
O  O106  1  0.97070000  0.78850000  0.78850000  1.0 -0.4533968785
O  O107  1  0.78850000  0.45230000  0.97070000  1.0 -0.4533968785
O  O108  1  0.45230000  0.78850000  0.78850000  1.0 -0.4533968785
O  O109  1  0.02930000  0.21150000  0.21150000  1.0 -0.4533968785
O  O110  1  0.21150000  0.54770000  0.02930000  1.0 -0.4533968785
O  O111  1  0.54770000  0.21150000  0.21150000  1.0 -0.4533968785
O  O112  1  0.21150000  0.02930000  0.54770000  1.0 -0.4533968785
O  O113  1  0.54770000  0.21150000  0.02930000  1.0 -0.455658164
O  O114  1  0.21150000  0.54770000  0.21150000  1.0 -0.4533968785
O  O115  1  0.02930000  0.21150000  0.54770000  1.0 -0.4533968785
O  O116  1  0.21150000  0.02930000  0.21150000  1.0 -0.4533968785
O  O117  1  0.21150000  0.21150000  0.54770000  1.0 -0.4533968785
O  O118  1  0.02930000  0.54770000  0.21150000  1.0 -0.4533968785
O  O119  1  0.21150000  0.21150000  0.02930000  1.0 -0.4533968785
O  O120  1  0.54770000  0.02930000  0.21150000  1.0 -0.455658164
