# DDEC6 charges by PACMAN v1.1 (https://github.com/mtap-research/PACMAN-charge/)
data_RANWAH_ASR_pacman
_symmetry_space_group_name_H-M   'P 1'
_cell_length_a   27.71900000
_cell_length_b   27.71900000
_cell_length_c   27.71900000
_cell_angle_alpha   60.00000000
_cell_angle_beta   60.00000000
_cell_angle_gamma   60.00000000
_symmetry_Int_Tables_number   1
_chemical_formula_structural   MnH2C10(SO2)2
_chemical_formula_sum   'Mn24 H48 C240 S48 O96'
_cell_volume   15059.74705844
_cell_formula_units_Z   24
loop_
 _symmetry_equiv_pos_site_id
 _symmetry_equiv_pos_as_xyz
  1  'x, y, z'
loop_
 _atom_site_type_symbol
 _atom_site_label
 _atom_site_symmetry_multiplicity
 _atom_site_fract_x
 _atom_site_fract_y
 _atom_site_fract_z
 _atom_site_occupancy
 _atom_site_charge
Mn  Mn1  1  0.58777000  0.95549000  0.41223000  1.0 1.0385101776
Mn  Mn2  1  0.45549000  0.08777000  0.91223000  1.0 1.0385101776
Mn  Mn3  1  0.95549000  0.58777000  0.04451000  1.0 1.0385101776
Mn  Mn4  1  0.08777000  0.45549000  0.54451000  1.0 1.0385101776
Mn  Mn5  1  0.54451000  0.45549000  0.91223000  1.0 1.0385101776
Mn  Mn6  1  0.04451000  0.41223000  0.95549000  1.0 1.0385101776
Mn  Mn7  1  0.08777000  0.91223000  0.45549000  1.0 1.0385101776
Mn  Mn8  1  0.54451000  0.08777000  0.45549000  1.0 1.0385101776
Mn  Mn9  1  0.41223000  0.04451000  0.58777000  1.0 1.0385101776
Mn  Mn10  1  0.45549000  0.91223000  0.54451000  1.0 1.0385101776
Mn  Mn11  1  0.41223000  0.58777000  0.95549000  1.0 1.0385101776
Mn  Mn12  1  0.95549000  0.41223000  0.58777000  1.0 1.0385101776
Mn  Mn13  1  0.41223000  0.95549000  0.04451000  1.0 1.0385101776
Mn  Mn14  1  0.04451000  0.95549000  0.58777000  1.0 1.0385101776
Mn  Mn15  1  0.58777000  0.04451000  0.95549000  1.0 1.0385101776
Mn  Mn16  1  0.58777000  0.41223000  0.04451000  1.0 1.0385101776
Mn  Mn17  1  0.95549000  0.04451000  0.41223000  1.0 1.0385101776
Mn  Mn18  1  0.04451000  0.58777000  0.41223000  1.0 1.0385101776
Mn  Mn19  1  0.91223000  0.54451000  0.45549000  1.0 1.0385101776
Mn  Mn20  1  0.54451000  0.91223000  0.08777000  1.0 1.0385101776
Mn  Mn21  1  0.45549000  0.54451000  0.08777000  1.0 1.0385101776
Mn  Mn22  1  0.91223000  0.08777000  0.54451000  1.0 1.0385101776
Mn  Mn23  1  0.91223000  0.45549000  0.08777000  1.0 1.0385101776
Mn  Mn24  1  0.08777000  0.54451000  0.91223000  1.0 1.0385101776
H  H1  1  0.53500000  0.78860000  0.62320000  1.0 0.1410518046
H  H2  1  0.44680000  0.87680000  0.96500000  1.0 0.1410518046
H  H3  1  0.78860000  0.53500000  0.05320000  1.0 0.1410518046
H  H4  1  0.87680000  0.44680000  0.71140000  1.0 0.1410518046
H  H5  1  0.71140000  0.44680000  0.96500000  1.0 0.1410518046
H  H6  1  0.05320000  0.62320000  0.78860000  1.0 0.1410518046
H  H7  1  0.87680000  0.96500000  0.44680000  1.0 0.1410518046
H  H8  1  0.71140000  0.87680000  0.44680000  1.0 0.1410518046
H  H9  1  0.62320000  0.05320000  0.53500000  1.0 0.1410518046
H  H10  1  0.44680000  0.96500000  0.71140000  1.0 0.1410518046
H  H11  1  0.62320000  0.53500000  0.78860000  1.0 0.1410518046
H  H12  1  0.78860000  0.62320000  0.53500000  1.0 0.1410518046
H  H13  1  0.62320000  0.78860000  0.05320000  1.0 0.1410518046
H  H14  1  0.05320000  0.78860000  0.53500000  1.0 0.1410518046
H  H15  1  0.53500000  0.05320000  0.78860000  1.0 0.1410518046
H  H16  1  0.53500000  0.62320000  0.05320000  1.0 0.1410518046
H  H17  1  0.78860000  0.05320000  0.62320000  1.0 0.1410518046
H  H18  1  0.05320000  0.53500000  0.62320000  1.0 0.1410518046
H  H19  1  0.96500000  0.71140000  0.44680000  1.0 0.1410518046
H  H20  1  0.71140000  0.96500000  0.87680000  1.0 0.1410518046
H  H21  1  0.44680000  0.71140000  0.87680000  1.0 0.1410518046
H  H22  1  0.96500000  0.87680000  0.71140000  1.0 0.1410518046
H  H23  1  0.96500000  0.44680000  0.87680000  1.0 0.1410518046
H  H24  1  0.87680000  0.71140000  0.96500000  1.0 0.1410518046
H  H25  1  0.46500000  0.21140000  0.37680000  1.0 0.1410518046
H  H26  1  0.55320000  0.12320000  0.03500000  1.0 0.1410518046
H  H27  1  0.21140000  0.46500000  0.94680000  1.0 0.1410518046
H  H28  1  0.12320000  0.55320000  0.28860000  1.0 0.1410518046
H  H29  1  0.28860000  0.55320000  0.03500000  1.0 0.1410518046
H  H30  1  0.94680000  0.37680000  0.21140000  1.0 0.1410518046
H  H31  1  0.12320000  0.03500000  0.55320000  1.0 0.1410518046
H  H32  1  0.28860000  0.12320000  0.55320000  1.0 0.1410518046
H  H33  1  0.37680000  0.94680000  0.46500000  1.0 0.1410518046
H  H34  1  0.55320000  0.03500000  0.28860000  1.0 0.1410518046
H  H35  1  0.37680000  0.46500000  0.21140000  1.0 0.1410518046
H  H36  1  0.21140000  0.37680000  0.46500000  1.0 0.1410518046
H  H37  1  0.37680000  0.21140000  0.94680000  1.0 0.1410518046
H  H38  1  0.94680000  0.21140000  0.46500000  1.0 0.1410518046
H  H39  1  0.46500000  0.94680000  0.21140000  1.0 0.1410518046
H  H40  1  0.46500000  0.37680000  0.94680000  1.0 0.1410518046
H  H41  1  0.21140000  0.94680000  0.37680000  1.0 0.1410518046
H  H42  1  0.94680000  0.46500000  0.37680000  1.0 0.1410518046
H  H43  1  0.03500000  0.28860000  0.55320000  1.0 0.1410518046
H  H44  1  0.28860000  0.03500000  0.12320000  1.0 0.1410518046
H  H45  1  0.55320000  0.28860000  0.12320000  1.0 0.1410518046
H  H46  1  0.03500000  0.12320000  0.28860000  1.0 0.1410518046
H  H47  1  0.03500000  0.55320000  0.12320000  1.0 0.1410518046
H  H48  1  0.12320000  0.28860000  0.03500000  1.0 0.1410518046
C  C1  1  0.59494000  0.85014000  0.50290000  1.0 0.5887597976
C  C2  1  0.44798000  0.99710000  0.90506000  1.0 0.5887597976
C  C3  1  0.85014000  0.59494000  0.05202000  1.0 0.5887597976
C  C4  1  0.99710000  0.44798000  0.64986000  1.0 0.5887597976
C  C5  1  0.64986000  0.44798000  0.90506000  1.0 0.5887597976
C  C6  1  0.05202000  0.50290000  0.85014000  1.0 0.5887597976
C  C7  1  0.99710000  0.90506000  0.44798000  1.0 0.5887597976
C  C8  1  0.64986000  0.99710000  0.44798000  1.0 0.5887597976
C  C9  1  0.50290000  0.05202000  0.59494000  1.0 0.5887597976
C  C10  1  0.44798000  0.90506000  0.64986000  1.0 0.5887597976
C  C11  1  0.50290000  0.59494000  0.85014000  1.0 0.5887597976
C  C12  1  0.85014000  0.50290000  0.59494000  1.0 0.5887597976
C  C13  1  0.50290000  0.85014000  0.05202000  1.0 0.5887597976
C  C14  1  0.05202000  0.85014000  0.59494000  1.0 0.5887597976
C  C15  1  0.59494000  0.05202000  0.85014000  1.0 0.5887597976
C  C16  1  0.59494000  0.50290000  0.05202000  1.0 0.5887597976
C  C17  1  0.85014000  0.05202000  0.50290000  1.0 0.5887597976
C  C18  1  0.05202000  0.59494000  0.50290000  1.0 0.5887597976
C  C19  1  0.90506000  0.64986000  0.44798000  1.0 0.5887597976
C  C20  1  0.64986000  0.90506000  0.99710000  1.0 0.5887597976
C  C21  1  0.44798000  0.64986000  0.99710000  1.0 0.5887597976
C  C22  1  0.90506000  0.99710000  0.64986000  1.0 0.5887597976
C  C23  1  0.90506000  0.44798000  0.99710000  1.0 0.5887597976
C  C24  1  0.99710000  0.64986000  0.90506000  1.0 0.5887597976
C  C25  1  0.40506000  0.14986000  0.49710000  1.0 0.5887597976
C  C26  1  0.55202000  0.00290000  0.09494000  1.0 0.5887597976
C  C27  1  0.14986000  0.40506000  0.94798000  1.0 0.5887597976
C  C28  1  0.00290000  0.55202000  0.35014000  1.0 0.5887597976
C  C29  1  0.35014000  0.55202000  0.09494000  1.0 0.5887597976
C  C30  1  0.94798000  0.49710000  0.14986000  1.0 0.5887597976
C  C31  1  0.00290000  0.09494000  0.55202000  1.0 0.5887597976
C  C32  1  0.35014000  0.00290000  0.55202000  1.0 0.5887597976
C  C33  1  0.49710000  0.94798000  0.40506000  1.0 0.5887597976
C  C34  1  0.55202000  0.09494000  0.35014000  1.0 0.5887597976
C  C35  1  0.49710000  0.40506000  0.14986000  1.0 0.5887597976
C  C36  1  0.14986000  0.49710000  0.40506000  1.0 0.5887597976
C  C37  1  0.49710000  0.14986000  0.94798000  1.0 0.5887597976
C  C38  1  0.94798000  0.14986000  0.40506000  1.0 0.5887597976
C  C39  1  0.40506000  0.94798000  0.14986000  1.0 0.5887597976
C  C40  1  0.40506000  0.49710000  0.94798000  1.0 0.5887597976
C  C41  1  0.14986000  0.94798000  0.49710000  1.0 0.5887597976
C  C42  1  0.94798000  0.40506000  0.49710000  1.0 0.5887597976
C  C43  1  0.09494000  0.35014000  0.55202000  1.0 0.5887597976
C  C44  1  0.35014000  0.09494000  0.00290000  1.0 0.5887597976
C  C45  1  0.55202000  0.35014000  0.00290000  1.0 0.5887597976
C  C46  1  0.09494000  0.00290000  0.35014000  1.0 0.5887597976
C  C47  1  0.09494000  0.55202000  0.00290000  1.0 0.5887597976
C  C48  1  0.00290000  0.35014000  0.09494000  1.0 0.5887597976
C  C49  1  0.61096000  0.78888000  0.54416000  1.0 -0.0991049661
C  C50  1  0.44400000  0.95584000  0.88904000  1.0 -0.0991049661
C  C51  1  0.78888000  0.61096000  0.05600000  1.0 -0.0991049661
C  C52  1  0.95584000  0.44400000  0.71112000  1.0 -0.0991049661
C  C53  1  0.71112000  0.44400000  0.88904000  1.0 -0.0991049661
C  C54  1  0.05600000  0.54416000  0.78888000  1.0 -0.0991049661
C  C55  1  0.95584000  0.88904000  0.44400000  1.0 -0.0991049661
C  C56  1  0.71112000  0.95584000  0.44400000  1.0 -0.0991049661
C  C57  1  0.54416000  0.05600000  0.61096000  1.0 -0.0991049661
C  C58  1  0.44400000  0.88904000  0.71112000  1.0 -0.0991049661
C  C59  1  0.54416000  0.61096000  0.78888000  1.0 -0.0991049661
C  C60  1  0.78888000  0.54416000  0.61096000  1.0 -0.0991049661
C  C61  1  0.54416000  0.78888000  0.05600000  1.0 -0.0991049661
C  C62  1  0.05600000  0.78888000  0.61096000  1.0 -0.0991049661
C  C63  1  0.61096000  0.05600000  0.78888000  1.0 -0.0991049661
C  C64  1  0.61096000  0.54416000  0.05600000  1.0 -0.0991049661
C  C65  1  0.78888000  0.05600000  0.54416000  1.0 -0.0991049661
C  C66  1  0.05600000  0.61096000  0.54416000  1.0 -0.0991049661
C  C67  1  0.88904000  0.71112000  0.44400000  1.0 -0.0991049661
C  C68  1  0.71112000  0.88904000  0.95584000  1.0 -0.0991049661
C  C69  1  0.44400000  0.71112000  0.95584000  1.0 -0.0991049661
C  C70  1  0.88904000  0.95584000  0.71112000  1.0 -0.0991049661
C  C71  1  0.88904000  0.44400000  0.95584000  1.0 -0.0991049661
C  C72  1  0.95584000  0.71112000  0.88904000  1.0 -0.0991049661
C  C73  1  0.38904000  0.21112000  0.45584000  1.0 -0.0991049661
C  C74  1  0.55600000  0.04416000  0.11096000  1.0 -0.0991049661
C  C75  1  0.21112000  0.38904000  0.94400000  1.0 -0.0991049661
C  C76  1  0.04416000  0.55600000  0.28888000  1.0 -0.0991049661
C  C77  1  0.28888000  0.55600000  0.11096000  1.0 -0.0991049661
C  C78  1  0.94400000  0.45584000  0.21112000  1.0 -0.0991049661
C  C79  1  0.04416000  0.11096000  0.55600000  1.0 -0.0991049661
C  C80  1  0.28888000  0.04416000  0.55600000  1.0 -0.0991049661
C  C81  1  0.45584000  0.94400000  0.38904000  1.0 -0.0991049661
C  C82  1  0.55600000  0.11096000  0.28888000  1.0 -0.0991049661
C  C83  1  0.45584000  0.38904000  0.21112000  1.0 -0.0991049661
C  C84  1  0.21112000  0.45584000  0.38904000  1.0 -0.0991049661
C  C85  1  0.45584000  0.21112000  0.94400000  1.0 -0.0991049661
C  C86  1  0.94400000  0.21112000  0.38904000  1.0 -0.0991049661
C  C87  1  0.38904000  0.94400000  0.21112000  1.0 -0.0991049661
C  C88  1  0.38904000  0.45584000  0.94400000  1.0 -0.0991049661
C  C89  1  0.21112000  0.94400000  0.45584000  1.0 -0.0991049661
C  C90  1  0.94400000  0.38904000  0.45584000  1.0 -0.0991049661
C  C91  1  0.11096000  0.28888000  0.55600000  1.0 -0.0991049661
C  C92  1  0.28888000  0.11096000  0.04416000  1.0 -0.0991049661
C  C93  1  0.55600000  0.28888000  0.04416000  1.0 -0.0991049661
C  C94  1  0.11096000  0.04416000  0.28888000  1.0 -0.0991049661
C  C95  1  0.11096000  0.55600000  0.04416000  1.0 -0.0991049661
C  C96  1  0.04416000  0.28888000  0.11096000  1.0 -0.0991049661
C  C97  1  0.57375000  0.76711000  0.60379000  1.0 -0.1815582583
C  C98  1  0.44465000  0.89621000  0.92625000  1.0 -0.1815582583
C  C99  1  0.76711000  0.57375000  0.05535000  1.0 -0.1815582583
C  C100  1  0.89621000  0.44465000  0.73289000  1.0 -0.1815582583
C  C101  1  0.73289000  0.44465000  0.92625000  1.0 -0.1815582583
C  C102  1  0.05535000  0.60379000  0.76711000  1.0 -0.1815582583
C  C103  1  0.89621000  0.92625000  0.44465000  1.0 -0.1815582583
C  C104  1  0.73289000  0.89621000  0.44465000  1.0 -0.1815582583
C  C105  1  0.60379000  0.05535000  0.57375000  1.0 -0.1815582583
C  C106  1  0.44465000  0.92625000  0.73289000  1.0 -0.1815582583
C  C107  1  0.60379000  0.57375000  0.76711000  1.0 -0.1815582583
C  C108  1  0.76711000  0.60379000  0.57375000  1.0 -0.1815582583
C  C109  1  0.60379000  0.76711000  0.05535000  1.0 -0.1815582583
C  C110  1  0.05535000  0.76711000  0.57375000  1.0 -0.1815582583
C  C111  1  0.57375000  0.05535000  0.76711000  1.0 -0.1815582583
C  C112  1  0.57375000  0.60379000  0.05535000  1.0 -0.1815582583
C  C113  1  0.76711000  0.05535000  0.60379000  1.0 -0.1815582583
C  C114  1  0.05535000  0.57375000  0.60379000  1.0 -0.1815582583
C  C115  1  0.92625000  0.73289000  0.44465000  1.0 -0.1815582583
C  C116  1  0.73289000  0.92625000  0.89621000  1.0 -0.1815582583
C  C117  1  0.44465000  0.73289000  0.89621000  1.0 -0.1815582583
C  C118  1  0.92625000  0.89621000  0.73289000  1.0 -0.1815582583
C  C119  1  0.92625000  0.44465000  0.89621000  1.0 -0.1815582583
C  C120  1  0.89621000  0.73289000  0.92625000  1.0 -0.1815582583
C  C121  1  0.42625000  0.23289000  0.39621000  1.0 -0.1815582583
C  C122  1  0.55535000  0.10379000  0.07375000  1.0 -0.1815582583
C  C123  1  0.23289000  0.42625000  0.94465000  1.0 -0.1815582583
C  C124  1  0.10379000  0.55535000  0.26711000  1.0 -0.1815582583
C  C125  1  0.26711000  0.55535000  0.07375000  1.0 -0.1815582583
C  C126  1  0.94465000  0.39621000  0.23289000  1.0 -0.1815582583
C  C127  1  0.10379000  0.07375000  0.55535000  1.0 -0.1815582583
C  C128  1  0.26711000  0.10379000  0.55535000  1.0 -0.1815582583
C  C129  1  0.39621000  0.94465000  0.42625000  1.0 -0.1815582583
C  C130  1  0.55535000  0.07375000  0.26711000  1.0 -0.1815582583
C  C131  1  0.39621000  0.42625000  0.23289000  1.0 -0.1815582583
C  C132  1  0.23289000  0.39621000  0.42625000  1.0 -0.1815582583
C  C133  1  0.39621000  0.23289000  0.94465000  1.0 -0.1815582583
C  C134  1  0.94465000  0.23289000  0.42625000  1.0 -0.1815582583
C  C135  1  0.42625000  0.94465000  0.23289000  1.0 -0.1815582583
C  C136  1  0.42625000  0.39621000  0.94465000  1.0 -0.1815582583
C  C137  1  0.23289000  0.94465000  0.39621000  1.0 -0.1815582583
C  C138  1  0.94465000  0.42625000  0.39621000  1.0 -0.1815582583
C  C139  1  0.07375000  0.26711000  0.55535000  1.0 -0.1815582583
C  C140  1  0.26711000  0.07375000  0.10379000  1.0 -0.1815582583
C  C141  1  0.55535000  0.26711000  0.10379000  1.0 -0.1815582583
C  C142  1  0.07375000  0.10379000  0.26711000  1.0 -0.1815582583
C  C143  1  0.07375000  0.55535000  0.10379000  1.0 -0.1815582583
C  C144  1  0.10379000  0.26711000  0.07375000  1.0 -0.1815582583
C  C145  1  0.60792000  0.70500000  0.62836000  1.0 0.0369416506
C  C146  1  0.44128000  0.87164000  0.89208000  1.0 0.0369416506
C  C147  1  0.70500000  0.60792000  0.05872000  1.0 0.0369416506
C  C148  1  0.87164000  0.44128000  0.79500000  1.0 0.0369416506
C  C149  1  0.79500000  0.44128000  0.89208000  1.0 0.0369416506
C  C150  1  0.05872000  0.62836000  0.70500000  1.0 0.0369416506
C  C151  1  0.87164000  0.89208000  0.44128000  1.0 0.0369416506
C  C152  1  0.79500000  0.87164000  0.44128000  1.0 0.0369416506
C  C153  1  0.62836000  0.05872000  0.60792000  1.0 0.0369416506
C  C154  1  0.44128000  0.89208000  0.79500000  1.0 0.0369416506
C  C155  1  0.62836000  0.60792000  0.70500000  1.0 0.0369416506
C  C156  1  0.70500000  0.62836000  0.60792000  1.0 0.0369416506
C  C157  1  0.62836000  0.70500000  0.05872000  1.0 0.0369416506
C  C158  1  0.05872000  0.70500000  0.60792000  1.0 0.0369416506
C  C159  1  0.60792000  0.05872000  0.70500000  1.0 0.0369416506
C  C160  1  0.60792000  0.62836000  0.05872000  1.0 0.0369416506
C  C161  1  0.70500000  0.05872000  0.62836000  1.0 0.0369416506
C  C162  1  0.05872000  0.60792000  0.62836000  1.0 0.0369416506
C  C163  1  0.89208000  0.79500000  0.44128000  1.0 0.0369416506
C  C164  1  0.79500000  0.89208000  0.87164000  1.0 0.0369416506
C  C165  1  0.44128000  0.79500000  0.87164000  1.0 0.0369416506
C  C166  1  0.89208000  0.87164000  0.79500000  1.0 0.0369416506
C  C167  1  0.89208000  0.44128000  0.87164000  1.0 0.0369416506
C  C168  1  0.87164000  0.79500000  0.89208000  1.0 0.0369416506
C  C169  1  0.39208000  0.29500000  0.37164000  1.0 0.0369416506
C  C170  1  0.55872000  0.12836000  0.10792000  1.0 0.0369416506
C  C171  1  0.29500000  0.39208000  0.94128000  1.0 0.0369416506
C  C172  1  0.12836000  0.55872000  0.20500000  1.0 0.0369416506
C  C173  1  0.20500000  0.55872000  0.10792000  1.0 0.0369416506
C  C174  1  0.94128000  0.37164000  0.29500000  1.0 0.0369416506
C  C175  1  0.12836000  0.10792000  0.55872000  1.0 0.0369416506
C  C176  1  0.20500000  0.12836000  0.55872000  1.0 0.0369416506
C  C177  1  0.37164000  0.94128000  0.39208000  1.0 0.0369416506
C  C178  1  0.55872000  0.10792000  0.20500000  1.0 0.0369416506
C  C179  1  0.37164000  0.39208000  0.29500000  1.0 0.0369416506
C  C180  1  0.29500000  0.37164000  0.39208000  1.0 0.0369416506
C  C181  1  0.37164000  0.29500000  0.94128000  1.0 0.0369416506
C  C182  1  0.94128000  0.29500000  0.39208000  1.0 0.0369416506
C  C183  1  0.39208000  0.94128000  0.29500000  1.0 0.0369416506
C  C184  1  0.39208000  0.37164000  0.94128000  1.0 0.0369416506
C  C185  1  0.29500000  0.94128000  0.37164000  1.0 0.0369416506
C  C186  1  0.94128000  0.39208000  0.37164000  1.0 0.0369416506
C  C187  1  0.10792000  0.20500000  0.55872000  1.0 0.0369416506
C  C188  1  0.20500000  0.10792000  0.12836000  1.0 0.0369416506
C  C189  1  0.55872000  0.20500000  0.12836000  1.0 0.0369416506
C  C190  1  0.10792000  0.12836000  0.20500000  1.0 0.0369416506
C  C191  1  0.10792000  0.55872000  0.12836000  1.0 0.0369416506
C  C192  1  0.12836000  0.20500000  0.10792000  1.0 0.0369416506
C  C193  1  0.66521000  0.68573000  0.58967000  1.0 -0.0169476024
C  C194  1  0.44061000  0.91033000  0.83479000  1.0 -0.0169476024
C  C195  1  0.68573000  0.66521000  0.05939000  1.0 -0.0169476024
C  C196  1  0.91033000  0.44061000  0.81427000  1.0 -0.0169476024
C  C197  1  0.81427000  0.44061000  0.83479000  1.0 -0.0169476024
C  C198  1  0.05939000  0.58967000  0.68573000  1.0 -0.0169476024
C  C199  1  0.91033000  0.83479000  0.44061000  1.0 -0.0169476024
C  C200  1  0.81427000  0.91033000  0.44061000  1.0 -0.0169476024
C  C201  1  0.58967000  0.05939000  0.66521000  1.0 -0.0169476024
C  C202  1  0.44061000  0.83479000  0.81427000  1.0 -0.0169476024
C  C203  1  0.58967000  0.66521000  0.68573000  1.0 -0.0169476024
C  C204  1  0.68573000  0.58967000  0.66521000  1.0 -0.0169476024
C  C205  1  0.58967000  0.68573000  0.05939000  1.0 -0.0169476024
C  C206  1  0.05939000  0.68573000  0.66521000  1.0 -0.0169476024
C  C207  1  0.66521000  0.05939000  0.68573000  1.0 -0.0169476024
C  C208  1  0.66521000  0.58967000  0.05939000  1.0 -0.0169476024
C  C209  1  0.68573000  0.05939000  0.58967000  1.0 -0.0169476024
C  C210  1  0.05939000  0.66521000  0.58967000  1.0 -0.0169476024
C  C211  1  0.83479000  0.81427000  0.44061000  1.0 -0.0169476024
C  C212  1  0.81427000  0.83479000  0.91033000  1.0 -0.0169476024
C  C213  1  0.44061000  0.81427000  0.91033000  1.0 -0.0169476024
C  C214  1  0.83479000  0.91033000  0.81427000  1.0 -0.0169476024
C  C215  1  0.83479000  0.44061000  0.91033000  1.0 -0.0169476024
C  C216  1  0.91033000  0.81427000  0.83479000  1.0 -0.0169476024
C  C217  1  0.33479000  0.31427000  0.41033000  1.0 -0.0169476024
C  C218  1  0.55939000  0.08967000  0.16521000  1.0 -0.0169476024
C  C219  1  0.31427000  0.33479000  0.94061000  1.0 -0.0169476024
C  C220  1  0.08967000  0.55939000  0.18573000  1.0 -0.0169476024
C  C221  1  0.18573000  0.55939000  0.16521000  1.0 -0.0169476024
C  C222  1  0.94061000  0.41033000  0.31427000  1.0 -0.0148373163
C  C223  1  0.08967000  0.16521000  0.55939000  1.0 -0.0169476024
C  C224  1  0.18573000  0.08967000  0.55939000  1.0 -0.0169476024
C  C225  1  0.41033000  0.94061000  0.33479000  1.0 -0.0169476024
C  C226  1  0.55939000  0.16521000  0.18573000  1.0 -0.0169476024
C  C227  1  0.41033000  0.33479000  0.31427000  1.0 -0.0169476024
C  C228  1  0.31427000  0.41033000  0.33479000  1.0 -0.0169476024
C  C229  1  0.41033000  0.31427000  0.94061000  1.0 -0.0169476024
C  C230  1  0.94061000  0.31427000  0.33479000  1.0 -0.0169476024
C  C231  1  0.33479000  0.94061000  0.31427000  1.0 -0.0169476024
C  C232  1  0.33479000  0.41033000  0.94061000  1.0 -0.0169476024
C  C233  1  0.31427000  0.94061000  0.41033000  1.0 -0.0169476024
C  C234  1  0.94061000  0.33479000  0.41033000  1.0 -0.0169476024
C  C235  1  0.16521000  0.18573000  0.55939000  1.0 -0.0169476024
C  C236  1  0.18573000  0.16521000  0.08967000  1.0 -0.0169476024
C  C237  1  0.55939000  0.18573000  0.08967000  1.0 -0.0169476024
C  C238  1  0.16521000  0.08967000  0.18573000  1.0 -0.0169476024
C  C239  1  0.16521000  0.55939000  0.08967000  1.0 -0.0169476024
C  C240  1  0.08967000  0.18573000  0.16521000  1.0 -0.0169476024
S  S1  1  0.68037000  0.73835000  0.52145000  1.0 0.1221735549
S  S2  1  0.44017000  0.97855000  0.81963000  1.0 0.1221735549
S  S3  1  0.73835000  0.68037000  0.05983000  1.0 0.1221735549
S  S4  1  0.97855000  0.44017000  0.76165000  1.0 0.1221735549
S  S5  1  0.76165000  0.44017000  0.81963000  1.0 0.1253414293
S  S6  1  0.05983000  0.52145000  0.73835000  1.0 0.1221735549
S  S7  1  0.97855000  0.81963000  0.44017000  1.0 0.1221735549
S  S8  1  0.76165000  0.97855000  0.44017000  1.0 0.1221735549
S  S9  1  0.52145000  0.05983000  0.68037000  1.0 0.1221735549
S  S10  1  0.44017000  0.81963000  0.76165000  1.0 0.1253414293
S  S11  1  0.52145000  0.68037000  0.73835000  1.0 0.1221735549
S  S12  1  0.73835000  0.52145000  0.68037000  1.0 0.1221735549
S  S13  1  0.52145000  0.73835000  0.05983000  1.0 0.1221735549
S  S14  1  0.05983000  0.73835000  0.68037000  1.0 0.1221735549
S  S15  1  0.68037000  0.05983000  0.73835000  1.0 0.1221735549
S  S16  1  0.68037000  0.52145000  0.05983000  1.0 0.1221735549
S  S17  1  0.73835000  0.05983000  0.52145000  1.0 0.1221735549
S  S18  1  0.05983000  0.68037000  0.52145000  1.0 0.1221735549
S  S19  1  0.81963000  0.76165000  0.44017000  1.0 0.1221735549
S  S20  1  0.76165000  0.81963000  0.97855000  1.0 0.1221735549
S  S21  1  0.44017000  0.76165000  0.97855000  1.0 0.1221735549
S  S22  1  0.81963000  0.97855000  0.76165000  1.0 0.1253414293
S  S23  1  0.81963000  0.44017000  0.97855000  1.0 0.1221735549
S  S24  1  0.97855000  0.76165000  0.81963000  1.0 0.1221735549
S  S25  1  0.31963000  0.26165000  0.47855000  1.0 0.1221735549
S  S26  1  0.55983000  0.02145000  0.18037000  1.0 0.1221735549
S  S27  1  0.26165000  0.31963000  0.94017000  1.0 0.1221735549
S  S28  1  0.02145000  0.55983000  0.23835000  1.0 0.1221735549
S  S29  1  0.23835000  0.55983000  0.18037000  1.0 0.1221735549
S  S30  1  0.94017000  0.47855000  0.26165000  1.0 0.1221735549
S  S31  1  0.02145000  0.18037000  0.55983000  1.0 0.1221735549
S  S32  1  0.23835000  0.02145000  0.55983000  1.0 0.1221735549
S  S33  1  0.47855000  0.94017000  0.31963000  1.0 0.1221735549
S  S34  1  0.55983000  0.18037000  0.23835000  1.0 0.1221735549
S  S35  1  0.47855000  0.31963000  0.26165000  1.0 0.1221735549
S  S36  1  0.26165000  0.47855000  0.31963000  1.0 0.1221735549
S  S37  1  0.47855000  0.26165000  0.94017000  1.0 0.1221735549
S  S38  1  0.94017000  0.26165000  0.31963000  1.0 0.1221735549
S  S39  1  0.31963000  0.94017000  0.26165000  1.0 0.1221735549
S  S40  1  0.31963000  0.47855000  0.94017000  1.0 0.1221735549
S  S41  1  0.26165000  0.94017000  0.47855000  1.0 0.1221735549
S  S42  1  0.94017000  0.31963000  0.47855000  1.0 0.1221735549
S  S43  1  0.18037000  0.23835000  0.55983000  1.0 0.1221735549
S  S44  1  0.23835000  0.18037000  0.02145000  1.0 0.1221735549
S  S45  1  0.55983000  0.23835000  0.02145000  1.0 0.1221735549
S  S46  1  0.18037000  0.02145000  0.23835000  1.0 0.1221735549
S  S47  1  0.18037000  0.55983000  0.02145000  1.0 0.1221735549
S  S48  1  0.02145000  0.23835000  0.18037000  1.0 0.1221735549
O  O1  1  0.63085000  0.86093000  0.45099000  1.0 -0.54476373
O  O2  1  0.44277000  0.04901000  0.86915000  1.0 -0.54476373
O  O3  1  0.86093000  0.63085000  0.05723000  1.0 -0.5451887111
O  O4  1  0.04901000  0.44277000  0.63907000  1.0 -0.5451887111
O  O5  1  0.63907000  0.44277000  0.86915000  1.0 -0.5451887111
O  O6  1  0.05723000  0.45099000  0.86093000  1.0 -0.54476373
O  O7  1  0.04901000  0.86915000  0.44277000  1.0 -0.5451887111
O  O8  1  0.63907000  0.04901000  0.44277000  1.0 -0.5451887111
O  O9  1  0.45099000  0.05723000  0.63085000  1.0 -0.54476373
O  O10  1  0.44277000  0.86915000  0.63907000  1.0 -0.54476373
O  O11  1  0.45099000  0.63085000  0.86093000  1.0 -0.5451887111
O  O12  1  0.86093000  0.45099000  0.63085000  1.0 -0.54476373
O  O13  1  0.45099000  0.86093000  0.05723000  1.0 -0.5451887111
O  O14  1  0.05723000  0.86093000  0.63085000  1.0 -0.54476373
O  O15  1  0.63085000  0.05723000  0.86093000  1.0 -0.54476373
O  O16  1  0.63085000  0.45099000  0.05723000  1.0 -0.54476373
O  O17  1  0.86093000  0.05723000  0.45099000  1.0 -0.54476373
O  O18  1  0.05723000  0.63085000  0.45099000  1.0 -0.54476373
O  O19  1  0.86915000  0.63907000  0.44277000  1.0 -0.5451887111
O  O20  1  0.63907000  0.86915000  0.04901000  1.0 -0.54476373
O  O21  1  0.44277000  0.63907000  0.04901000  1.0 -0.54476373
O  O22  1  0.86915000  0.04901000  0.63907000  1.0 -0.54476373
O  O23  1  0.86915000  0.44277000  0.04901000  1.0 -0.54476373
O  O24  1  0.04901000  0.63907000  0.86915000  1.0 -0.54476373
O  O25  1  0.36915000  0.13907000  0.54901000  1.0 -0.54476373
O  O26  1  0.55723000  0.95099000  0.13085000  1.0 -0.54476373
O  O27  1  0.13907000  0.36915000  0.94277000  1.0 -0.54476373
O  O28  1  0.95099000  0.55723000  0.36093000  1.0 -0.5451887111
O  O29  1  0.36093000  0.55723000  0.13085000  1.0 -0.5451887111
O  O30  1  0.94277000  0.54901000  0.13907000  1.0 -0.54476373
O  O31  1  0.95099000  0.13085000  0.55723000  1.0 -0.54476373
O  O32  1  0.36093000  0.95099000  0.55723000  1.0 -0.54476373
O  O33  1  0.54901000  0.94277000  0.36915000  1.0 -0.5451887111
O  O34  1  0.55723000  0.13085000  0.36093000  1.0 -0.54476373
O  O35  1  0.54901000  0.36915000  0.13907000  1.0 -0.54476373
O  O36  1  0.13907000  0.54901000  0.36915000  1.0 -0.54476373
O  O37  1  0.54901000  0.13907000  0.94277000  1.0 -0.5451887111
O  O38  1  0.94277000  0.13907000  0.36915000  1.0 -0.54476373
O  O39  1  0.36915000  0.94277000  0.13907000  1.0 -0.5451887111
O  O40  1  0.36915000  0.54901000  0.94277000  1.0 -0.5451887111
O  O41  1  0.13907000  0.94277000  0.54901000  1.0 -0.5451887111
O  O42  1  0.94277000  0.36915000  0.54901000  1.0 -0.54476373
O  O43  1  0.13085000  0.36093000  0.55723000  1.0 -0.54476373
O  O44  1  0.36093000  0.13085000  0.95099000  1.0 -0.54476373
O  O45  1  0.55723000  0.36093000  0.95099000  1.0 -0.5451887111
O  O46  1  0.13085000  0.95099000  0.36093000  1.0 -0.54476373
O  O47  1  0.13085000  0.55723000  0.95099000  1.0 -0.54476373
O  O48  1  0.95099000  0.36093000  0.13085000  1.0 -0.5451887111
O  O49  1  0.54825000  0.88835000  0.52205000  1.0 -0.5648127655
O  O50  1  0.45865000  0.97795000  0.95175000  1.0 -0.5659711831
O  O51  1  0.88835000  0.54825000  0.04135000  1.0 -0.5659711831
O  O52  1  0.97795000  0.45865000  0.61165000  1.0 -0.5659711831
O  O53  1  0.61165000  0.45865000  0.95175000  1.0 -0.5659711831
O  O54  1  0.04135000  0.52205000  0.88835000  1.0 -0.5648127655
O  O55  1  0.97795000  0.95175000  0.45865000  1.0 -0.5659711831
O  O56  1  0.61165000  0.97795000  0.45865000  1.0 -0.5659711831
O  O57  1  0.52205000  0.04135000  0.54825000  1.0 -0.5659711831
O  O58  1  0.45865000  0.95175000  0.61165000  1.0 -0.5659711831
O  O59  1  0.52205000  0.54825000  0.88835000  1.0 -0.5659711831
O  O60  1  0.88835000  0.52205000  0.54825000  1.0 -0.5659711831
O  O61  1  0.52205000  0.88835000  0.04135000  1.0 -0.5659711831
O  O62  1  0.04135000  0.88835000  0.54825000  1.0 -0.5659711831
O  O63  1  0.54825000  0.04135000  0.88835000  1.0 -0.5659711831
O  O64  1  0.54825000  0.52205000  0.04135000  1.0 -0.5659711831
O  O65  1  0.88835000  0.04135000  0.52205000  1.0 -0.5659711831
O  O66  1  0.04135000  0.54825000  0.52205000  1.0 -0.5659711831
O  O67  1  0.95175000  0.61165000  0.45865000  1.0 -0.5659711831
O  O68  1  0.61165000  0.95175000  0.97795000  1.0 -0.5648127655
O  O69  1  0.45865000  0.61165000  0.97795000  1.0 -0.5659711831
O  O70  1  0.95175000  0.97795000  0.61165000  1.0 -0.5659711831
O  O71  1  0.95175000  0.45865000  0.97795000  1.0 -0.5659711831
O  O72  1  0.97795000  0.61165000  0.95175000  1.0 -0.5659711831
O  O73  1  0.45175000  0.11165000  0.47795000  1.0 -0.5659711831
O  O74  1  0.54135000  0.02205000  0.04825000  1.0 -0.5659711831
O  O75  1  0.11165000  0.45175000  0.95865000  1.0 -0.5659711831
O  O76  1  0.02205000  0.54135000  0.38835000  1.0 -0.5659711831
O  O77  1  0.38835000  0.54135000  0.04825000  1.0 -0.5659711831
O  O78  1  0.95865000  0.47795000  0.11165000  1.0 -0.5659711831
O  O79  1  0.02205000  0.04825000  0.54135000  1.0 -0.5659711831
O  O80  1  0.38835000  0.02205000  0.54135000  1.0 -0.5659711831
O  O81  1  0.47795000  0.95865000  0.45175000  1.0 -0.5659711831
O  O82  1  0.54135000  0.04825000  0.38835000  1.0 -0.5659711831
O  O83  1  0.47795000  0.45175000  0.11165000  1.0 -0.5659711831
O  O84  1  0.11165000  0.47795000  0.45175000  1.0 -0.5659711831
O  O85  1  0.47795000  0.11165000  0.95865000  1.0 -0.5659711831
O  O86  1  0.95865000  0.11165000  0.45175000  1.0 -0.5659711831
O  O87  1  0.45175000  0.95865000  0.11165000  1.0 -0.5659711831
O  O88  1  0.45175000  0.47795000  0.95865000  1.0 -0.5659711831
O  O89  1  0.11165000  0.95865000  0.47795000  1.0 -0.5659711831
O  O90  1  0.95865000  0.45175000  0.47795000  1.0 -0.5659711831
O  O91  1  0.04825000  0.38835000  0.54135000  1.0 -0.5659711831
O  O92  1  0.38835000  0.04825000  0.02205000  1.0 -0.5659711831
O  O93  1  0.54135000  0.38835000  0.02205000  1.0 -0.5659711831
O  O94  1  0.04825000  0.02205000  0.38835000  1.0 -0.5659711831
O  O95  1  0.04825000  0.54135000  0.02205000  1.0 -0.5659711831
O  O96  1  0.02205000  0.38835000  0.04825000  1.0 -0.5659711831
