# DDEC6 charges by PACMAN v1.1 (https://github.com/mtap-research/PACMAN-charge/)
data_RAPBOZ_FSR_pacman
_symmetry_space_group_name_H-M   'P 1'
_cell_length_a   9.99200000
_cell_length_b   11.64400000
_cell_length_c   12.23100000
_cell_angle_alpha   90.00000000
_cell_angle_beta   90.00000000
_cell_angle_gamma   90.00000000
_symmetry_Int_Tables_number   1
_chemical_formula_structural   Al2P2C2O13
_chemical_formula_sum   'Al8 P8 C8 O52'
_cell_volume   1423.03829789
_cell_formula_units_Z   4
loop_
 _symmetry_equiv_pos_site_id
 _symmetry_equiv_pos_as_xyz
  1  'x, y, z'
loop_
 _atom_site_type_symbol
 _atom_site_label
 _atom_site_symmetry_multiplicity
 _atom_site_fract_x
 _atom_site_fract_y
 _atom_site_fract_z
 _atom_site_occupancy
 _atom_site_charge
Al  Al1  1  0.04530000  0.27510000  0.00000000  1.0 1.6513532982
Al  Al2  1  0.95470000  0.72490000  0.00000000  1.0 1.6513532982
Al  Al3  1  0.04530000  0.72490000  0.50000000  1.0 1.6513532982
Al  Al4  1  0.95470000  0.27510000  0.50000000  1.0 1.6513532982
Al  Al5  1  0.76910000  0.00000000  0.25000000  1.0 1.7541864203
Al  Al6  1  0.23090000  0.00000000  0.25000000  1.0 1.7541864203
Al  Al7  1  0.23090000  0.00000000  0.75000000  1.0 1.7551560686
Al  Al8  1  0.76910000  0.00000000  0.75000000  1.0 1.7541864203
P  P1  1  0.27420000  0.08810000  0.00000000  1.0 1.5332354293
P  P2  1  0.72580000  0.91190000  0.00000000  1.0 1.5332354293
P  P3  1  0.27420000  0.91190000  0.50000000  1.0 1.5332354293
P  P4  1  0.72580000  0.08810000  0.50000000  1.0 1.5332354293
P  P5  1  0.00000000  0.19770000  0.25000000  1.0 1.5839445279
P  P6  1  0.00000000  0.80230000  0.25000000  1.0 1.5839445279
P  P7  1  0.00000000  0.80230000  0.75000000  1.0 1.5839445279
P  P8  1  0.00000000  0.19770000  0.75000000  1.0 1.5839445279
C  C1  1  0.07490000  0.51020000  0.00000000  1.0 0.5136763589
C  C2  1  0.92510000  0.48980000  0.00000000  1.0 0.5136763589
C  C3  1  0.07490000  0.48980000  0.50000000  1.0 0.5136763589
C  C4  1  0.92510000  0.51020000  0.50000000  1.0 0.5136763589
C  C5  1  0.50000000  0.06590000  0.25000000  1.0 0.5296781348
C  C6  1  0.50000000  0.93410000  0.25000000  1.0 0.5296781348
C  C7  1  0.50000000  0.93410000  0.75000000  1.0 0.5296781348
C  C8  1  0.50000000  0.06590000  0.75000000  1.0 0.5296781348
O  O1  1  0.21250000  0.20680000  0.00000000  1.0 -0.7736505411
O  O2  1  0.78750000  0.79320000  0.00000000  1.0 -0.7736505411
O  O3  1  0.21250000  0.79320000  0.50000000  1.0 -0.7763221337
O  O4  1  0.78750000  0.20680000  0.50000000  1.0 -0.7736505411
O  O5  1  0.03080000  0.27510000  0.15210000  1.0 -0.7736505411
O  O6  1  0.96920000  0.72490000  0.15210000  1.0 -0.7736505411
O  O7  1  0.03080000  0.72490000  0.34790000  1.0 -0.7763221337
O  O8  1  0.96920000  0.27510000  0.34790000  1.0 -0.7763221337
O  O9  1  0.96920000  0.72490000  0.84790000  1.0 -0.7736505411
O  O10  1  0.03080000  0.27510000  0.84790000  1.0 -0.7736505411
O  O11  1  0.96920000  0.27510000  0.65210000  1.0 -0.7763221337
O  O12  1  0.03080000  0.72490000  0.65210000  1.0 -0.7763221337
O  O13  1  0.92960000  0.14700000  0.00000000  1.0 0.0262225229
O  O14  1  0.07040000  0.85300000  0.00000000  1.0 0.0246054703
O  O15  1  0.92960000  0.85300000  0.50000000  1.0 0.0083031331
O  O16  1  0.07040000  0.14700000  0.50000000  1.0 0.0083031331
O  O17  1  0.14660000  0.42160000  0.00000000  1.0 -0.4375477
O  O18  1  0.85340000  0.57840000  0.00000000  1.0 -0.4375477
O  O19  1  0.14660000  0.57840000  0.50000000  1.0 -0.4328407361
O  O20  1  0.85340000  0.42160000  0.50000000  1.0 -0.4328407361
O  O21  1  0.88760000  0.38630000  0.00000000  1.0 -0.4375477
O  O22  1  0.11240000  0.61370000  0.00000000  1.0 -0.4375477
O  O23  1  0.88760000  0.61370000  0.50000000  1.0 -0.4375477
O  O24  1  0.11240000  0.38630000  0.50000000  1.0 -0.4375477
O  O25  1  0.88000000  0.12200000  0.22230000  1.0 -0.7341704084
O  O26  1  0.12000000  0.87800000  0.22230000  1.0 -0.7341704084
O  O27  1  0.88000000  0.87800000  0.27770000  1.0 -0.7341704084
O  O28  1  0.12000000  0.12200000  0.27770000  1.0 -0.7341704084
O  O29  1  0.12000000  0.87800000  0.77770000  1.0 -0.7341704084
O  O30  1  0.88000000  0.12200000  0.77770000  1.0 -0.7341704084
O  O31  1  0.12000000  0.12200000  0.72230000  1.0 -0.7341704084
O  O32  1  0.88000000  0.87800000  0.72230000  1.0 -0.7341704084
O  O33  1  0.23850000  0.01950000  0.10030000  1.0 -0.7386592938
O  O34  1  0.76150000  0.98050000  0.10030000  1.0 -0.7386592938
O  O35  1  0.23850000  0.98050000  0.39970000  1.0 -0.7386592938
O  O36  1  0.76150000  0.01950000  0.39970000  1.0 -0.7386592938
O  O37  1  0.76150000  0.98050000  0.89970000  1.0 -0.7386592938
O  O38  1  0.23850000  0.01950000  0.89970000  1.0 -0.7386592938
O  O39  1  0.76150000  0.01950000  0.60030000  1.0 -0.7386592938
O  O40  1  0.23850000  0.98050000  0.60030000  1.0 -0.7386592938
O  O41  1  0.61200000  0.11230000  0.24160000  1.0 -0.4096354408
O  O42  1  0.38800000  0.88770000  0.24160000  1.0 -0.4096354408
O  O43  1  0.61200000  0.88770000  0.25840000  1.0 -0.4096354408
O  O44  1  0.38800000  0.11230000  0.25840000  1.0 -0.4096354408
O  O45  1  0.38800000  0.88770000  0.75840000  1.0 -0.4096354408
O  O46  1  0.61200000  0.11230000  0.75840000  1.0 -0.4096354408
O  O47  1  0.38800000  0.11230000  0.74160000  1.0 -0.4096354408
O  O48  1  0.61200000  0.88770000  0.74160000  1.0 -0.4096354408
O  O49  1  0.43130000  0.10930000  0.00000000  1.0 -0.6212118281
O  O50  1  0.56870000  0.89070000  0.00000000  1.0 -0.6212118281
O  O51  1  0.43130000  0.89070000  0.50000000  1.0 -0.6212118281
O  O52  1  0.56870000  0.10930000  0.50000000  1.0 -0.6212118281
