# DDEC6 charges by PACMAN v1.1 (https://github.com/mtap-research/PACMAN-charge/)
data_RAPCOE_ASR_pacman
_symmetry_space_group_name_H-M   'P 1'
_cell_length_a   34.87320000
_cell_length_b   34.87320000
_cell_length_c   34.87320000
_cell_angle_alpha   99.47820000
_cell_angle_beta   99.47820000
_cell_angle_gamma   132.11800000
_symmetry_Int_Tables_number   1
_chemical_formula_structural   Zn68H568C928O353
_chemical_formula_sum   'Zn68 H568 C928 O353'
_cell_volume   28752.10960855
_cell_formula_units_Z   1
loop_
 _symmetry_equiv_pos_site_id
 _symmetry_equiv_pos_as_xyz
  1  'x, y, z'
loop_
 _atom_site_type_symbol
 _atom_site_label
 _atom_site_symmetry_multiplicity
 _atom_site_fract_x
 _atom_site_fract_y
 _atom_site_fract_z
 _atom_site_occupancy
 _atom_site_charge
Zn  Zn1  1  0.78709000  0.21298000  0.50017000  1.0 0.7810083816
Zn  Zn2  1  0.39937000  0.09383000  0.00006000  1.0 0.8311289141
Zn  Zn3  1  0.42497000  0.20923000  0.99994000  1.0 0.8026581259
Zn  Zn4  1  0.83158000  0.27580000  0.44436000  1.0 0.8026581259
Zn  Zn5  1  0.01795000  0.01795000  0.39712000  1.0 0.7382163369
Zn  Zn6  1  0.71281000  0.28692000  0.49983000  1.0 0.7810083816
Zn  Zn7  1  0.09377000  0.39931000  0.99994000  1.0 0.8311289141
Zn  Zn8  1  0.20929000  0.42503000  0.00006000  1.0 0.8026581259
Zn  Zn9  1  0.83144000  0.38722000  0.55564000  1.0 0.8026581259
Zn  Zn10  1  0.62083000  0.62083000  0.60288000  1.0 0.7382163369
Zn  Zn11  1  0.21298000  0.71281000  0.42589000  1.0 0.7810083816
Zn  Zn12  1  0.09383000  0.09377000  0.69446000  1.0 0.8311289141
Zn  Zn13  1  0.20923000  0.20929000  0.78426000  1.0 0.8026581259
Zn  Zn14  1  0.27580000  0.83144000  0.44422000  1.0 0.8026581259
Zn  Zn15  1  0.01795000  0.62083000  0.00000000  1.0 0.7382163369
Zn  Zn16  1  0.28692000  0.78709000  0.57411000  1.0 0.7810083816
Zn  Zn17  1  0.39931000  0.39937000  0.30554000  1.0 0.8311289141
Zn  Zn18  1  0.42503000  0.42497000  0.21574000  1.0 0.8026581259
Zn  Zn19  1  0.38722000  0.83158000  0.55578000  1.0 0.8026581259
Zn  Zn20  1  0.62083000  0.01795000  0.00000000  1.0 0.7382163369
Zn  Zn21  1  0.21291000  0.78702000  0.49983000  1.0 0.7810083816
Zn  Zn22  1  0.60063000  0.90617000  0.99994000  1.0 0.8311289141
Zn  Zn23  1  0.57503000  0.79077000  0.00006000  1.0 0.8026581259
Zn  Zn24  1  0.16842000  0.72420000  0.55564000  1.0 0.8026581259
Zn  Zn25  1  0.98205000  0.98205000  0.60288000  1.0 0.7382163369
Zn  Zn26  1  0.28719000  0.71308000  0.50017000  1.0 0.7810083816
Zn  Zn27  1  0.90623000  0.60069000  0.00006000  1.0 0.8311289141
Zn  Zn28  1  0.79071000  0.57497000  0.99994000  1.0 0.8026581259
Zn  Zn29  1  0.16856000  0.61278000  0.44436000  1.0 0.8026581259
Zn  Zn30  1  0.37917000  0.37917000  0.39712000  1.0 0.7382163369
Zn  Zn31  1  0.78702000  0.28719000  0.57411000  1.0 0.7810083816
Zn  Zn32  1  0.90617000  0.90623000  0.30554000  1.0 0.8311289141
Zn  Zn33  1  0.79077000  0.79071000  0.21574000  1.0 0.8026581259
Zn  Zn34  1  0.72420000  0.16856000  0.55578000  1.0 0.8026581259
Zn  Zn35  1  0.98205000  0.37917000  0.00000000  1.0 0.7382163369
Zn  Zn36  1  0.71308000  0.21291000  0.42589000  1.0 0.7810083816
Zn  Zn37  1  0.60069000  0.60063000  0.69446000  1.0 0.8311289141
Zn  Zn38  1  0.57497000  0.57503000  0.78426000  1.0 0.8026581259
Zn  Zn39  1  0.61278000  0.16842000  0.44422000  1.0 0.8026581259
Zn  Zn40  1  0.37917000  0.98205000  0.00000000  1.0 0.7382163369
Zn  Zn41  1  0.86956000  0.30713000  0.17669000  1.0 0.9480769449
Zn  Zn42  1  0.13039000  0.30709000  0.43748000  1.0 0.9480769449
Zn  Zn43  1  0.06540000  0.31793000  0.38333000  1.0 0.8801127786
Zn  Zn44  1  0.24170000  0.49999000  0.74169000  1.0 0.9617446774
Zn  Zn45  1  0.30818000  0.49998000  0.80816000  1.0 0.9376283997
Zn  Zn46  1  0.93467000  0.31781000  0.25248000  1.0 0.8855534905
Zn  Zn47  1  0.13044000  0.69287000  0.82331000  1.0 0.9480769449
Zn  Zn48  1  0.86961000  0.69291000  0.56252000  1.0 0.9480769449
Zn  Zn49  1  0.93460000  0.68207000  0.61667000  1.0 0.8801127786
Zn  Zn50  1  0.75830000  0.50001000  0.25831000  1.0 0.9617446774
Zn  Zn51  1  0.69182000  0.50002000  0.19184000  1.0 0.9376283997
Zn  Zn52  1  0.06533000  0.68219000  0.74752000  1.0 0.8801127786
Zn  Zn53  1  0.30713000  0.13044000  0.43757000  1.0 0.9480769449
Zn  Zn54  1  0.30709000  0.86961000  0.17670000  1.0 0.9480769449
Zn  Zn55  1  0.31793000  0.93460000  0.25253000  1.0 0.8801127786
Zn  Zn56  1  0.49999000  0.75830000  0.25829000  1.0 0.9617446774
Zn  Zn57  1  0.49998000  0.69182000  0.19180000  1.0 0.9376283997
Zn  Zn58  1  0.31781000  0.06533000  0.38314000  1.0 0.8855534905
Zn  Zn59  1  0.69287000  0.86956000  0.56243000  1.0 0.9480769449
Zn  Zn60  1  0.69291000  0.13039000  0.82330000  1.0 0.9480769449
Zn  Zn61  1  0.68207000  0.06540000  0.74747000  1.0 0.8801127786
Zn  Zn62  1  0.50001000  0.24170000  0.74171000  1.0 0.9617446774
Zn  Zn63  1  0.50002000  0.30818000  0.80820000  1.0 0.9376283997
Zn  Zn64  1  0.68219000  0.93467000  0.61686000  1.0 0.8855534905
Zn  Zn65  1  0.18054000  0.18054000  0.00000000  1.0 0.6335004085
Zn  Zn66  1  0.06658000  0.06658000  0.00000000  1.0 0.6979110056
Zn  Zn67  1  0.81946000  0.81946000  0.00000000  1.0 0.6350192541
Zn  Zn68  1  0.93342000  0.93342000  0.00000000  1.0 0.6979110056
H  H1  1  0.01714000  0.32056000  0.28230000  1.0 0.1565119514
H  H2  1  0.75044000  0.15985000  0.40685000  1.0 0.3938149104
H  H3  1  0.79826000  0.18327000  0.38795000  1.0 0.3938149104
H  H4  1  0.89343000  0.36716000  0.50348000  1.0 0.1758612191
H  H5  1  0.83702000  0.34873000  0.47859000  1.0 0.1905646046
H  H6  1  0.21242000  0.32395000  0.74989000  1.0 0.1307638033
H  H7  1  0.06485000  0.17839000  0.66348000  1.0 0.1113849006
H  H8  1  0.11158000  0.32172000  0.67214000  1.0 0.1307638033
H  H9  1  0.05771000  0.26796000  0.59733000  1.0 0.1198698865
H  H10  1  0.89058000  0.13971000  0.54507000  1.0 0.1113849006
H  H11  1  0.97600000  0.15004000  0.64632000  1.0 0.1113849006
H  H12  1  0.88134000  0.07434000  0.61700000  1.0 0.1307638033
H  H13  1  0.85658000  0.05354000  0.56800000  1.0 0.1396410073
H  H14  1  0.84714000  0.08453000  0.59585000  1.0 0.1396410073
H  H15  1  0.03479000  0.24835000  0.51958000  1.0 0.1198698865
H  H16  1  0.96208000  0.28148000  0.45218000  1.0 0.1396410073
H  H17  1  0.90783000  0.21810000  0.53913000  1.0 0.1198698865
H  H18  1  0.82985000  0.28217000  0.32020000  1.0 0.1396410073
H  H19  1  0.72862000  0.24751000  0.21395000  1.0 0.1198698865
H  H20  1  0.67916000  0.21792000  0.31088000  1.0 0.1198698865
H  H21  1  0.67120000  0.26919000  0.21193000  1.0 0.1198698865
H  H22  1  0.50409000  0.15093000  0.17386000  1.0 0.1198698865
H  H23  1  0.59364000  0.13881000  0.24839000  1.0 0.1113849006
H  H24  1  0.45596000  0.07029000  0.19203000  1.0 0.1307638033
H  H25  1  0.48828000  0.08074000  0.23608000  1.0 0.1396410073
H  H26  1  0.48673000  0.05217000  0.19526000  1.0 0.1396410073
H  H27  1  0.64997000  0.32165000  0.20978000  1.0 0.1307638033
H  H28  1  0.57356000  0.32370000  0.11166000  1.0 0.1307638033
H  H29  1  0.51494000  0.17824000  0.11338000  1.0 0.1113849006
H  H30  1  0.87929000  0.99554000  0.27679000  1.0 0.1198698865
H  H31  1  0.92658000  0.14080000  0.29578000  1.0 0.1198698865
H  H32  1  0.02554000  0.13667000  0.36765000  1.0 0.1307638033
H  H33  1  0.86925000  0.09574000  0.22683000  1.0 0.1198698865
H  H34  1  0.70321000  0.96252000  0.16999000  1.0 0.1198698865
H  H35  1  0.79170000  0.96253000  0.25979000  1.0 0.1198698865
H  H36  1  0.69593000  0.88532000  0.23007000  1.0 0.1307638033
H  H37  1  0.66765000  0.87088000  0.18291000  1.0 0.1475065762
H  H38  1  0.66290000  0.89996000  0.21828000  1.0 0.1396410073
H  H39  1  0.84442000  0.13996000  0.21376000  1.0 0.1198698865
H  H40  1  0.76822000  0.13623000  0.11109000  1.0 0.1307638033
H  H41  1  0.71802000  0.99494000  0.11566000  1.0 0.1198698865
H  H42  1  0.13417000  0.00010000  0.01907000  1.0 0.0614296279
H  H43  1  0.26259000  0.02082000  0.02061000  1.0 0.0932725816
H  H44  1  0.26652000  0.13459000  0.00403000  1.0 0.1113849006
H  H45  1  0.23591000  0.97081000  0.06304000  1.0 0.1307638033
H  H46  1  0.24044000  0.93525000  0.11219000  1.0 0.0298679448
H  H47  1  0.19119000  0.87075000  0.10028000  1.0 0.0506481991
H  H48  1  0.19356000  0.91161000  0.13033000  1.0 0.0378683174
H  H49  1  0.11511000  0.98177000  0.98086000  1.0 0.0614296279
H  H50  1  0.24194000  0.00091000  0.97923000  1.0 0.0932725816
H  H51  1  0.26345000  0.13203000  0.99826000  1.0 0.1113849006
H  H52  1  0.16769000  0.90767000  0.93142000  1.0 0.1198698865
H  H53  1  0.12394000  0.82386000  0.88416000  1.0 0.0298679448
H  H54  1  0.05920000  0.77228000  0.86886000  1.0 0.0378683174
H  H55  1  0.09926000  0.78043000  0.90595000  1.0 0.0506481991
H  H56  1  0.68751000  0.21608000  0.01865000  1.0 0.0684462682
H  H57  1  0.55828000  0.19374000  0.01760000  1.0 0.0815883685
H  H58  1  0.53830000  0.06347000  0.99611000  1.0 0.1198698865
H  H59  1  0.62946000  0.28751000  0.06195000  1.0 0.1198698865
H  H60  1  0.66911000  0.37156000  0.10445000  1.0 0.0378683174
H  H61  1  0.69548000  0.41473000  0.08243000  1.0 0.0614296279
H  H62  1  0.73398000  0.42347000  0.12143000  1.0 0.0506481991
H  H63  1  0.66914000  0.19730000  0.98238000  1.0 0.0684462682
H  H64  1  0.53884000  0.17396000  0.97972000  1.0 0.0815883685
H  H65  1  0.53839000  0.06326000  0.99997000  1.0 0.1198698865
H  H66  1  0.56831000  0.22620000  0.94053000  1.0 0.1198698865
H  H67  1  0.56649000  0.27077000  0.90116000  1.0 0.0506481991
H  H68  1  0.61325000  0.30393000  0.88288000  1.0 0.0614296279
H  H69  1  0.61596000  0.33597000  0.92231000  1.0 0.0614296279
H  H70  1  0.03826000  0.73484000  0.71770000  1.0 0.1565119514
H  H71  1  0.75300000  0.34359000  0.59315000  1.0 0.3938149104
H  H72  1  0.79532000  0.41031000  0.61205000  1.0 0.3938149104
H  H73  1  0.86369000  0.38996000  0.49652000  1.0 0.1758612191
H  H74  1  0.87014000  0.35843000  0.52141000  1.0 0.1905646046
H  H75  1  0.57406000  0.46253000  0.25011000  1.0 0.1307638033
H  H76  1  0.51491000  0.40137000  0.33652000  1.0 0.1113849006
H  H77  1  0.64958000  0.43944000  0.32786000  1.0 0.1307638033
H  H78  1  0.67063000  0.46038000  0.40267000  1.0 0.1198698865
H  H79  1  0.59464000  0.34551000  0.45493000  1.0 0.1113849006
H  H80  1  0.50372000  0.32968000  0.35368000  1.0 0.1113849006
H  H81  1  0.45734000  0.26434000  0.38300000  1.0 0.1307638033
H  H82  1  0.48554000  0.28858000  0.43200000  1.0 0.1396410073
H  H83  1  0.48868000  0.25129000  0.40415000  1.0 0.1396410073
H  H84  1  0.72877000  0.51521000  0.48042000  1.0 0.1198698865
H  H85  1  0.82930000  0.50990000  0.54782000  1.0 0.1396410073
H  H86  1  0.67897000  0.36870000  0.46087000  1.0 0.1198698865
H  H87  1  0.96197000  0.50965000  0.67980000  1.0 0.1396410073
H  H88  1  0.03356000  0.51467000  0.78605000  1.0 0.1198698865
H  H89  1  0.90704000  0.36828000  0.68912000  1.0 0.1198698865
H  H90  1  0.05726000  0.45927000  0.78807000  1.0 0.1198698865
H  H91  1  0.97707000  0.33023000  0.82614000  1.0 0.1198698865
H  H92  1  0.89042000  0.34525000  0.75161000  1.0 0.1113849006
H  H93  1  0.87826000  0.26393000  0.80797000  1.0 0.1307638033
H  H94  1  0.84466000  0.25220000  0.76392000  1.0 0.1396410073
H  H95  1  0.85691000  0.29147000  0.80474000  1.0 0.1396410073
H  H96  1  0.11187000  0.44019000  0.79022000  1.0 0.1307638033
H  H97  1  0.21204000  0.46190000  0.88834000  1.0 0.1307638033
H  H98  1  0.06486000  0.40156000  0.88662000  1.0 0.1113849006
H  H99  1  0.71875000  0.60250000  0.72321000  1.0 0.1198698865
H  H100  1  0.84502000  0.63080000  0.70422000  1.0 0.1198698865
H  H101  1  0.76902000  0.65789000  0.63235000  1.0 0.1307638033
H  H102  1  0.86891000  0.64242000  0.77317000  1.0 0.1198698865
H  H103  1  0.79253000  0.53322000  0.83001000  1.0 0.1198698865
H  H104  1  0.70274000  0.53191000  0.74021000  1.0 0.1198698865
H  H105  1  0.65525000  0.46586000  0.76993000  1.0 0.1307638033
H  H106  1  0.68797000  0.48474000  0.81709000  1.0 0.1475065762
H  H107  1  0.68168000  0.44462000  0.78172000  1.0 0.1396410073
H  H108  1  0.92620000  0.63066000  0.78624000  1.0 0.1198698865
H  H109  1  0.02514000  0.65713000  0.88891000  1.0 0.1307638033
H  H110  1  0.87928000  0.60236000  0.88434000  1.0 0.1198698865
H  H111  1  0.98103000  0.11510000  0.98093000  1.0 0.0614296279
H  H112  1  0.00021000  0.24198000  0.97939000  1.0 0.0932725816
H  H113  1  0.13056000  0.26249000  0.99597000  1.0 0.1113849006
H  H114  1  0.90777000  0.17287000  0.93696000  1.0 0.1307638033
H  H115  1  0.82306000  0.12825000  0.88781000  1.0 0.0298679448
H  H116  1  0.77047000  0.09091000  0.89972000  1.0 0.0506481991
H  H117  1  0.78128000  0.06323000  0.86967000  1.0 0.0378683174
H  H118  1  0.00091000  0.13425000  0.01914000  1.0 0.0614296279
H  H119  1  0.02168000  0.26271000  0.02077000  1.0 0.0932725816
H  H120  1  0.13377000  0.26519000  0.00174000  1.0 0.1113849006
H  H121  1  0.97625000  0.23627000  0.06858000  1.0 0.1198698865
H  H122  1  0.93970000  0.23978000  0.11584000  1.0 0.0298679448
H  H123  1  0.90342000  0.19034000  0.13114000  1.0 0.0378683174
H  H124  1  0.87448000  0.19331000  0.09405000  1.0 0.0506481991
H  H125  1  0.19743000  0.66886000  0.98135000  1.0 0.0684462682
H  H126  1  0.17614000  0.54068000  0.98240000  1.0 0.0815883685
H  H127  1  0.06736000  0.54219000  0.00389000  1.0 0.1198698865
H  H128  1  0.22556000  0.56751000  0.93805000  1.0 0.1198698865
H  H129  1  0.26711000  0.56466000  0.89555000  1.0 0.0378683174
H  H130  1  0.33230000  0.61305000  0.91757000  1.0 0.0614296279
H  H131  1  0.30204000  0.61255000  0.87857000  1.0 0.0506481991
H  H132  1  0.21492000  0.68676000  0.01762000  1.0 0.0684462682
H  H133  1  0.19424000  0.55912000  0.02028000  1.0 0.0815883685
H  H134  1  0.06329000  0.53842000  0.00003000  1.0 0.1198698865
H  H135  1  0.28567000  0.62778000  0.05947000  1.0 0.1198698865
H  H136  1  0.36961000  0.66533000  0.09884000  1.0 0.0506481991
H  H137  1  0.42105000  0.73037000  0.11712000  1.0 0.0614296279
H  H138  1  0.41366000  0.69365000  0.07769000  1.0 0.0614296279
H  H139  1  0.32056000  0.03826000  0.30342000  1.0 0.1565119514
H  H140  1  0.15985000  0.75300000  0.40941000  1.0 0.3938149104
H  H141  1  0.18327000  0.79532000  0.38501000  1.0 0.3938149104
H  H142  1  0.36716000  0.86369000  0.47372000  1.0 0.1758612191
H  H143  1  0.34873000  0.87014000  0.51171000  1.0 0.1905646046
H  H144  1  0.32395000  0.57406000  0.11153000  1.0 0.1307638033
H  H145  1  0.17839000  0.51491000  0.11354000  1.0 0.1113849006
H  H146  1  0.32172000  0.64958000  0.21014000  1.0 0.1307638033
H  H147  1  0.26796000  0.67063000  0.21025000  1.0 0.1198698865
H  H148  1  0.13971000  0.59464000  0.24913000  1.0 0.1113849006
H  H149  1  0.15004000  0.50372000  0.17404000  1.0 0.1113849006
H  H150  1  0.07434000  0.45734000  0.19300000  1.0 0.1307638033
H  H151  1  0.05354000  0.48554000  0.19696000  1.0 0.1396410073
H  H152  1  0.08453000  0.48868000  0.23739000  1.0 0.1396410073
H  H153  1  0.24835000  0.72877000  0.21356000  1.0 0.1198698865
H  H154  1  0.28148000  0.82930000  0.31940000  1.0 0.1396410073
H  H155  1  0.21810000  0.67897000  0.31027000  1.0 0.1198698865
H  H156  1  0.28217000  0.96197000  0.45232000  1.0 0.1396410073
H  H157  1  0.24751000  0.03356000  0.51889000  1.0 0.1198698865
H  H158  1  0.21792000  0.90704000  0.53876000  1.0 0.1198698865
H  H159  1  0.26919000  0.05726000  0.59799000  1.0 0.1198698865
H  H160  1  0.15093000  0.97707000  0.64684000  1.0 0.1198698865
H  H161  1  0.13881000  0.89042000  0.54517000  1.0 0.1113849006
H  H162  1  0.07029000  0.87826000  0.61433000  1.0 0.1307638033
H  H163  1  0.08074000  0.84466000  0.59246000  1.0 0.1396410073
H  H164  1  0.05217000  0.85691000  0.56544000  1.0 0.1396410073
H  H165  1  0.32165000  0.11187000  0.67168000  1.0 0.1307638033
H  H166  1  0.32370000  0.21204000  0.75014000  1.0 0.1307638033
H  H167  1  0.17824000  0.06486000  0.66330000  1.0 0.1113849006
H  H168  1  0.99554000  0.71875000  0.11625000  1.0 0.1198698865
H  H169  1  0.14080000  0.84502000  0.21422000  1.0 0.1198698865
H  H170  1  0.13667000  0.76902000  0.11113000  1.0 0.1307638033
H  H171  1  0.09574000  0.86891000  0.22649000  1.0 0.1198698865
H  H172  1  0.96252000  0.79253000  0.25931000  1.0 0.1198698865
H  H173  1  0.96253000  0.70274000  0.17083000  1.0 0.1198698865
H  H174  1  0.88532000  0.65525000  0.18939000  1.0 0.1307638033
H  H175  1  0.87088000  0.68797000  0.20323000  1.0 0.1475065762
H  H176  1  0.89996000  0.68168000  0.23706000  1.0 0.1396410073
H  H177  1  0.13996000  0.92620000  0.29554000  1.0 0.1198698865
H  H178  1  0.13623000  0.02514000  0.36801000  1.0 0.1307638033
H  H179  1  0.99494000  0.87928000  0.27692000  1.0 0.1198698865
H  H180  1  0.00010000  0.98103000  0.86593000  1.0 0.0614296279
H  H181  1  0.02082000  0.00021000  0.75823000  1.0 0.0932725816
H  H182  1  0.13459000  0.13056000  0.86807000  1.0 0.1113849006
H  H183  1  0.97081000  0.90777000  0.73490000  1.0 0.1307638033
H  H184  1  0.93525000  0.82306000  0.69481000  1.0 0.0298679448
H  H185  1  0.87075000  0.77047000  0.67956000  1.0 0.0506481991
H  H186  1  0.91161000  0.78128000  0.71805000  1.0 0.0378683174
H  H187  1  0.98177000  0.00091000  0.86666000  1.0 0.0614296279
H  H188  1  0.00091000  0.02168000  0.75897000  1.0 0.0932725816
H  H189  1  0.13203000  0.13377000  0.86858000  1.0 0.1113849006
H  H190  1  0.90767000  0.97625000  0.73998000  1.0 0.1198698865
H  H191  1  0.82386000  0.93970000  0.69992000  1.0 0.0298679448
H  H192  1  0.77228000  0.90342000  0.71308000  1.0 0.0378683174
H  H193  1  0.78043000  0.87448000  0.68117000  1.0 0.0506481991
H  H194  1  0.21608000  0.19743000  0.52857000  1.0 0.0684462682
H  H195  1  0.19374000  0.17614000  0.63546000  1.0 0.0815883685
H  H196  1  0.06347000  0.06736000  0.52517000  1.0 0.1198698865
H  H197  1  0.28751000  0.22556000  0.65805000  1.0 0.1198698865
H  H198  1  0.37156000  0.26711000  0.70245000  1.0 0.0378683174
H  H199  1  0.41473000  0.33230000  0.71925000  1.0 0.0614296279
H  H200  1  0.42347000  0.30204000  0.68949000  1.0 0.0506481991
H  H201  1  0.19730000  0.21492000  0.52816000  1.0 0.0684462682
H  H202  1  0.17396000  0.19424000  0.63512000  1.0 0.0815883685
H  H203  1  0.06326000  0.06329000  0.52487000  1.0 0.1113849006
H  H204  1  0.22620000  0.28567000  0.65789000  1.0 0.1198698865
H  H205  1  0.27077000  0.36961000  0.70428000  1.0 0.0506481991
H  H206  1  0.30393000  0.42105000  0.69068000  1.0 0.0614296279
H  H207  1  0.33597000  0.41366000  0.72001000  1.0 0.0614296279
H  H208  1  0.73484000  0.01714000  0.69658000  1.0 0.1565119514
H  H209  1  0.34359000  0.75044000  0.59059000  1.0 0.3938149104
H  H210  1  0.41031000  0.79826000  0.61499000  1.0 0.3938149104
H  H211  1  0.38996000  0.89343000  0.52628000  1.0 0.1758612191
H  H212  1  0.35843000  0.83702000  0.48829000  1.0 0.1905646046
H  H213  1  0.46253000  0.21242000  0.88847000  1.0 0.1307638033
H  H214  1  0.40137000  0.06485000  0.88646000  1.0 0.1113849006
H  H215  1  0.43944000  0.11158000  0.78986000  1.0 0.1307638033
H  H216  1  0.46038000  0.05771000  0.78975000  1.0 0.1198698865
H  H217  1  0.34551000  0.89058000  0.75087000  1.0 0.1113849006
H  H218  1  0.32968000  0.97600000  0.82596000  1.0 0.1113849006
H  H219  1  0.26434000  0.88134000  0.80700000  1.0 0.1307638033
H  H220  1  0.28858000  0.85658000  0.80304000  1.0 0.1396410073
H  H221  1  0.25129000  0.84714000  0.76261000  1.0 0.1396410073
H  H222  1  0.51521000  0.03479000  0.78644000  1.0 0.1198698865
H  H223  1  0.50990000  0.96208000  0.68060000  1.0 0.1396410073
H  H224  1  0.36870000  0.90783000  0.68973000  1.0 0.1198698865
H  H225  1  0.50965000  0.82985000  0.54768000  1.0 0.1396410073
H  H226  1  0.51467000  0.72862000  0.48111000  1.0 0.1307638033
H  H227  1  0.36828000  0.67916000  0.46124000  1.0 0.1198698865
H  H228  1  0.45927000  0.67120000  0.40201000  1.0 0.1198698865
H  H229  1  0.33023000  0.50409000  0.35316000  1.0 0.1198698865
H  H230  1  0.34525000  0.59364000  0.45483000  1.0 0.1113849006
H  H231  1  0.26393000  0.45596000  0.38567000  1.0 0.1307638033
H  H232  1  0.25220000  0.48828000  0.40754000  1.0 0.1396410073
H  H233  1  0.29147000  0.48673000  0.43456000  1.0 0.1396410073
H  H234  1  0.44019000  0.64997000  0.32832000  1.0 0.1307638033
H  H235  1  0.46190000  0.57356000  0.24986000  1.0 0.1307638033
H  H236  1  0.40156000  0.51494000  0.33670000  1.0 0.1113849006
H  H237  1  0.60250000  0.87929000  0.88375000  1.0 0.1198698865
H  H238  1  0.63080000  0.92658000  0.78578000  1.0 0.1198698865
H  H239  1  0.65789000  0.02554000  0.88887000  1.0 0.1307638033
H  H240  1  0.64242000  0.86925000  0.77351000  1.0 0.1198698865
H  H241  1  0.53322000  0.70321000  0.74069000  1.0 0.1198698865
H  H242  1  0.53191000  0.79170000  0.82917000  1.0 0.1198698865
H  H243  1  0.46586000  0.69593000  0.81061000  1.0 0.1307638033
H  H244  1  0.48474000  0.66765000  0.79677000  1.0 0.1475065762
H  H245  1  0.44462000  0.66290000  0.76294000  1.0 0.1396410073
H  H246  1  0.63066000  0.84442000  0.70446000  1.0 0.1198698865
H  H247  1  0.65713000  0.76822000  0.63199000  1.0 0.1307638033
H  H248  1  0.60236000  0.71802000  0.72308000  1.0 0.1198698865
H  H249  1  0.11510000  0.13417000  0.13407000  1.0 0.0614296279
H  H250  1  0.24198000  0.26259000  0.24177000  1.0 0.0932725816
H  H251  1  0.26249000  0.26652000  0.13193000  1.0 0.1113849006
H  H252  1  0.17287000  0.23591000  0.26510000  1.0 0.1307638033
H  H253  1  0.12825000  0.24044000  0.30519000  1.0 0.0298679448
H  H254  1  0.09091000  0.19119000  0.32044000  1.0 0.0506481991
H  H255  1  0.06323000  0.19356000  0.28195000  1.0 0.0378683174
H  H256  1  0.13425000  0.11511000  0.13334000  1.0 0.0614296279
H  H257  1  0.26271000  0.24194000  0.24103000  1.0 0.0932725816
H  H258  1  0.26519000  0.26345000  0.13142000  1.0 0.1113849006
H  H259  1  0.23627000  0.16769000  0.26002000  1.0 0.1198698865
H  H260  1  0.23978000  0.12394000  0.30008000  1.0 0.0298679448
H  H261  1  0.19034000  0.05920000  0.28692000  1.0 0.0298679448
H  H262  1  0.19331000  0.09926000  0.31883000  1.0 0.0506481991
H  H263  1  0.66886000  0.68751000  0.47143000  1.0 0.0684462682
H  H264  1  0.54068000  0.55828000  0.36454000  1.0 0.0815883685
H  H265  1  0.54219000  0.53830000  0.47483000  1.0 0.1198698865
H  H266  1  0.56751000  0.62946000  0.34195000  1.0 0.1198698865
H  H267  1  0.56466000  0.66911000  0.29755000  1.0 0.0378683174
H  H268  1  0.61305000  0.69548000  0.28075000  1.0 0.0614296279
H  H269  1  0.61255000  0.73398000  0.31051000  1.0 0.0506481991
H  H270  1  0.68676000  0.66914000  0.47184000  1.0 0.0684462682
H  H271  1  0.55912000  0.53884000  0.36488000  1.0 0.0815883685
H  H272  1  0.53842000  0.53839000  0.47513000  1.0 0.1198698865
H  H273  1  0.62778000  0.56831000  0.34211000  1.0 0.1198698865
H  H274  1  0.66533000  0.56649000  0.29572000  1.0 0.0506481991
H  H275  1  0.73037000  0.61325000  0.30932000  1.0 0.0614296279
H  H276  1  0.69365000  0.61596000  0.27999000  1.0 0.0614296279
H  H277  1  0.98286000  0.67944000  0.71770000  1.0 0.1565119514
H  H278  1  0.24956000  0.84015000  0.59315000  1.0 0.3938149104
H  H279  1  0.20174000  0.81673000  0.61205000  1.0 0.3938149104
H  H280  1  0.10657000  0.63284000  0.49652000  1.0 0.1758612191
H  H281  1  0.16298000  0.65127000  0.52141000  1.0 0.1905646046
H  H282  1  0.78758000  0.67605000  0.25011000  1.0 0.1307638033
H  H283  1  0.93515000  0.82161000  0.33652000  1.0 0.1113849006
H  H284  1  0.88842000  0.67828000  0.32786000  1.0 0.1307638033
H  H285  1  0.94229000  0.73204000  0.40267000  1.0 0.1198698865
H  H286  1  0.10942000  0.86029000  0.45493000  1.0 0.1113849006
H  H287  1  0.02400000  0.84996000  0.35368000  1.0 0.1113849006
H  H288  1  0.11866000  0.92566000  0.38300000  1.0 0.1307638033
H  H289  1  0.14342000  0.94646000  0.43200000  1.0 0.1396410073
H  H290  1  0.15286000  0.91547000  0.40415000  1.0 0.1396410073
H  H291  1  0.96521000  0.75165000  0.48042000  1.0 0.1198698865
H  H292  1  0.03792000  0.71852000  0.54782000  1.0 0.1396410073
H  H293  1  0.09217000  0.78190000  0.46087000  1.0 0.1198698865
H  H294  1  0.17015000  0.71783000  0.67980000  1.0 0.1396410073
H  H295  1  0.27138000  0.75249000  0.78605000  1.0 0.1307638033
H  H296  1  0.32084000  0.78208000  0.68912000  1.0 0.1198698865
H  H297  1  0.32880000  0.73081000  0.78807000  1.0 0.1198698865
H  H298  1  0.49591000  0.84907000  0.82614000  1.0 0.1198698865
H  H299  1  0.40636000  0.86119000  0.75161000  1.0 0.1113849006
H  H300  1  0.54404000  0.92971000  0.80797000  1.0 0.1307638033
H  H301  1  0.51172000  0.91926000  0.76392000  1.0 0.1396410073
H  H302  1  0.51327000  0.94783000  0.80474000  1.0 0.1396410073
H  H303  1  0.35003000  0.67835000  0.79022000  1.0 0.1307638033
H  H304  1  0.42644000  0.67630000  0.88834000  1.0 0.1307638033
H  H305  1  0.48506000  0.82176000  0.88662000  1.0 0.1113849006
H  H306  1  0.12071000  0.00446000  0.72321000  1.0 0.1198698865
H  H307  1  0.07342000  0.85920000  0.70422000  1.0 0.1198698865
H  H308  1  0.97446000  0.86333000  0.63235000  1.0 0.1307638033
H  H309  1  0.13075000  0.90426000  0.77317000  1.0 0.1198698865
H  H310  1  0.29679000  0.03748000  0.83001000  1.0 0.1198698865
H  H311  1  0.20830000  0.03747000  0.74021000  1.0 0.1198698865
H  H312  1  0.30407000  0.11468000  0.76993000  1.0 0.1307638033
H  H313  1  0.33235000  0.12912000  0.81709000  1.0 0.1475065762
H  H314  1  0.33710000  0.10004000  0.78172000  1.0 0.1396410073
H  H315  1  0.15558000  0.86004000  0.78624000  1.0 0.1307638033
H  H316  1  0.23178000  0.86377000  0.88891000  1.0 0.1307638033
H  H317  1  0.28198000  0.00506000  0.88434000  1.0 0.1198698865
H  H318  1  0.86583000  0.99990000  0.98093000  1.0 0.0614296279
H  H319  1  0.73741000  0.97918000  0.97939000  1.0 0.0932725816
H  H320  1  0.73348000  0.86541000  0.99597000  1.0 0.1113849006
H  H321  1  0.76409000  0.02919000  0.93696000  1.0 0.1307638033
H  H322  1  0.75956000  0.06475000  0.88781000  1.0 0.0298679448
H  H323  1  0.80881000  0.12925000  0.89972000  1.0 0.0506481991
H  H324  1  0.80644000  0.08839000  0.86967000  1.0 0.0378683174
H  H325  1  0.88489000  0.01823000  0.01914000  1.0 0.0614296279
H  H326  1  0.75806000  0.99909000  0.02077000  1.0 0.0932725816
H  H327  1  0.73655000  0.86797000  0.00174000  1.0 0.1113849006
H  H328  1  0.83231000  0.09233000  0.06858000  1.0 0.1198698865
H  H329  1  0.87606000  0.17614000  0.11584000  1.0 0.0298679448
H  H330  1  0.94080000  0.22772000  0.13114000  1.0 0.0378683174
H  H331  1  0.90074000  0.21957000  0.09405000  1.0 0.0506481991
H  H332  1  0.31249000  0.78392000  0.98135000  1.0 0.0684462682
H  H333  1  0.44172000  0.80626000  0.98240000  1.0 0.0815883685
H  H334  1  0.46170000  0.93653000  0.00389000  1.0 0.1198698865
H  H335  1  0.37054000  0.71249000  0.93805000  1.0 0.1198698865
H  H336  1  0.33089000  0.62844000  0.89555000  1.0 0.0378683174
H  H337  1  0.30452000  0.58527000  0.91757000  1.0 0.0614296279
H  H338  1  0.26602000  0.57653000  0.87857000  1.0 0.0506481991
H  H339  1  0.33086000  0.80270000  0.01762000  1.0 0.0684462682
H  H340  1  0.46116000  0.82604000  0.02028000  1.0 0.0815883685
H  H341  1  0.46161000  0.93674000  0.00003000  1.0 0.1198698865
H  H342  1  0.43169000  0.77380000  0.05947000  1.0 0.1198698865
H  H343  1  0.43351000  0.72923000  0.09884000  1.0 0.0506481991
H  H344  1  0.38675000  0.69607000  0.11712000  1.0 0.0614296279
H  H345  1  0.38404000  0.66403000  0.07769000  1.0 0.0614296279
H  H346  1  0.96174000  0.26516000  0.28230000  1.0 0.1565119514
H  H347  1  0.24700000  0.65641000  0.40685000  1.0 0.3938149104
H  H348  1  0.20468000  0.58969000  0.38795000  1.0 0.3938149104
H  H349  1  0.13631000  0.61004000  0.50348000  1.0 0.1758612191
H  H350  1  0.12986000  0.64157000  0.47859000  1.0 0.1905646046
H  H351  1  0.42594000  0.53747000  0.74989000  1.0 0.1307638033
H  H352  1  0.48509000  0.59863000  0.66348000  1.0 0.1113849006
H  H353  1  0.35042000  0.56056000  0.67214000  1.0 0.1307638033
H  H354  1  0.32937000  0.53962000  0.59733000  1.0 0.1198698865
H  H355  1  0.40536000  0.65449000  0.54507000  1.0 0.1113849006
H  H356  1  0.49628000  0.67032000  0.64632000  1.0 0.1113849006
H  H357  1  0.54266000  0.73566000  0.61700000  1.0 0.1307638033
H  H358  1  0.51446000  0.71142000  0.56800000  1.0 0.1396410073
H  H359  1  0.51132000  0.74871000  0.59585000  1.0 0.1396410073
H  H360  1  0.27123000  0.48479000  0.51958000  1.0 0.1198698865
H  H361  1  0.17070000  0.49010000  0.45218000  1.0 0.1396410073
H  H362  1  0.32103000  0.63130000  0.53913000  1.0 0.1198698865
H  H363  1  0.03803000  0.49035000  0.32020000  1.0 0.1396410073
H  H364  1  0.96644000  0.48533000  0.21395000  1.0 0.1198698865
H  H365  1  0.09296000  0.63172000  0.31088000  1.0 0.1198698865
H  H366  1  0.94274000  0.54073000  0.21193000  1.0 0.1198698865
H  H367  1  0.02293000  0.66977000  0.17386000  1.0 0.1198698865
H  H368  1  0.10958000  0.65475000  0.24839000  1.0 0.1113849006
H  H369  1  0.12174000  0.73607000  0.19203000  1.0 0.1307638033
H  H370  1  0.15534000  0.74780000  0.23608000  1.0 0.1396410073
H  H371  1  0.14309000  0.70853000  0.19526000  1.0 0.1396410073
H  H372  1  0.88813000  0.55981000  0.20978000  1.0 0.1307638033
H  H373  1  0.78796000  0.53810000  0.11166000  1.0 0.1307638033
H  H374  1  0.93514000  0.59844000  0.11338000  1.0 0.1113849006
H  H375  1  0.28125000  0.39750000  0.27679000  1.0 0.1198698865
H  H376  1  0.15498000  0.36920000  0.29578000  1.0 0.1198698865
H  H377  1  0.23098000  0.34211000  0.36765000  1.0 0.1307638033
H  H378  1  0.13109000  0.35758000  0.22683000  1.0 0.1198698865
H  H379  1  0.20747000  0.46678000  0.16999000  1.0 0.1198698865
H  H380  1  0.29726000  0.46809000  0.25979000  1.0 0.1198698865
H  H381  1  0.34475000  0.53414000  0.23007000  1.0 0.1307638033
H  H382  1  0.31203000  0.51526000  0.18291000  1.0 0.1475065762
H  H383  1  0.31832000  0.55538000  0.21828000  1.0 0.1396410073
H  H384  1  0.07380000  0.36934000  0.21376000  1.0 0.1198698865
H  H385  1  0.97486000  0.34287000  0.11109000  1.0 0.1307638033
H  H386  1  0.12072000  0.39764000  0.11566000  1.0 0.1198698865
H  H387  1  0.01897000  0.88490000  0.01907000  1.0 0.0614296279
H  H388  1  0.99979000  0.75802000  0.02061000  1.0 0.0932725816
H  H389  1  0.86944000  0.73751000  0.00403000  1.0 0.1113849006
H  H390  1  0.09223000  0.82713000  0.06304000  1.0 0.1307638033
H  H391  1  0.17694000  0.87175000  0.11219000  1.0 0.0298679448
H  H392  1  0.22953000  0.90909000  0.10028000  1.0 0.0506481991
H  H393  1  0.21872000  0.93677000  0.13033000  1.0 0.0378683174
H  H394  1  0.99909000  0.86575000  0.98086000  1.0 0.0614296279
H  H395  1  0.97832000  0.73729000  0.97923000  1.0 0.0932725816
H  H396  1  0.86623000  0.73481000  0.99826000  1.0 0.1113849006
H  H397  1  0.02375000  0.76373000  0.93142000  1.0 0.1198698865
H  H398  1  0.06030000  0.76022000  0.88416000  1.0 0.0298679448
H  H399  1  0.09658000  0.80966000  0.86886000  1.0 0.0298679448
H  H400  1  0.12552000  0.80669000  0.90595000  1.0 0.0506481991
H  H401  1  0.80257000  0.33114000  0.01865000  1.0 0.0684462682
H  H402  1  0.82386000  0.45932000  0.01760000  1.0 0.0815883685
H  H403  1  0.93264000  0.45781000  0.99611000  1.0 0.1198698865
H  H404  1  0.77444000  0.43249000  0.06195000  1.0 0.1198698865
H  H405  1  0.73289000  0.43534000  0.10445000  1.0 0.0378683174
H  H406  1  0.66770000  0.38695000  0.08243000  1.0 0.0614296279
H  H407  1  0.69796000  0.38745000  0.12143000  1.0 0.0506481991
H  H408  1  0.78508000  0.31324000  0.98238000  1.0 0.0684462682
H  H409  1  0.80576000  0.44088000  0.97972000  1.0 0.0815883685
H  H410  1  0.93671000  0.46158000  0.99997000  1.0 0.1198698865
H  H411  1  0.71433000  0.37222000  0.94053000  1.0 0.1198698865
H  H412  1  0.63039000  0.33467000  0.90116000  1.0 0.0506481991
H  H413  1  0.57895000  0.26963000  0.88288000  1.0 0.0614296279
H  H414  1  0.58634000  0.30635000  0.92231000  1.0 0.0614296279
H  H415  1  0.67944000  0.96174000  0.69658000  1.0 0.1565119514
H  H416  1  0.84015000  0.24700000  0.59059000  1.0 0.3938149104
H  H417  1  0.81673000  0.20468000  0.61499000  1.0 0.3938149104
H  H418  1  0.63284000  0.13632000  0.52628000  1.0 0.1758612191
H  H419  1  0.65127000  0.12986000  0.48829000  1.0 0.1905646046
H  H420  1  0.67605000  0.42594000  0.88847000  1.0 0.1307638033
H  H421  1  0.82161000  0.48509000  0.88646000  1.0 0.1113849006
H  H422  1  0.67828000  0.35042000  0.78986000  1.0 0.1307638033
H  H423  1  0.73204000  0.32937000  0.78975000  1.0 0.1198698865
H  H424  1  0.86029000  0.40536000  0.75087000  1.0 0.1113849006
H  H425  1  0.84996000  0.49628000  0.82596000  1.0 0.1113849006
H  H426  1  0.92566000  0.54266000  0.80700000  1.0 0.1307638033
H  H427  1  0.94646000  0.51446000  0.80304000  1.0 0.1396410073
H  H428  1  0.91547000  0.51132000  0.76261000  1.0 0.1396410073
H  H429  1  0.75165000  0.27123000  0.78644000  1.0 0.1198698865
H  H430  1  0.71852000  0.17070000  0.68060000  1.0 0.1396410073
H  H431  1  0.78190000  0.32103000  0.68973000  1.0 0.1198698865
H  H432  1  0.71783000  0.03803000  0.54768000  1.0 0.1396410073
H  H433  1  0.75249000  0.96644000  0.48111000  1.0 0.1198698865
H  H434  1  0.78208000  0.09296000  0.46124000  1.0 0.1198698865
H  H435  1  0.73081000  0.94274000  0.40201000  1.0 0.1198698865
H  H436  1  0.84907000  0.02293000  0.35316000  1.0 0.1198698865
H  H437  1  0.86119000  0.10958000  0.45483000  1.0 0.1113849006
H  H438  1  0.92971000  0.12174000  0.38567000  1.0 0.1307638033
H  H439  1  0.91926000  0.15534000  0.40754000  1.0 0.1396410073
H  H440  1  0.94783000  0.14309000  0.43456000  1.0 0.1396410073
H  H441  1  0.67835000  0.88813000  0.32832000  1.0 0.1307638033
H  H442  1  0.67630000  0.78796000  0.24986000  1.0 0.1307638033
H  H443  1  0.82176000  0.93514000  0.33670000  1.0 0.1113849006
H  H444  1  0.00446000  0.28125000  0.88375000  1.0 0.1198698865
H  H445  1  0.85920000  0.15498000  0.78578000  1.0 0.1198698865
H  H446  1  0.86333000  0.23098000  0.88887000  1.0 0.1307638033
H  H447  1  0.90426000  0.13109000  0.77351000  1.0 0.1198698865
H  H448  1  0.03748000  0.20747000  0.74069000  1.0 0.1198698865
H  H449  1  0.03747000  0.29726000  0.82917000  1.0 0.1198698865
H  H450  1  0.11468000  0.34475000  0.81061000  1.0 0.1307638033
H  H451  1  0.12912000  0.31203000  0.79677000  1.0 0.1475065762
H  H452  1  0.10004000  0.31832000  0.76294000  1.0 0.1396410073
H  H453  1  0.86004000  0.07380000  0.70446000  1.0 0.1198698865
H  H454  1  0.86377000  0.97486000  0.63199000  1.0 0.1307638033
H  H455  1  0.00506000  0.12072000  0.72308000  1.0 0.1198698865
H  H456  1  0.99990000  0.01897000  0.13407000  1.0 0.0614296279
H  H457  1  0.97918000  0.99979000  0.24177000  1.0 0.0932725816
H  H458  1  0.86541000  0.86944000  0.13193000  1.0 0.1113849006
H  H459  1  0.02919000  0.09223000  0.26510000  1.0 0.1307638033
H  H460  1  0.06475000  0.17694000  0.30519000  1.0 0.0298679448
H  H461  1  0.12925000  0.22953000  0.32044000  1.0 0.0506481991
H  H462  1  0.08839000  0.21872000  0.28195000  1.0 0.0378683174
H  H463  1  0.01823000  0.99909000  0.13334000  1.0 0.0614296279
H  H464  1  0.99909000  0.97832000  0.24103000  1.0 0.0932725816
H  H465  1  0.86797000  0.86623000  0.13142000  1.0 0.1113849006
H  H466  1  0.09233000  0.02375000  0.26002000  1.0 0.1198698865
H  H467  1  0.17614000  0.06030000  0.30008000  1.0 0.0298679448
H  H468  1  0.22772000  0.09658000  0.28692000  1.0 0.0298679448
H  H469  1  0.21957000  0.12552000  0.31883000  1.0 0.0506481991
H  H470  1  0.78392000  0.80257000  0.47143000  1.0 0.0684462682
H  H471  1  0.80626000  0.82386000  0.36454000  1.0 0.0815883685
H  H472  1  0.93653000  0.93264000  0.47483000  1.0 0.1198698865
H  H473  1  0.71249000  0.77444000  0.34195000  1.0 0.1198698865
H  H474  1  0.62844000  0.73289000  0.29755000  1.0 0.0378683174
H  H475  1  0.58527000  0.66770000  0.28075000  1.0 0.0614296279
H  H476  1  0.57653000  0.69796000  0.31051000  1.0 0.0506481991
H  H477  1  0.80270000  0.78508000  0.47184000  1.0 0.0684462682
H  H478  1  0.82604000  0.80576000  0.36488000  1.0 0.0815883685
H  H479  1  0.93674000  0.93671000  0.47513000  1.0 0.1198698865
H  H480  1  0.77380000  0.71433000  0.34211000  1.0 0.1198698865
H  H481  1  0.72923000  0.63039000  0.29572000  1.0 0.0506481991
H  H482  1  0.69607000  0.57895000  0.30932000  1.0 0.0614296279
H  H483  1  0.66403000  0.58634000  0.27999000  1.0 0.0614296279
H  H484  1  0.26516000  0.98286000  0.30342000  1.0 0.1565119514
H  H485  1  0.65641000  0.24956000  0.40941000  1.0 0.3938149104
H  H486  1  0.58969000  0.20174000  0.38501000  1.0 0.3938149104
H  H487  1  0.61004000  0.10656000  0.47372000  1.0 0.1758612191
H  H488  1  0.64157000  0.16298000  0.51171000  1.0 0.1905646046
H  H489  1  0.53747000  0.78758000  0.11153000  1.0 0.1307638033
H  H490  1  0.59863000  0.93515000  0.11354000  1.0 0.1113849006
H  H491  1  0.56056000  0.88842000  0.21014000  1.0 0.1307638033
H  H492  1  0.53962000  0.94229000  0.21025000  1.0 0.1198698865
H  H493  1  0.65449000  0.10942000  0.24913000  1.0 0.1113849006
H  H494  1  0.67032000  0.02400000  0.17404000  1.0 0.1113849006
H  H495  1  0.73566000  0.11866000  0.19300000  1.0 0.1307638033
H  H496  1  0.71142000  0.14342000  0.19696000  1.0 0.1396410073
H  H497  1  0.74871000  0.15286000  0.23739000  1.0 0.1396410073
H  H498  1  0.48479000  0.96521000  0.21356000  1.0 0.1198698865
H  H499  1  0.49010000  0.03792000  0.31940000  1.0 0.1396410073
H  H500  1  0.63130000  0.09217000  0.31027000  1.0 0.1198698865
H  H501  1  0.49035000  0.17015000  0.45232000  1.0 0.1396410073
H  H502  1  0.48533000  0.27138000  0.51889000  1.0 0.1198698865
H  H503  1  0.63172000  0.32084000  0.53876000  1.0 0.1198698865
H  H504  1  0.54073000  0.32880000  0.59799000  1.0 0.1198698865
H  H505  1  0.66977000  0.49591000  0.64684000  1.0 0.1198698865
H  H506  1  0.65475000  0.40636000  0.54517000  1.0 0.1113849006
H  H507  1  0.73607000  0.54404000  0.61433000  1.0 0.1307638033
H  H508  1  0.74780000  0.51172000  0.59246000  1.0 0.1396410073
H  H509  1  0.70853000  0.51327000  0.56544000  1.0 0.1396410073
H  H510  1  0.55981000  0.35003000  0.67168000  1.0 0.1307638033
H  H511  1  0.53810000  0.42644000  0.75014000  1.0 0.1307638033
H  H512  1  0.59844000  0.48506000  0.66330000  1.0 0.1113849006
H  H513  1  0.39750000  0.12071000  0.11625000  1.0 0.1198698865
H  H514  1  0.36920000  0.07342000  0.21422000  1.0 0.1198698865
H  H515  1  0.34211000  0.97446000  0.11113000  1.0 0.1307638033
H  H516  1  0.35758000  0.13075000  0.22649000  1.0 0.1198698865
H  H517  1  0.46678000  0.29679000  0.25931000  1.0 0.1198698865
H  H518  1  0.46809000  0.20830000  0.17083000  1.0 0.1198698865
H  H519  1  0.53414000  0.30407000  0.18939000  1.0 0.1307638033
H  H520  1  0.51526000  0.33235000  0.20323000  1.0 0.1475065762
H  H521  1  0.55538000  0.33710000  0.23706000  1.0 0.1396410073
H  H522  1  0.36934000  0.15558000  0.29554000  1.0 0.1198698865
H  H523  1  0.34287000  0.23178000  0.36801000  1.0 0.1307638033
H  H524  1  0.39764000  0.28198000  0.27692000  1.0 0.1198698865
H  H525  1  0.88490000  0.86583000  0.86593000  1.0 0.0614296279
H  H526  1  0.75802000  0.73741000  0.75823000  1.0 0.0932725816
H  H527  1  0.73751000  0.73348000  0.86807000  1.0 0.1113849006
H  H528  1  0.82713000  0.76409000  0.73490000  1.0 0.1307638033
H  H529  1  0.87175000  0.75956000  0.69481000  1.0 0.0298679448
H  H530  1  0.90909000  0.80881000  0.67956000  1.0 0.0506481991
H  H531  1  0.93677000  0.80644000  0.71805000  1.0 0.0378683174
H  H532  1  0.86575000  0.88489000  0.86666000  1.0 0.0614296279
H  H533  1  0.73729000  0.75806000  0.75897000  1.0 0.0932725816
H  H534  1  0.73481000  0.73655000  0.86858000  1.0 0.1113849006
H  H535  1  0.76373000  0.83231000  0.73998000  1.0 0.1198698865
H  H536  1  0.76022000  0.87606000  0.69992000  1.0 0.0298679448
H  H537  1  0.80966000  0.94080000  0.71308000  1.0 0.0378683174
H  H538  1  0.80669000  0.90074000  0.68117000  1.0 0.0506481991
H  H539  1  0.33114000  0.31249000  0.52857000  1.0 0.0684462682
H  H540  1  0.45932000  0.44172000  0.63546000  1.0 0.0815883685
H  H541  1  0.45781000  0.46170000  0.52517000  1.0 0.1198698865
H  H542  1  0.43249000  0.37054000  0.65805000  1.0 0.1198698865
H  H543  1  0.43534000  0.33089000  0.70245000  1.0 0.0378683174
H  H544  1  0.38695000  0.30452000  0.71925000  1.0 0.0614296279
H  H545  1  0.38745000  0.26602000  0.68949000  1.0 0.0506481991
H  H546  1  0.31324000  0.33086000  0.52816000  1.0 0.0684462682
H  H547  1  0.44088000  0.46116000  0.63512000  1.0 0.0815883685
H  H548  1  0.46158000  0.46161000  0.52487000  1.0 0.1198698865
H  H549  1  0.37222000  0.43169000  0.65789000  1.0 0.1198698865
H  H550  1  0.33467000  0.43351000  0.70428000  1.0 0.0506481991
H  H551  1  0.26963000  0.38675000  0.69068000  1.0 0.0614296279
H  H552  1  0.30635000  0.38404000  0.72001000  1.0 0.0614296279
H  H553  1  0.01955000  0.29240000  0.31195000  1.0 0.1679603794
H  H554  1  0.71823000  0.28332000  0.00155000  1.0 0.0932725816
H  H555  1  0.98045000  0.70760000  0.68805000  1.0 0.1679603794
H  H556  1  0.28177000  0.71668000  0.99845000  1.0 0.0932725816
H  H557  1  0.29240000  0.98045000  0.27285000  1.0 0.1679603794
H  H558  1  0.28332000  0.28177000  0.56509000  1.0 0.0932725816
H  H559  1  0.70760000  0.01955000  0.72715000  1.0 0.1679603794
H  H560  1  0.71668000  0.71823000  0.43491000  1.0 0.0932725816
H  H561  1  0.08717000  0.91002000  0.99719000  1.0 0.1307638033
H  H562  1  0.08026000  0.91241000  0.99267000  1.0 0.0932725816
H  H563  1  0.91283000  0.08998000  0.00281000  1.0 0.1307638033
H  H564  1  0.91974000  0.08759000  0.00733000  1.0 0.0932725816
H  H565  1  0.91002000  0.91283000  0.82285000  1.0 0.1307638033
H  H566  1  0.91241000  0.91974000  0.83215000  1.0 0.0932725816
H  H567  1  0.08998000  0.08717000  0.17715000  1.0 0.1307638033
H  H568  1  0.08759000  0.08026000  0.16785000  1.0 0.0932725816
C  C1  1  0.20920000  0.39550000  0.73610000  1.0 0.57738717
C  C2  1  0.16840000  0.33236000  0.71416000  1.0 -0.0211810779
C  C3  1  0.17919000  0.30420000  0.72799000  1.0 -0.1111936942
C  C4  1  0.14044000  0.24650000  0.70894000  1.0 -0.0532101484
C  C5  1  0.09080000  0.21698000  0.67618000  1.0 -0.160592778
C  C6  1  0.08001000  0.24520000  0.66241000  1.0 0.0614296279
C  C7  1  0.11876000  0.30280000  0.68136000  1.0 -0.1483678832
C  C8  1  0.15240000  0.21770000  0.72510000  1.0 0.5551091546
C  C9  1  0.02516000  0.21350000  0.62686000  1.0 0.0815883685
C  C10  1  0.02442000  0.23512000  0.59690000  1.0 -0.2099580596
C  C11  1  0.97404000  0.20740000  0.56624000  1.0 0.0684462682
C  C12  1  0.92434000  0.15820000  0.56554000  1.0 -0.2216190158
C  C13  1  0.92511000  0.13671000  0.59560000  1.0 0.1905646046
C  C14  1  0.97546000  0.16440000  0.62626000  1.0 -0.2099580596
C  C15  1  0.87290000  0.08250000  0.59400000  1.0 -0.4597611715
C  C16  1  0.97187000  0.23000000  0.53447000  1.0 0.0614296279
C  C17  1  0.00808000  0.24870000  0.51318000  1.0 -0.1408630882
C  C18  1  0.00440000  0.26800000  0.48240000  1.0 -0.0211810779
C  C19  1  0.96459000  0.26860000  0.47279000  1.0 -0.121765487
C  C20  1  0.92838000  0.24990000  0.49408000  1.0 -0.0308755833
C  C21  1  0.93210000  0.23060000  0.52490000  1.0 -0.160592778
C  C22  1  0.88960000  0.25620000  0.48720000  1.0 0.5722999567
C  C23  1  0.04130000  0.28560000  0.45730000  1.0 0.5918273815
C  C24  1  0.76920000  0.25600000  0.36740000  1.0 0.5722999567
C  C25  1  0.75623000  0.25020000  0.32223000  1.0 -0.0308755833
C  C26  1  0.79620000  0.26900000  0.30480000  1.0 -0.121765487
C  C27  1  0.78580000  0.26790000  0.26410000  1.0 -0.0211810779
C  C28  1  0.73553000  0.24820000  0.24113000  1.0 -0.1408630882
C  C29  1  0.69556000  0.22940000  0.25856000  1.0 0.0614296279
C  C30  1  0.70590000  0.23050000  0.29920000  1.0 -0.160592778
C  C31  1  0.82830000  0.28590000  0.24440000  1.0 0.5918273815
C  C32  1  0.64094000  0.20750000  0.23384000  1.0 0.0684462682
C  C33  1  0.63850000  0.23600000  0.21170000  1.0 -0.2099580596
C  C34  1  0.58725000  0.21480000  0.18925000  1.0 0.0815883685
C  C35  1  0.53839000  0.16510000  0.18889000  1.0 -0.2216190158
C  C36  1  0.54080000  0.13670000  0.21110000  1.0 0.2023199377
C  C37  1  0.59207000  0.15790000  0.23357000  1.0 -0.2216190158
C  C38  1  0.48810000  0.07970000  0.20840000  1.0 -0.4597611715
C  C39  1  0.58303000  0.24510000  0.16493000  1.0 0.0614296279
C  C40  1  0.62167000  0.30272000  0.18379000  1.0 -0.1408630882
C  C41  1  0.61820000  0.33226000  0.16386000  1.0 -0.0211810779
C  C42  1  0.57597000  0.30400000  0.12497000  1.0 -0.1111936942
C  C43  1  0.53723000  0.24627000  0.10610000  1.0 -0.0686844029
C  C44  1  0.54080000  0.21683000  0.12603000  1.0 -0.160592778
C  C45  1  0.65980000  0.39580000  0.18560000  1.0 0.57738717
C  C46  1  0.49360000  0.21760000  0.06520000  1.0 0.5508397881
C  C47  1  0.96420000  0.02870000  0.33850000  1.0 0.5392641946
C  C48  1  0.95416000  0.06121000  0.32397000  1.0 -0.0120543974
C  C49  1  0.90510000  0.03376000  0.29146000  1.0 -0.1787744722
C  C50  1  0.89485000  0.06370000  0.28095000  1.0 0.0684462682
C  C51  1  0.93345000  0.12080000  0.30285000  1.0 -0.1691250334
C  C52  1  0.98250000  0.14824000  0.33534000  1.0 -0.0211810779
C  C53  1  0.99276000  0.11830000  0.34586000  1.0 -0.1337796038
C  C54  1  0.02460000  0.20990000  0.36210000  1.0 0.5722999567
C  C55  1  0.83885000  0.03350000  0.24815000  1.0 0.0815883685
C  C56  1  0.83670000  0.06010000  0.22360000  1.0 -0.2099580596
C  C57  1  0.78584000  0.03350000  0.19434000  1.0 0.0815883685
C  C58  1  0.73724000  0.98030000  0.18954000  1.0 -0.2216190158
C  C59  1  0.73939000  0.95370000  0.21409000  1.0 0.2051634008
C  C60  1  0.79025000  0.98030000  0.24335000  1.0 -0.2099580596
C  C61  1  0.68670000  0.89740000  0.21110000  1.0 -0.4597611715
C  C62  1  0.78212000  0.06290000  0.16822000  1.0 0.0684462682
C  C63  1  0.81740000  0.12010000  0.18690000  1.0 -0.160592778
C  C64  1  0.81220000  0.14756000  0.16556000  1.0 -0.0211810779
C  C65  1  0.77174000  0.11790000  0.12544000  1.0 -0.121765487
C  C66  1  0.73645000  0.06070000  0.10675000  1.0 -0.0308755833
C  C67  1  0.74160000  0.03317000  0.12817000  1.0 -0.1691250334
C  C68  1  0.69110000  0.02910000  0.06480000  1.0 0.5392641946
C  C69  1  0.84840000  0.20950000  0.18490000  1.0 0.5722999567
C  C70  1  0.16480000  0.08490000  0.99530000  1.0 0.3020035787
C  C71  1  0.19630000  0.07050000  0.01100000  1.0 0.0298679448
C  C72  1  0.16900000  0.02080000  0.01720000  1.0 -0.0807084283
C  C73  1  0.19390000  0.00220000  0.02090000  1.0 -0.0211810779
C  C74  1  0.24590000  0.03320000  0.01810000  1.0 -0.086341934
C  C75  1  0.27320000  0.08290000  0.01190000  1.0 0.0378683174
C  C76  1  0.24830000  0.10140000  0.00830000  1.0 -0.1111936942
C  C77  1  0.32910000  0.11730000  0.00860000  1.0 0.2628335153
C  C78  1  0.16630000  0.95200000  0.03350000  1.0 -0.0308755833
C  C79  1  0.19770000  0.94600000  0.05670000  1.0 -0.2479418729
C  C80  1  0.16850000  0.08950000  0.00440000  1.0 0.3328246736
C  C81  1  0.18580000  0.06060000  0.99020000  1.0 0.0231921111
C  C82  1  0.15190000  0.00440000  0.98290000  1.0 -0.086341934
C  C83  1  0.17300000  0.98210000  0.97890000  1.0 -0.0120543974
C  C84  1  0.22790000  0.01590000  0.98200000  1.0 -0.0807084283
C  C85  1  0.26180000  0.07210000  0.98930000  1.0 0.0298679448
C  C86  1  0.24080000  0.09440000  0.99340000  1.0 -0.1111936942
C  C87  1  0.32040000  0.10940000  0.99120000  1.0 0.2628335153
C  C88  1  0.13240000  0.91940000  0.96700000  1.0 0.011789765
C  C89  1  0.13680000  0.88990000  0.93890000  1.0 -0.2617719954
C  C90  1  0.64130000  0.11280000  0.00570000  1.0 0.3638998309
C  C91  1  0.61650000  0.13620000  0.00670000  1.0 0.0298679448
C  C92  1  0.65040000  0.19270000  0.01550000  1.0 -0.0686844029
C  C93  1  0.62850000  0.21430000  0.01960000  1.0 0.011789765
C  C94  1  0.57290000  0.17940000  0.01490000  1.0 -0.0308755833
C  C95  1  0.53910000  0.12280000  0.00610000  1.0 0.011789765
C  C96  1  0.56090000  0.10130000  0.00200000  1.0 -0.2216190158
C  C97  1  0.48250000  0.08630000  0.00800000  1.0 0.2799669562
C  C98  1  0.66610000  0.27590000  0.02740000  1.0 0.0298679448
C  C99  1  0.66020000  0.30520000  0.05420000  1.0 -0.2783448639
C  C100  1  0.63410000  0.10530000  0.99400000  1.0 0.3655331546
C  C101  1  0.60980000  0.12900000  0.99400000  1.0 0.0298679448
C  C102  1  0.63550000  0.17740000  0.98610000  1.0 -0.0807084283
C  C103  1  0.61020000  0.19590000  0.98370000  1.0 0.0298679448
C  C104  1  0.55760000  0.16420000  0.98520000  1.0 -0.0532101484
C  C105  1  0.53360000  0.11740000  0.99500000  1.0 0.011789765
C  C106  1  0.55710000  0.09710000  0.99680000  1.0 -0.2216190158
C  C107  1  0.47470000  0.07940000  0.99250000  1.0 0.2799669562
C  C108  1  0.63980000  0.24930000  0.97530000  1.0 0.0298679448
C  C109  1  0.60690000  0.25200000  0.94870000  1.0 -0.2783448639
C  C110  1  0.65940000  0.47310000  0.26390000  1.0 0.5722999567
C  C111  1  0.61820000  0.45424000  0.28584000  1.0 -0.0211810779
C  C112  1  0.57621000  0.45120000  0.27201000  1.0 -0.1111936942
C  C113  1  0.53756000  0.43150000  0.29106000  1.0 -0.0532101484
C  C114  1  0.54080000  0.41462000  0.32382000  1.0 -0.160592778
C  C115  1  0.58279000  0.41760000  0.33759000  1.0 0.0614296279
C  C116  1  0.62144000  0.43740000  0.31864000  1.0 -0.1483678832
C  C117  1  0.49260000  0.42730000  0.27490000  1.0 0.5508397881
C  C118  1  0.58664000  0.39830000  0.37314000  1.0 0.0815883685
C  C119  1  0.63822000  0.42752000  0.40310000  1.0 -0.2099580596
C  C120  1  0.64116000  0.40780000  0.43376000  1.0 0.0684462682
C  C121  1  0.59266000  0.35880000  0.43446000  1.0 -0.2216190158
C  C122  1  0.54111000  0.32951000  0.40440000  1.0 0.1905646046
C  C123  1  0.53814000  0.34920000  0.37374000  1.0 -0.2099580596
C  C124  1  0.48850000  0.27890000  0.40600000  1.0 -0.4597611715
C  C125  1  0.69553000  0.43740000  0.46553000  1.0 0.0614296279
C  C126  1  0.73552000  0.49490000  0.48682000  1.0 -0.1408630882
C  C127  1  0.78560000  0.52200000  0.51760000  1.0 -0.0211810779
C  C128  1  0.79581000  0.49180000  0.52721000  1.0 -0.121765487
C  C129  1  0.75582000  0.43430000  0.50592000  1.0 -0.0308755833
C  C130  1  0.70570000  0.40720000  0.47510000  1.0 -0.160592778
C  C131  1  0.76900000  0.40240000  0.51280000  1.0 0.5722999567
C  C132  1  0.82830000  0.58400000  0.54270000  1.0 0.5918273815
C  C133  1  0.88860000  0.40180000  0.63260000  1.0 0.5722999567
C  C134  1  0.92797000  0.43400000  0.67777000  1.0 -0.0308755833
C  C135  1  0.96420000  0.49140000  0.69520000  1.0 -0.121765487
C  C136  1  0.00380000  0.52170000  0.73590000  1.0 -0.0211810779
C  C137  1  0.00707000  0.49440000  0.75887000  1.0 -0.1408630882
C  C138  1  0.97084000  0.43700000  0.74144000  1.0 0.0614296279
C  C139  1  0.93130000  0.40670000  0.70080000  1.0 -0.160592778
C  C140  1  0.04150000  0.58390000  0.75560000  1.0 0.5918273815
C  C141  1  0.97366000  0.40710000  0.76616000  1.0 0.0684462682
C  C142  1  0.02430000  0.42680000  0.78830000  1.0 -0.2099580596
C  C143  1  0.02555000  0.39800000  0.81075000  1.0 0.0815883685
C  C144  1  0.97621000  0.34950000  0.81111000  1.0 -0.2216190158
C  C145  1  0.92560000  0.32970000  0.78890000  1.0 0.2023199377
C  C146  1  0.92433000  0.35850000  0.76643000  1.0 -0.2216190158
C  C147  1  0.87130000  0.27970000  0.79160000  1.0 -0.4597611715
C  C148  1  0.08017000  0.41810000  0.83507000  1.0 0.0614296279
C  C149  1  0.11893000  0.43788000  0.81621000  1.0 -0.1408630882
C  C150  1  0.16840000  0.45434000  0.83614000  1.0 -0.0211810779
C  C151  1  0.17903000  0.45100000  0.87503000  1.0 -0.1111936942
C  C152  1  0.14017000  0.43113000  0.89390000  1.0 -0.0686844029
C  C153  1  0.09080000  0.41477000  0.87397000  1.0 -0.160592778
C  C154  1  0.21020000  0.47420000  0.81440000  1.0 0.57738717
C  C155  1  0.15240000  0.42840000  0.93480000  1.0 0.5508397881
C  C156  1  0.69020000  0.62570000  0.66150000  1.0 0.5392641946
C  C157  1  0.73724000  0.63019000  0.67603000  1.0 -0.0211810779
C  C158  1  0.74230000  0.61364000  0.70854000  1.0 -0.1787744722
C  C159  1  0.78275000  0.61390000  0.71905000  1.0 0.0684462682
C  C160  1  0.81795000  0.63060000  0.69715000  1.0 -0.1691250334
C  C161  1  0.81290000  0.64716000  0.66466000  1.0 -0.0211810779
C  C162  1  0.77244000  0.64690000  0.65414000  1.0 -0.1337796038
C  C163  1  0.84780000  0.66250000  0.63790000  1.0 0.5722999567
C  C164  1  0.78535000  0.59070000  0.75185000  1.0 0.0815883685
C  C165  1  0.83650000  0.61310000  0.77640000  1.0 -0.2099580596
C  C166  1  0.83916000  0.59150000  0.80566000  1.0 0.0815883685
C  C167  1  0.79076000  0.54770000  0.81046000  1.0 -0.2216190158
C  C168  1  0.73961000  0.52530000  0.78591000  1.0 0.2023199377
C  C169  1  0.73695000  0.54690000  0.75665000  1.0 -0.2099580596
C  C170  1  0.68630000  0.47560000  0.78890000  1.0 -0.4597611715
C  C171  1  0.89468000  0.61390000  0.83178000  1.0 0.0684462682
C  C172  1  0.93320000  0.63050000  0.81310000  1.0 -0.160592778
C  C173  1  0.98200000  0.64664000  0.83444000  1.0 -0.0211810779
C  C174  1  0.99246000  0.64630000  0.87456000  1.0 -0.121765487
C  C175  1  0.95395000  0.62970000  0.89325000  1.0 -0.0308755833
C  C176  1  0.90500000  0.61343000  0.87183000  1.0 -0.1691250334
C  C177  1  0.96430000  0.62630000  0.93520000  1.0 0.5392641946
C  C178  1  0.02460000  0.66350000  0.81510000  1.0 0.5722999567
C  C179  1  0.08960000  0.16950000  0.00470000  1.0 0.3020035787
C  C180  1  0.05950000  0.18530000  0.98900000  1.0 0.0298679448
C  C181  1  0.00360000  0.15180000  0.98280000  1.0 -0.0807084283
C  C182  1  0.98130000  0.17300000  0.97910000  1.0 -0.0211810779
C  C183  1  0.01510000  0.22780000  0.98190000  1.0 -0.086341934
C  C184  1  0.07100000  0.26130000  0.98810000  1.0 0.0298679448
C  C185  1  0.09310000  0.24000000  0.99170000  1.0 -0.121765487
C  C186  1  0.10870000  0.32050000  0.99140000  1.0 0.2628335153
C  C187  1  0.91850000  0.13280000  0.96650000  1.0 -0.0308755833
C  C188  1  0.88930000  0.14100000  0.94330000  1.0 -0.2479418729
C  C189  1  0.08510000  0.16410000  0.99560000  1.0 0.3328246736
C  C190  1  0.07040000  0.19560000  0.00980000  1.0 0.0231921111
C  C191  1  0.02150000  0.16900000  0.01710000  1.0 -0.086341934
C  C192  1  0.00320000  0.19410000  0.02110000  1.0 -0.0120543974
C  C193  1  0.03390000  0.24590000  0.01800000  1.0 -0.0807084283
C  C194  1  0.08280000  0.27250000  0.01070000  1.0 0.0298679448
C  C195  1  0.10100000  0.24740000  0.00660000  1.0 -0.1111936942
C  C196  1  0.11820000  0.32920000  0.00880000  1.0 0.2628335153
C  C197  1  0.95240000  0.16540000  0.03300000  1.0 0.011789765
C  C198  1  0.95100000  0.19790000  0.06110000  1.0 -0.2617719954
C  C199  1  0.10710000  0.63560000  0.99430000  1.0 0.3655331546
C  C200  1  0.12950000  0.60980000  0.99330000  1.0 0.0298679448
C  C201  1  0.17720000  0.63490000  0.98450000  1.0 -0.0686844029
C  C202  1  0.19470000  0.60890000  0.98040000  1.0 0.011789765
C  C203  1  0.16450000  0.55800000  0.98510000  1.0 -0.0308755833
C  C204  1  0.11670000  0.53300000  0.99390000  1.0 0.011789765
C  C205  1  0.09930000  0.55890000  0.99800000  1.0 -0.2216190158
C  C206  1  0.07830000  0.47450000  0.99200000  1.0 0.2799669562
C  C207  1  0.24850000  0.63870000  0.97260000  1.0 0.0298679448
C  C208  1  0.25100000  0.60600000  0.94580000  1.0 -0.2783448639
C  C209  1  0.11130000  0.64010000  0.00600000  1.0 0.3655331546
C  C210  1  0.13500000  0.61580000  0.00600000  1.0 0.0298679448
C  C211  1  0.19130000  0.64940000  0.01390000  1.0 -0.0807084283
C  C212  1  0.21220000  0.62650000  0.01630000  1.0 0.0298679448
C  C213  1  0.17900000  0.57240000  0.01480000  1.0 -0.0532101484
C  C214  1  0.12240000  0.53860000  0.00500000  1.0 0.011789765
C  C215  1  0.10030000  0.56030000  0.00320000  1.0 -0.2216190158
C  C216  1  0.08690000  0.48220000  0.00750000  1.0 0.2799669562
C  C217  1  0.27400000  0.66450000  0.02470000  1.0 0.0298679448
C  C218  1  0.30330000  0.65820000  0.05130000  1.0 -0.2783448639
C  C219  1  0.39550000  0.65940000  0.18630000  1.0 0.5722999567
C  C220  1  0.33236000  0.61820000  0.16396000  1.0 -0.0211810779
C  C221  1  0.30420000  0.57621000  0.12501000  1.0 -0.1111936942
C  C222  1  0.24650000  0.53756000  0.10606000  1.0 -0.0532101484
C  C223  1  0.21698000  0.54080000  0.12618000  1.0 -0.160592778
C  C224  1  0.24520000  0.58279000  0.16519000  1.0 0.0614296279
C  C225  1  0.30280000  0.62144000  0.18404000  1.0 -0.1483678832
C  C226  1  0.21770000  0.49260000  0.06530000  1.0 0.5508397881
C  C227  1  0.21350000  0.58664000  0.18834000  1.0 0.0815883685
C  C228  1  0.23512000  0.63822000  0.21070000  1.0 -0.2099580596
C  C229  1  0.20740000  0.64116000  0.23336000  1.0 0.0684462682
C  C230  1  0.15820000  0.59266000  0.23386000  1.0 -0.2216190158
C  C231  1  0.13671000  0.54111000  0.21160000  1.0 0.1905646046
C  C232  1  0.16440000  0.53814000  0.18894000  1.0 -0.2099580596
C  C233  1  0.08250000  0.48850000  0.20960000  1.0 -0.4597611715
C  C234  1  0.23000000  0.69553000  0.25813000  1.0 0.0614296279
C  C235  1  0.24870000  0.73552000  0.24062000  1.0 -0.1408630882
C  C236  1  0.26800000  0.78560000  0.26360000  1.0 -0.0211810779
C  C237  1  0.26860000  0.79581000  0.30401000  1.0 -0.121765487
C  C238  1  0.24990000  0.75582000  0.32152000  1.0 -0.0308755833
C  C239  1  0.23060000  0.70570000  0.29850000  1.0 -0.160592778
C  C240  1  0.25620000  0.76900000  0.36660000  1.0 0.5722999567
C  C241  1  0.28560000  0.82830000  0.24430000  1.0 0.5918273815
C  C242  1  0.25600000  0.88860000  0.48680000  1.0 0.5722999567
C  C243  1  0.25020000  0.92797000  0.49397000  1.0 -0.0308755833
C  C244  1  0.26900000  0.96420000  0.47280000  1.0 -0.121765487
C  C245  1  0.26790000  0.00380000  0.48210000  1.0 -0.0211810779
C  C246  1  0.24820000  0.00707000  0.51267000  1.0 -0.1408630882
C  C247  1  0.22940000  0.97084000  0.53384000  1.0 0.0614296279
C  C248  1  0.23050000  0.93130000  0.52460000  1.0 -0.160592778
C  C249  1  0.28590000  0.04150000  0.45760000  1.0 0.5918273815
C  C250  1  0.20750000  0.97366000  0.56656000  1.0 0.0684462682
C  C251  1  0.23600000  0.02430000  0.59750000  1.0 -0.2099580596
C  C252  1  0.21480000  0.02555000  0.62755000  1.0 0.0815883685
C  C253  1  0.16510000  0.97621000  0.62671000  1.0 -0.2216190158
C  C254  1  0.13670000  0.92560000  0.59590000  1.0 0.2023199377
C  C255  1  0.15790000  0.92433000  0.56583000  1.0 -0.2216190158
C  C256  1  0.07970000  0.87130000  0.59160000  1.0 -0.4597611715
C  C257  1  0.24510000  0.08017000  0.66207000  1.0 0.0614296279
C  C258  1  0.30272000  0.11893000  0.68105000  1.0 -0.1408630882
C  C259  1  0.33226000  0.16840000  0.71406000  1.0 -0.0211810779
C  C260  1  0.30400000  0.17903000  0.72803000  1.0 -0.1111936942
C  C261  1  0.24627000  0.14017000  0.70904000  1.0 -0.0686844029
C  C262  1  0.21683000  0.09080000  0.67603000  1.0 -0.160592778
C  C263  1  0.39580000  0.21020000  0.73600000  1.0 0.57738717
C  C264  1  0.21760000  0.15240000  0.72400000  1.0 0.5508397881
C  C265  1  0.02870000  0.69020000  0.06450000  1.0 0.5392641946
C  C266  1  0.06121000  0.73724000  0.10705000  1.0 -0.0120543974
C  C267  1  0.03376000  0.74230000  0.12866000  1.0 -0.1787744722
C  C268  1  0.06370000  0.78275000  0.16885000  1.0 0.0684462682
C  C269  1  0.12080000  0.81795000  0.18735000  1.0 -0.1691250334
C  C270  1  0.14824000  0.81290000  0.16574000  1.0 -0.0211810779
C  C271  1  0.11830000  0.77244000  0.12554000  1.0 -0.1337796038
C  C272  1  0.20990000  0.84780000  0.18530000  1.0 0.5722999567
C  C273  1  0.03350000  0.78535000  0.19465000  1.0 0.0815883685
C  C274  1  0.06010000  0.83650000  0.22340000  1.0 -0.2099580596
C  C275  1  0.03350000  0.83916000  0.24766000  1.0 0.0815883685
C  C276  1  0.98030000  0.79076000  0.24306000  1.0 -0.2216190158
C  C277  1  0.95370000  0.73961000  0.21431000  1.0 0.2023199377
C  C278  1  0.98030000  0.73695000  0.19005000  1.0 -0.2099580596
C  C279  1  0.89740000  0.68630000  0.21070000  1.0 -0.4597611715
C  C280  1  0.06290000  0.89468000  0.28078000  1.0 0.0684462682
C  C281  1  0.12010000  0.93320000  0.30270000  1.0 -0.160592778
C  C282  1  0.14756000  0.98200000  0.33536000  1.0 -0.0211810779
C  C283  1  0.11790000  0.99246000  0.34616000  1.0 -0.121765487
C  C284  1  0.06070000  0.95395000  0.32425000  1.0 -0.0308755833
C  C285  1  0.03317000  0.90500000  0.29157000  1.0 -0.1691250334
C  C286  1  0.02910000  0.96430000  0.33800000  1.0 0.5392641946
C  C287  1  0.20950000  0.02460000  0.36110000  1.0 0.5722999567
C  C288  1  0.08490000  0.08960000  0.92010000  1.0 0.3020035787
C  C289  1  0.07050000  0.05950000  0.87420000  1.0 0.0298679448
C  C290  1  0.02080000  0.00360000  0.85180000  1.0 -0.0807084283
C  C291  1  0.00220000  0.98130000  0.80830000  1.0 -0.0211810779
C  C292  1  0.03320000  0.01510000  0.78730000  1.0 -0.086341934
C  C293  1  0.08290000  0.07100000  0.80970000  1.0 0.0378683174
C  C294  1  0.10140000  0.09310000  0.85310000  1.0 -0.121765487
C  C295  1  0.11730000  0.10870000  0.78820000  1.0 0.2628335153
C  C296  1  0.95200000  0.91850000  0.78570000  1.0 -0.0308755833
C  C297  1  0.94600000  0.88930000  0.74830000  1.0 -0.2479418729
C  C298  1  0.08950000  0.08510000  0.92100000  1.0 0.3328246736
C  C299  1  0.06060000  0.07040000  0.87480000  1.0 0.0231921111
C  C300  1  0.00440000  0.02150000  0.85250000  1.0 -0.086341934
C  C301  1  0.98210000  0.00320000  0.80910000  1.0 -0.0120543974
C  C302  1  0.01590000  0.03390000  0.78800000  1.0 -0.0807084283
C  C303  1  0.07210000  0.08280000  0.81030000  1.0 0.0298679448
C  C304  1  0.09440000  0.10100000  0.85360000  1.0 -0.1111936942
C  C305  1  0.10940000  0.11820000  0.78900000  1.0 0.2628335153
C  C306  1  0.91940000  0.95240000  0.78700000  1.0 0.011789765
C  C307  1  0.88990000  0.95100000  0.75310000  1.0 -0.2617719954
C  C308  1  0.11280000  0.10710000  0.47150000  1.0 0.3638998309
C  C309  1  0.13620000  0.12950000  0.51970000  1.0 0.0298679448
C  C310  1  0.19270000  0.17720000  0.54230000  1.0 -0.0686844029
C  C311  1  0.21430000  0.19470000  0.58580000  1.0 0.011789765
C  C312  1  0.17940000  0.16450000  0.60650000  1.0 -0.0308755833
C  C313  1  0.12280000  0.11670000  0.58370000  1.0 0.011789765
C  C314  1  0.10130000  0.09930000  0.54040000  1.0 -0.2216190158
C  C315  1  0.08630000  0.07830000  0.60380000  1.0 0.2799669562
C  C316  1  0.27590000  0.24850000  0.60980000  1.0 0.0298679448
C  C317  1  0.30520000  0.25100000  0.64500000  1.0 -0.2783448639
C  C318  1  0.10530000  0.11130000  0.47120000  1.0 0.3655331546
C  C319  1  0.12900000  0.13500000  0.51920000  1.0 0.0298679448
C  C320  1  0.17740000  0.19130000  0.54190000  1.0 -0.0807084283
C  C321  1  0.19590000  0.21220000  0.58570000  1.0 0.0298679448
C  C322  1  0.16420000  0.17900000  0.60660000  1.0 -0.0532101484
C  C323  1  0.11740000  0.12240000  0.58380000  1.0 0.011789765
C  C324  1  0.09710000  0.10030000  0.54000000  1.0 -0.2216190158
C  C325  1  0.07940000  0.08690000  0.60470000  1.0 0.2799669562
C  C326  1  0.24930000  0.27400000  0.60950000  1.0 0.0298679448
C  C327  1  0.25200000  0.30330000  0.64510000  1.0 -0.2783448639
C  C328  1  0.47310000  0.20920000  0.81370000  1.0 0.57738717
C  C329  1  0.45424000  0.16840000  0.83604000  1.0 -0.0211810779
C  C330  1  0.45120000  0.17919000  0.87499000  1.0 -0.1111936942
C  C331  1  0.43150000  0.14044000  0.89394000  1.0 -0.0532101484
C  C332  1  0.41462000  0.09080000  0.87382000  1.0 -0.160592778
C  C333  1  0.41760000  0.08001000  0.83481000  1.0 0.0614296279
C  C334  1  0.43740000  0.11876000  0.81596000  1.0 -0.1483678832
C  C335  1  0.42730000  0.15240000  0.93470000  1.0 0.5508397881
C  C336  1  0.39830000  0.02516000  0.81166000  1.0 0.0815883685
C  C337  1  0.42752000  0.02442000  0.78930000  1.0 -0.2099580596
C  C338  1  0.40780000  0.97404000  0.76664000  1.0 0.0684462682
C  C339  1  0.35880000  0.92434000  0.76614000  1.0 -0.2216190158
C  C340  1  0.32951000  0.92511000  0.78840000  1.0 0.1905646046
C  C341  1  0.34920000  0.97546000  0.81106000  1.0 -0.2099580596
C  C342  1  0.27890000  0.87290000  0.79040000  1.0 -0.4597611715
C  C343  1  0.43740000  0.97187000  0.74187000  1.0 0.0614296279
C  C344  1  0.49490000  0.00808000  0.75938000  1.0 -0.1408630882
C  C345  1  0.52200000  0.00440000  0.73640000  1.0 -0.0211810779
C  C346  1  0.49180000  0.96459000  0.69599000  1.0 -0.121765487
C  C347  1  0.43430000  0.92838000  0.67848000  1.0 -0.0308755833
C  C348  1  0.40720000  0.93210000  0.70150000  1.0 -0.160592778
C  C349  1  0.40240000  0.88960000  0.63340000  1.0 0.5722999567
C  C350  1  0.58400000  0.04130000  0.75570000  1.0 0.5918273815
C  C351  1  0.40180000  0.76920000  0.51320000  1.0 0.5722999567
C  C352  1  0.43400000  0.75623000  0.50603000  1.0 -0.0308755833
C  C353  1  0.49140000  0.79620000  0.52720000  1.0 -0.121765487
C  C354  1  0.52170000  0.78580000  0.51790000  1.0 -0.0211810779
C  C355  1  0.49440000  0.73553000  0.48733000  1.0 -0.1408630882
C  C356  1  0.43700000  0.69556000  0.46616000  1.0 0.0614296279
C  C357  1  0.40670000  0.70590000  0.47540000  1.0 -0.160592778
C  C358  1  0.58390000  0.82830000  0.54240000  1.0 0.5918273815
C  C359  1  0.40710000  0.64094000  0.43344000  1.0 0.0684462682
C  C360  1  0.42680000  0.63850000  0.40250000  1.0 -0.2099580596
C  C361  1  0.39800000  0.58725000  0.37245000  1.0 0.0815883685
C  C362  1  0.34950000  0.53839000  0.37329000  1.0 -0.2216190158
C  C363  1  0.32970000  0.54080000  0.40410000  1.0 0.2023199377
C  C364  1  0.35850000  0.59207000  0.43417000  1.0 -0.2216190158
C  C365  1  0.27970000  0.48810000  0.40840000  1.0 -0.4597611715
C  C366  1  0.41810000  0.58303000  0.33793000  1.0 0.0614296279
C  C367  1  0.43788000  0.62167000  0.31895000  1.0 -0.1408630882
C  C368  1  0.45434000  0.61820000  0.28594000  1.0 -0.0211810779
C  C369  1  0.45100000  0.57597000  0.27197000  1.0 -0.1045478022
C  C370  1  0.43113000  0.53723000  0.29096000  1.0 -0.0686844029
C  C371  1  0.41477000  0.54080000  0.32397000  1.0 -0.160592778
C  C372  1  0.47420000  0.65980000  0.26400000  1.0 0.57738717
C  C373  1  0.42840000  0.49360000  0.27600000  1.0 0.5392641946
C  C374  1  0.62570000  0.96420000  0.93550000  1.0 0.5392641946
C  C375  1  0.63019000  0.95416000  0.89295000  1.0 -0.0211810779
C  C376  1  0.61364000  0.90510000  0.87134000  1.0 -0.1787744722
C  C377  1  0.61390000  0.89485000  0.83115000  1.0 0.0684462682
C  C378  1  0.63060000  0.93345000  0.81265000  1.0 -0.1691250334
C  C379  1  0.64716000  0.98250000  0.83426000  1.0 -0.0211810779
C  C380  1  0.64690000  0.99276000  0.87446000  1.0 -0.1337796038
C  C381  1  0.66250000  0.02460000  0.81470000  1.0 0.5722999567
C  C382  1  0.59070000  0.83885000  0.80535000  1.0 0.0815883685
C  C383  1  0.61310000  0.83670000  0.77660000  1.0 -0.2099580596
C  C384  1  0.59150000  0.78584000  0.75234000  1.0 0.0815883685
C  C385  1  0.54770000  0.73724000  0.75694000  1.0 -0.2216190158
C  C386  1  0.52530000  0.73939000  0.78569000  1.0 0.2023199377
C  C387  1  0.54690000  0.79025000  0.80995000  1.0 -0.2099580596
C  C388  1  0.47560000  0.68670000  0.78930000  1.0 -0.4597611715
C  C389  1  0.61390000  0.78212000  0.71922000  1.0 0.0684462682
C  C390  1  0.63050000  0.81740000  0.69730000  1.0 -0.160592778
C  C391  1  0.64664000  0.81220000  0.66464000  1.0 -0.0211810779
C  C392  1  0.64630000  0.77174000  0.65384000  1.0 -0.121765487
C  C393  1  0.62970000  0.73645000  0.67575000  1.0 -0.0308755833
C  C394  1  0.61343000  0.74160000  0.70843000  1.0 -0.1691250334
C  C395  1  0.62630000  0.69110000  0.66200000  1.0 0.5392641946
C  C396  1  0.66350000  0.84840000  0.63890000  1.0 0.5722999567
C  C397  1  0.16950000  0.16480000  0.07990000  1.0 0.3020035787
C  C398  1  0.18530000  0.19630000  0.12580000  1.0 0.0298679448
C  C399  1  0.15180000  0.16900000  0.14820000  1.0 -0.0807084283
C  C400  1  0.17300000  0.19390000  0.19170000  1.0 -0.0211810779
C  C401  1  0.22780000  0.24590000  0.21270000  1.0 -0.086341934
C  C402  1  0.26130000  0.27320000  0.19030000  1.0 0.0378683174
C  C403  1  0.24000000  0.24830000  0.14690000  1.0 -0.121765487
C  C404  1  0.32050000  0.32910000  0.21180000  1.0 0.2628335153
C  C405  1  0.13280000  0.16630000  0.21430000  1.0 -0.0308755833
C  C406  1  0.14100000  0.19770000  0.25170000  1.0 -0.2479418729
C  C407  1  0.16410000  0.16850000  0.07900000  1.0 0.3328246736
C  C408  1  0.19560000  0.18580000  0.12520000  1.0 0.0231921111
C  C409  1  0.16900000  0.15190000  0.14750000  1.0 -0.086341934
C  C410  1  0.19410000  0.17300000  0.19090000  1.0 -0.0120543974
C  C411  1  0.24590000  0.22790000  0.21200000  1.0 -0.0807084283
C  C412  1  0.27250000  0.26180000  0.18970000  1.0 0.0298679448
C  C413  1  0.24740000  0.24080000  0.14640000  1.0 -0.1111936942
C  C414  1  0.32920000  0.32040000  0.21100000  1.0 0.2628335153
C  C415  1  0.16540000  0.13240000  0.21300000  1.0 0.011789765
C  C416  1  0.19790000  0.13680000  0.24690000  1.0 -0.2617719954
C  C417  1  0.63560000  0.64130000  0.52850000  1.0 0.3638998309
C  C418  1  0.60980000  0.61650000  0.48030000  1.0 0.0298679448
C  C419  1  0.63490000  0.65040000  0.45770000  1.0 -0.0686844029
C  C420  1  0.60890000  0.62850000  0.41420000  1.0 0.011789765
C  C421  1  0.55800000  0.57290000  0.39350000  1.0 -0.0308755833
C  C422  1  0.53300000  0.53910000  0.41630000  1.0 0.011789765
C  C423  1  0.55890000  0.56090000  0.45960000  1.0 -0.2216190158
C  C424  1  0.47450000  0.48250000  0.39620000  1.0 0.2799669562
C  C425  1  0.63870000  0.66610000  0.39020000  1.0 0.0298679448
C  C426  1  0.60600000  0.66020000  0.35500000  1.0 -0.2783448639
C  C427  1  0.64010000  0.63410000  0.52880000  1.0 0.3638998309
C  C428  1  0.61580000  0.60980000  0.48080000  1.0 0.0298679448
C  C429  1  0.64940000  0.63550000  0.45810000  1.0 -0.0807084283
C  C430  1  0.62650000  0.61020000  0.41430000  1.0 0.0298679448
C  C431  1  0.57240000  0.55760000  0.39340000  1.0 -0.0532101484
C  C432  1  0.53860000  0.53360000  0.41620000  1.0 0.011789765
C  C433  1  0.56030000  0.55710000  0.46000000  1.0 -0.2216190158
C  C434  1  0.48220000  0.47470000  0.39530000  1.0 0.2799669562
C  C435  1  0.66450000  0.63980000  0.39050000  1.0 0.0298679448
C  C436  1  0.65820000  0.60690000  0.35490000  1.0 -0.2783448639
C  C437  1  0.79080000  0.60450000  0.26390000  1.0 0.5722999567
C  C438  1  0.83160000  0.66764000  0.28584000  1.0 -0.0211810779
C  C439  1  0.82081000  0.69580000  0.27201000  1.0 -0.1111936942
C  C440  1  0.85956000  0.75350000  0.29106000  1.0 -0.0532101484
C  C441  1  0.90920000  0.78302000  0.32382000  1.0 -0.160592778
C  C442  1  0.91999000  0.75480000  0.33759000  1.0 0.0614296279
C  C443  1  0.88124000  0.69720000  0.31864000  1.0 -0.1483678832
C  C444  1  0.84760000  0.78230000  0.27490000  1.0 0.5508397881
C  C445  1  0.97484000  0.78650000  0.37314000  1.0 0.0815883685
C  C446  1  0.97558000  0.76488000  0.40310000  1.0 -0.2099580596
C  C447  1  0.02596000  0.79260000  0.43376000  1.0 0.0684462682
C  C448  1  0.07566000  0.84180000  0.43446000  1.0 -0.2216190158
C  C449  1  0.07489000  0.86329000  0.40440000  1.0 0.1905646046
C  C450  1  0.02454000  0.83560000  0.37374000  1.0 -0.2099580596
C  C451  1  0.12710000  0.91750000  0.40600000  1.0 -0.4597611715
C  C452  1  0.02813000  0.77000000  0.46553000  1.0 0.0614296279
C  C453  1  0.99192000  0.75130000  0.48682000  1.0 -0.1408630882
C  C454  1  0.99560000  0.73200000  0.51760000  1.0 -0.0211810779
C  C455  1  0.03541000  0.73140000  0.52721000  1.0 -0.121765487
C  C456  1  0.07162000  0.75010000  0.50592000  1.0 -0.0308755833
C  C457  1  0.06790000  0.76940000  0.47510000  1.0 -0.160592778
C  C458  1  0.11040000  0.74380000  0.51280000  1.0 0.5722999567
C  C459  1  0.95870000  0.71440000  0.54270000  1.0 0.5918273815
C  C460  1  0.23080000  0.74400000  0.63260000  1.0 0.5722999567
C  C461  1  0.24377000  0.74980000  0.67777000  1.0 -0.0308755833
C  C462  1  0.20380000  0.73100000  0.69520000  1.0 -0.121765487
C  C463  1  0.21420000  0.73210000  0.73590000  1.0 -0.0211810779
C  C464  1  0.26447000  0.75180000  0.75887000  1.0 -0.1408630882
C  C465  1  0.30444000  0.77060000  0.74144000  1.0 0.0614296279
C  C466  1  0.29410000  0.76950000  0.70080000  1.0 -0.160592778
C  C467  1  0.17170000  0.71410000  0.75560000  1.0 0.5918273815
C  C468  1  0.35906000  0.79250000  0.76616000  1.0 0.0684462682
C  C469  1  0.36150000  0.76400000  0.78830000  1.0 -0.2099580596
C  C470  1  0.41275000  0.78520000  0.81075000  1.0 0.0815883685
C  C471  1  0.46161000  0.83490000  0.81111000  1.0 -0.2216190158
C  C472  1  0.45920000  0.86330000  0.78890000  1.0 0.2023199377
C  C473  1  0.40793000  0.84210000  0.76643000  1.0 -0.2216190158
C  C474  1  0.51190000  0.92030000  0.79160000  1.0 -0.4597611715
C  C475  1  0.41697000  0.75490000  0.83507000  1.0 0.0614296279
C  C476  1  0.37833000  0.69728000  0.81621000  1.0 -0.1408630882
C  C477  1  0.38180000  0.66774000  0.83614000  1.0 -0.0211810779
C  C478  1  0.42403000  0.69600000  0.87503000  1.0 -0.1111936942
C  C479  1  0.46277000  0.75373000  0.89390000  1.0 -0.0686844029
C  C480  1  0.45920000  0.78317000  0.87397000  1.0 -0.160592778
C  C481  1  0.34020000  0.60420000  0.81440000  1.0 0.57738717
C  C482  1  0.50640000  0.78240000  0.93480000  1.0 0.5508397881
C  C483  1  0.03580000  0.97130000  0.66150000  1.0 0.5392641946
C  C484  1  0.04584000  0.93879000  0.67603000  1.0 -0.0211810779
C  C485  1  0.09490000  0.96624000  0.70854000  1.0 -0.1787744722
C  C486  1  0.10515000  0.93630000  0.71905000  1.0 0.0684462682
C  C487  1  0.06655000  0.87920000  0.69715000  1.0 -0.1691250334
C  C488  1  0.01750000  0.85176000  0.66466000  1.0 -0.0211810779
C  C489  1  0.00724000  0.88170000  0.65414000  1.0 -0.1337796038
C  C490  1  0.97540000  0.79010000  0.63790000  1.0 0.5722999567
C  C491  1  0.16115000  0.96650000  0.75185000  1.0 0.0815883685
C  C492  1  0.16330000  0.93990000  0.77640000  1.0 -0.2099580596
C  C493  1  0.21416000  0.96650000  0.80566000  1.0 0.0815883685
C  C494  1  0.26276000  0.01970000  0.81046000  1.0 -0.2216190158
C  C495  1  0.26061000  0.04630000  0.78591000  1.0 0.2023199377
C  C496  1  0.20975000  0.01970000  0.75665000  1.0 -0.2099580596
C  C497  1  0.31330000  0.10260000  0.78890000  1.0 -0.4597611715
C  C498  1  0.21788000  0.93710000  0.83178000  1.0 0.0684462682
C  C499  1  0.18260000  0.87990000  0.81310000  1.0 -0.160592778
C  C500  1  0.18780000  0.85244000  0.83444000  1.0 -0.0211810779
C  C501  1  0.22826000  0.88210000  0.87456000  1.0 -0.121765487
C  C502  1  0.26355000  0.93930000  0.89325000  1.0 -0.0308755833
C  C503  1  0.25840000  0.96683000  0.87183000  1.0 -0.1691250334
C  C504  1  0.30890000  0.97090000  0.93520000  1.0 0.5392641946
C  C505  1  0.15160000  0.79050000  0.81510000  1.0 0.5722999567
C  C506  1  0.83520000  0.91510000  0.00470000  1.0 0.3056530023
C  C507  1  0.80370000  0.92950000  0.98900000  1.0 0.0298679448
C  C508  1  0.83100000  0.97920000  0.98280000  1.0 -0.0807084283
C  C509  1  0.80610000  0.99780000  0.97910000  1.0 -0.0211810779
C  C510  1  0.75410000  0.96680000  0.98190000  1.0 -0.086341934
C  C511  1  0.72680000  0.91710000  0.98810000  1.0 0.0378683174
C  C512  1  0.75170000  0.89860000  0.99170000  1.0 -0.121765487
C  C513  1  0.67090000  0.88270000  0.99140000  1.0 0.2628335153
C  C514  1  0.83370000  0.04800000  0.96650000  1.0 -0.0308755833
C  C515  1  0.80230000  0.05400000  0.94330000  1.0 -0.2479418729
C  C516  1  0.83150000  0.91050000  0.99560000  1.0 0.3372697869
C  C517  1  0.81420000  0.93940000  0.00980000  1.0 0.0231921111
C  C518  1  0.84810000  0.99560000  0.01710000  1.0 -0.086341934
C  C519  1  0.82700000  0.01790000  0.02110000  1.0 -0.0120543974
C  C520  1  0.77210000  0.98410000  0.01800000  1.0 -0.0807084283
C  C521  1  0.73820000  0.92790000  0.01070000  1.0 0.0298679448
C  C522  1  0.75920000  0.90560000  0.00660000  1.0 -0.1111936942
C  C523  1  0.67960000  0.89060000  0.00880000  1.0 0.2628335153
C  C524  1  0.86760000  0.08060000  0.03300000  1.0 0.011789765
C  C525  1  0.86320000  0.11010000  0.06110000  1.0 -0.2617719954
C  C526  1  0.35870000  0.88720000  0.99430000  1.0 0.3655331546
C  C527  1  0.38350000  0.86380000  0.99330000  1.0 0.0298679448
C  C528  1  0.34960000  0.80730000  0.98450000  1.0 -0.0686844029
C  C529  1  0.37150000  0.78570000  0.98040000  1.0 0.011789765
C  C530  1  0.42710000  0.82060000  0.98510000  1.0 -0.0308755833
C  C531  1  0.46090000  0.87720000  0.99390000  1.0 0.011789765
C  C532  1  0.43910000  0.89870000  0.99800000  1.0 -0.2216190158
C  C533  1  0.51750000  0.91370000  0.99200000  1.0 0.2799669562
C  C534  1  0.33390000  0.72410000  0.97260000  1.0 0.0298679448
C  C535  1  0.33980000  0.69480000  0.94580000  1.0 -0.2783448639
C  C536  1  0.36590000  0.89470000  0.00600000  1.0 0.3655331546
C  C537  1  0.39020000  0.87100000  0.00600000  1.0 0.0298679448
C  C538  1  0.36450000  0.82260000  0.01390000  1.0 -0.0807084283
C  C539  1  0.38980000  0.80410000  0.01630000  1.0 0.0298679448
C  C540  1  0.44240000  0.83580000  0.01480000  1.0 -0.0532101484
C  C541  1  0.46640000  0.88260000  0.00500000  1.0 0.011789765
C  C542  1  0.44290000  0.90290000  0.00320000  1.0 -0.2216190158
C  C543  1  0.52530000  0.92060000  0.00750000  1.0 0.2799669562
C  C544  1  0.36020000  0.75070000  0.02470000  1.0 0.0298679448
C  C545  1  0.39310000  0.74800000  0.05130000  1.0 -0.2783448639
C  C546  1  0.34060000  0.52690000  0.73610000  1.0 0.57738717
C  C547  1  0.38180000  0.54576000  0.71416000  1.0 -0.0211810779
C  C548  1  0.42379000  0.54880000  0.72799000  1.0 -0.1111936942
C  C549  1  0.46244000  0.56850000  0.70894000  1.0 -0.0532101484
C  C550  1  0.45920000  0.58538000  0.67618000  1.0 -0.160592778
C  C551  1  0.41721000  0.58240000  0.66241000  1.0 0.0614296279
C  C552  1  0.37856000  0.56260000  0.68136000  1.0 -0.1483678832
C  C553  1  0.50740000  0.57270000  0.72510000  1.0 0.5508397881
C  C554  1  0.41336000  0.60170000  0.62686000  1.0 0.0815883685
C  C555  1  0.36178000  0.57248000  0.59690000  1.0 -0.2099580596
C  C556  1  0.35884000  0.59220000  0.56624000  1.0 0.0684462682
C  C557  1  0.40734000  0.64120000  0.56554000  1.0 -0.2216190158
C  C558  1  0.45889000  0.67049000  0.59560000  1.0 0.1905646046
C  C559  1  0.46186000  0.65080000  0.62626000  1.0 -0.2099580596
C  C560  1  0.51150000  0.72110000  0.59400000  1.0 -0.4597611715
C  C561  1  0.30447000  0.56260000  0.53447000  1.0 0.0614296279
C  C562  1  0.26448000  0.50510000  0.51318000  1.0 -0.1408630882
C  C563  1  0.21440000  0.47800000  0.48240000  1.0 -0.0211810779
C  C564  1  0.20419000  0.50820000  0.47279000  1.0 -0.121765487
C  C565  1  0.24418000  0.56570000  0.49408000  1.0 -0.0308755833
C  C566  1  0.29430000  0.59280000  0.52490000  1.0 -0.160592778
C  C567  1  0.23100000  0.59760000  0.48720000  1.0 0.5722999567
C  C568  1  0.17170000  0.41600000  0.45730000  1.0 0.5918273815
C  C569  1  0.11140000  0.59820000  0.36740000  1.0 0.5722999567
C  C570  1  0.07203000  0.56600000  0.32223000  1.0 -0.0308755833
C  C571  1  0.03580000  0.50860000  0.30480000  1.0 -0.121765487
C  C572  1  0.99620000  0.47830000  0.26410000  1.0 -0.0211810779
C  C573  1  0.99293000  0.50560000  0.24113000  1.0 -0.1408630882
C  C574  1  0.02916000  0.56300000  0.25856000  1.0 0.0614296279
C  C575  1  0.06870000  0.59330000  0.29920000  1.0 -0.160592778
C  C576  1  0.95850000  0.41610000  0.24440000  1.0 0.5918273815
C  C577  1  0.02634000  0.59290000  0.23384000  1.0 0.0684462682
C  C578  1  0.97570000  0.57320000  0.21170000  1.0 -0.2099580596
C  C579  1  0.97445000  0.60200000  0.18925000  1.0 0.0815883685
C  C580  1  0.02379000  0.65050000  0.18889000  1.0 -0.2216190158
C  C581  1  0.07440000  0.67030000  0.21110000  1.0 0.2023199377
C  C582  1  0.07567000  0.64150000  0.23357000  1.0 -0.2216190158
C  C583  1  0.12870000  0.72030000  0.20840000  1.0 -0.4597611715
C  C584  1  0.91983000  0.58190000  0.16493000  1.0 0.0614296279
C  C585  1  0.88107000  0.56212000  0.18379000  1.0 -0.1408630882
C  C586  1  0.83160000  0.54566000  0.16386000  1.0 -0.0211810779
C  C587  1  0.82097000  0.54900000  0.12497000  1.0 -0.1045478022
C  C588  1  0.85983000  0.56887000  0.10610000  1.0 -0.0686844029
C  C589  1  0.90920000  0.58523000  0.12603000  1.0 -0.160592778
C  C590  1  0.78980000  0.52580000  0.18560000  1.0 0.57738717
C  C591  1  0.84760000  0.57160000  0.06520000  1.0 0.5392641946
C  C592  1  0.30980000  0.37430000  0.33850000  1.0 0.5392641946
C  C593  1  0.26276000  0.36981000  0.32397000  1.0 -0.0211810779
C  C594  1  0.25770000  0.38636000  0.29146000  1.0 -0.1787744722
C  C595  1  0.21725000  0.38610000  0.28095000  1.0 0.0684462682
C  C596  1  0.18205000  0.36940000  0.30285000  1.0 -0.1691250334
C  C597  1  0.18710000  0.35284000  0.33534000  1.0 -0.0211810779
C  C598  1  0.22756000  0.35310000  0.34586000  1.0 -0.1337796038
C  C599  1  0.15220000  0.33750000  0.36210000  1.0 0.5722999567
C  C600  1  0.21465000  0.40930000  0.24815000  1.0 0.0815883685
C  C601  1  0.16350000  0.38690000  0.22360000  1.0 -0.2099580596
C  C602  1  0.16084000  0.40850000  0.19434000  1.0 0.0815883685
C  C603  1  0.20924000  0.45230000  0.18954000  1.0 -0.2216190158
C  C604  1  0.26039000  0.47470000  0.21409000  1.0 0.2051634008
C  C605  1  0.26305000  0.45310000  0.24335000  1.0 -0.2099580596
C  C606  1  0.31370000  0.52440000  0.21110000  1.0 -0.4597611715
C  C607  1  0.10532000  0.38610000  0.16822000  1.0 0.0684462682
C  C608  1  0.06680000  0.36950000  0.18690000  1.0 -0.160592778
C  C609  1  0.01800000  0.35336000  0.16556000  1.0 -0.0211810779
C  C610  1  0.00754000  0.35370000  0.12544000  1.0 -0.121765487
C  C611  1  0.04605000  0.37030000  0.10675000  1.0 -0.0308755833
C  C612  1  0.09500000  0.38657000  0.12817000  1.0 -0.1691250334
C  C613  1  0.03570000  0.37370000  0.06480000  1.0 0.5392641946
C  C614  1  0.97540000  0.33650000  0.18490000  1.0 0.5722999567
C  C615  1  0.91040000  0.83050000  0.99530000  1.0 0.3020035787
C  C616  1  0.94050000  0.81470000  0.01100000  1.0 0.0298679448
C  C617  1  0.99640000  0.84820000  0.01720000  1.0 -0.0807084283
C  C618  1  0.01870000  0.82700000  0.02090000  1.0 -0.0211810779
C  C619  1  0.98490000  0.77220000  0.01810000  1.0 -0.0807084283
C  C620  1  0.92900000  0.73870000  0.01190000  1.0 0.0378683174
C  C621  1  0.90690000  0.76000000  0.00830000  1.0 -0.1111936942
C  C622  1  0.89130000  0.67950000  0.00860000  1.0 0.2628335153
C  C623  1  0.08150000  0.86720000  0.03350000  1.0 -0.0308755833
C  C624  1  0.11070000  0.85900000  0.05670000  1.0 -0.2479418729
C  C625  1  0.91490000  0.83590000  0.00440000  1.0 0.3372697869
C  C626  1  0.92960000  0.80440000  0.99020000  1.0 0.0231921111
C  C627  1  0.97850000  0.83100000  0.98290000  1.0 -0.086341934
C  C628  1  0.99680000  0.80590000  0.97890000  1.0 -0.0120543974
C  C629  1  0.96610000  0.75410000  0.98200000  1.0 -0.0807084283
C  C630  1  0.91720000  0.72750000  0.98930000  1.0 0.0298679448
C  C631  1  0.89900000  0.75260000  0.99340000  1.0 -0.1111936942
C  C632  1  0.88180000  0.67080000  0.99120000  1.0 0.2628335153
C  C633  1  0.04760000  0.83460000  0.96700000  1.0 0.011789765
C  C634  1  0.04900000  0.80210000  0.93890000  1.0 -0.2617719954
C  C635  1  0.89290000  0.36440000  0.00570000  1.0 0.3638998309
C  C636  1  0.87050000  0.39020000  0.00670000  1.0 0.0298679448
C  C637  1  0.82280000  0.36510000  0.01550000  1.0 -0.0686844029
C  C638  1  0.80530000  0.39110000  0.01960000  1.0 0.011789765
C  C639  1  0.83550000  0.44200000  0.01490000  1.0 -0.0308755833
C  C640  1  0.88330000  0.46700000  0.00610000  1.0 0.011789765
C  C641  1  0.90070000  0.44110000  0.00200000  1.0 -0.2216190158
C  C642  1  0.92170000  0.52550000  0.00800000  1.0 0.2799669562
C  C643  1  0.75150000  0.36130000  0.02740000  1.0 0.0298679448
C  C644  1  0.74900000  0.39400000  0.05420000  1.0 -0.2783448639
C  C645  1  0.88870000  0.35990000  0.99400000  1.0 0.3655331546
C  C646  1  0.86500000  0.38420000  0.99400000  1.0 0.0298679448
C  C647  1  0.80870000  0.35060000  0.98610000  1.0 -0.0807084283
C  C648  1  0.78780000  0.37350000  0.98370000  1.0 0.0298679448
C  C649  1  0.82100000  0.42760000  0.98520000  1.0 -0.0532101484
C  C650  1  0.87760000  0.46140000  0.99500000  1.0 0.011789765
C  C651  1  0.89970000  0.43970000  0.99680000  1.0 -0.2216190158
C  C652  1  0.91310000  0.51780000  0.99250000  1.0 0.2799669562
C  C653  1  0.72600000  0.33550000  0.97530000  1.0 0.0298679448
C  C654  1  0.69670000  0.34180000  0.94870000  1.0 -0.2783448639
C  C655  1  0.60450000  0.34060000  0.81370000  1.0 0.57738717
C  C656  1  0.66764000  0.38180000  0.83604000  1.0 -0.0211810779
C  C657  1  0.69580000  0.42379000  0.87499000  1.0 -0.1111936942
C  C658  1  0.75350000  0.46244000  0.89394000  1.0 -0.0532101484
C  C659  1  0.78302000  0.45920000  0.87382000  1.0 -0.160592778
C  C660  1  0.75480000  0.41721000  0.83481000  1.0 0.0614296279
C  C661  1  0.69720000  0.37856000  0.81596000  1.0 -0.1483678832
C  C662  1  0.78230000  0.50740000  0.93470000  1.0 0.5508397881
C  C663  1  0.78650000  0.41336000  0.81166000  1.0 0.0815883685
C  C664  1  0.76488000  0.36178000  0.78930000  1.0 -0.2099580596
C  C665  1  0.79260000  0.35884000  0.76664000  1.0 0.0684462682
C  C666  1  0.84180000  0.40734000  0.76614000  1.0 -0.2216190158
C  C667  1  0.86329000  0.45889000  0.78840000  1.0 0.1905646046
C  C668  1  0.83560000  0.46186000  0.81106000  1.0 -0.2099580596
C  C669  1  0.91750000  0.51150000  0.79040000  1.0 -0.4597611715
C  C670  1  0.77000000  0.30447000  0.74187000  1.0 0.0614296279
C  C671  1  0.75130000  0.26448000  0.75938000  1.0 -0.1408630882
C  C672  1  0.73200000  0.21440000  0.73640000  1.0 -0.0211810779
C  C673  1  0.73140000  0.20419000  0.69599000  1.0 -0.121765487
C  C674  1  0.75010000  0.24418000  0.67848000  1.0 -0.0308755833
C  C675  1  0.76940000  0.29430000  0.70150000  1.0 -0.160592778
C  C676  1  0.74380000  0.23100000  0.63340000  1.0 0.57738717
C  C677  1  0.71440000  0.17170000  0.75570000  1.0 0.5918273815
C  C678  1  0.74400000  0.11140000  0.51320000  1.0 0.5722999567
C  C679  1  0.74980000  0.07203000  0.50603000  1.0 -0.0308755833
C  C680  1  0.73100000  0.03580000  0.52720000  1.0 -0.121765487
C  C681  1  0.73210000  0.99620000  0.51790000  1.0 -0.0211810779
C  C682  1  0.75180000  0.99293000  0.48733000  1.0 -0.1408630882
C  C683  1  0.77060000  0.02916000  0.46616000  1.0 0.0614296279
C  C684  1  0.76950000  0.06870000  0.47540000  1.0 -0.160592778
C  C685  1  0.71410000  0.95850000  0.54240000  1.0 0.5918273815
C  C686  1  0.79250000  0.02634000  0.43344000  1.0 0.0684462682
C  C687  1  0.76400000  0.97570000  0.40250000  1.0 -0.2099580596
C  C688  1  0.78520000  0.97445000  0.37245000  1.0 0.0815883685
C  C689  1  0.83490000  0.02379000  0.37329000  1.0 -0.2216190158
C  C690  1  0.86330000  0.07440000  0.40410000  1.0 0.2023199377
C  C691  1  0.84210000  0.07567000  0.43417000  1.0 -0.2216190158
C  C692  1  0.92030000  0.12870000  0.40840000  1.0 -0.4597611715
C  C693  1  0.75490000  0.91983000  0.33793000  1.0 0.0614296279
C  C694  1  0.69728000  0.88107000  0.31895000  1.0 -0.1408630882
C  C695  1  0.66774000  0.83160000  0.28594000  1.0 -0.0211810779
C  C696  1  0.69600000  0.82097000  0.27197000  1.0 -0.1045478022
C  C697  1  0.75373000  0.85983000  0.29096000  1.0 -0.0686844029
C  C698  1  0.78317000  0.90920000  0.32397000  1.0 -0.160592778
C  C699  1  0.60420000  0.78980000  0.26400000  1.0 0.57738717
C  C700  1  0.78240000  0.84760000  0.27600000  1.0 0.5392641946
C  C701  1  0.97130000  0.30980000  0.93550000  1.0 0.5392641946
C  C702  1  0.93879000  0.26276000  0.89295000  1.0 -0.0120543974
C  C703  1  0.96624000  0.25770000  0.87134000  1.0 -0.1787744722
C  C704  1  0.93630000  0.21725000  0.83115000  1.0 0.0684462682
C  C705  1  0.87920000  0.18205000  0.81265000  1.0 -0.1691250334
C  C706  1  0.85176000  0.18710000  0.83426000  1.0 -0.0211810779
C  C707  1  0.88170000  0.22756000  0.87446000  1.0 -0.1337796038
C  C708  1  0.79010000  0.15220000  0.81470000  1.0 0.5722999567
C  C709  1  0.96650000  0.21465000  0.80535000  1.0 0.0815883685
C  C710  1  0.93990000  0.16350000  0.77660000  1.0 -0.2099580596
C  C711  1  0.96650000  0.16084000  0.75234000  1.0 0.0815883685
C  C712  1  0.01970000  0.20924000  0.75694000  1.0 -0.2216190158
C  C713  1  0.04630000  0.26039000  0.78569000  1.0 0.2023199377
C  C714  1  0.01970000  0.26305000  0.80995000  1.0 -0.2099580596
C  C715  1  0.10260000  0.31370000  0.78930000  1.0 -0.4597611715
C  C716  1  0.93710000  0.10532000  0.71922000  1.0 0.0684462682
C  C717  1  0.87990000  0.06680000  0.69730000  1.0 -0.160592778
C  C718  1  0.85244000  0.01800000  0.66464000  1.0 -0.0211810779
C  C719  1  0.88210000  0.00754000  0.65384000  1.0 -0.121765487
C  C720  1  0.93930000  0.04605000  0.67575000  1.0 -0.0308755833
C  C721  1  0.96683000  0.09500000  0.70843000  1.0 -0.1691250334
C  C722  1  0.97090000  0.03570000  0.66200000  1.0 0.5392641946
C  C723  1  0.79050000  0.97540000  0.63890000  1.0 0.5722999567
C  C724  1  0.91510000  0.91040000  0.07990000  1.0 0.3056530023
C  C725  1  0.92950000  0.94050000  0.12580000  1.0 0.0298679448
C  C726  1  0.97920000  0.99640000  0.14820000  1.0 -0.0807084283
C  C727  1  0.99780000  0.01870000  0.19170000  1.0 -0.0211810779
C  C728  1  0.96680000  0.98490000  0.21270000  1.0 -0.086341934
C  C729  1  0.91710000  0.92900000  0.19030000  1.0 0.0378683174
C  C730  1  0.89860000  0.90690000  0.14690000  1.0 -0.1111936942
C  C731  1  0.88270000  0.89130000  0.21180000  1.0 0.2628335153
C  C732  1  0.04800000  0.08150000  0.21430000  1.0 -0.0308755833
C  C733  1  0.05400000  0.11070000  0.25170000  1.0 -0.2479418729
C  C734  1  0.91050000  0.91490000  0.07900000  1.0 0.3372697869
C  C735  1  0.93940000  0.92960000  0.12520000  1.0 0.0231921111
C  C736  1  0.99560000  0.97850000  0.14750000  1.0 -0.086341934
C  C737  1  0.01790000  0.99680000  0.19090000  1.0 -0.0120543974
C  C738  1  0.98410000  0.96610000  0.21200000  1.0 -0.0807084283
C  C739  1  0.92790000  0.91720000  0.18970000  1.0 0.0298679448
C  C740  1  0.90560000  0.89900000  0.14640000  1.0 -0.1111936942
C  C741  1  0.89060000  0.88180000  0.21100000  1.0 0.2628335153
C  C742  1  0.08060000  0.04760000  0.21300000  1.0 0.011789765
C  C743  1  0.11010000  0.04900000  0.24690000  1.0 -0.2617719954
C  C744  1  0.88720000  0.89290000  0.52850000  1.0 0.3638998309
C  C745  1  0.86380000  0.87050000  0.48030000  1.0 0.0298679448
C  C746  1  0.80730000  0.82280000  0.45770000  1.0 -0.0686844029
C  C747  1  0.78570000  0.80530000  0.41420000  1.0 0.011789765
C  C748  1  0.82060000  0.83550000  0.39350000  1.0 -0.0308755833
C  C749  1  0.87720000  0.88330000  0.41630000  1.0 0.011789765
C  C750  1  0.89870000  0.90070000  0.45960000  1.0 -0.2216190158
C  C751  1  0.91370000  0.92170000  0.39620000  1.0 0.2799669562
C  C752  1  0.72410000  0.75150000  0.39020000  1.0 0.0298679448
C  C753  1  0.69480000  0.74900000  0.35500000  1.0 -0.2783448639
C  C754  1  0.89470000  0.88870000  0.52880000  1.0 0.3638998309
C  C755  1  0.87100000  0.86500000  0.48080000  1.0 0.0298679448
C  C756  1  0.82260000  0.80870000  0.45810000  1.0 -0.0807084283
C  C757  1  0.80410000  0.78780000  0.41430000  1.0 0.0298679448
C  C758  1  0.83580000  0.82100000  0.39340000  1.0 -0.0532101484
C  C759  1  0.88260000  0.87760000  0.41620000  1.0 0.011789765
C  C760  1  0.90290000  0.89970000  0.46000000  1.0 -0.2216190158
C  C761  1  0.92060000  0.91310000  0.39530000  1.0 0.2799669562
C  C762  1  0.75070000  0.72600000  0.39050000  1.0 0.0298679448
C  C763  1  0.74800000  0.69670000  0.35490000  1.0 -0.2783448639
C  C764  1  0.52690000  0.79080000  0.18630000  1.0 0.5722999567
C  C765  1  0.54576000  0.83160000  0.16396000  1.0 -0.0211810779
C  C766  1  0.54880000  0.82081000  0.12501000  1.0 -0.1111936942
C  C767  1  0.56850000  0.85956000  0.10606000  1.0 -0.0532101484
C  C768  1  0.58538000  0.90920000  0.12618000  1.0 -0.160592778
C  C769  1  0.58240000  0.91999000  0.16519000  1.0 0.0614296279
C  C770  1  0.56260000  0.88124000  0.18404000  1.0 -0.1483678832
C  C771  1  0.57270000  0.84760000  0.06530000  1.0 0.5508397881
C  C772  1  0.60170000  0.97484000  0.18834000  1.0 0.0815883685
C  C773  1  0.57248000  0.97558000  0.21070000  1.0 -0.2099580596
C  C774  1  0.59220000  0.02596000  0.23336000  1.0 0.0684462682
C  C775  1  0.64120000  0.07566000  0.23386000  1.0 -0.2216190158
C  C776  1  0.67049000  0.07489000  0.21160000  1.0 0.1905646046
C  C777  1  0.65080000  0.02454000  0.18894000  1.0 -0.2099580596
C  C778  1  0.72110000  0.12710000  0.20960000  1.0 -0.4597611715
C  C779  1  0.56260000  0.02813000  0.25813000  1.0 0.0614296279
C  C780  1  0.50510000  0.99192000  0.24062000  1.0 -0.1408630882
C  C781  1  0.47800000  0.99560000  0.26360000  1.0 -0.0211810779
C  C782  1  0.50820000  0.03541000  0.30401000  1.0 -0.121765487
C  C783  1  0.56570000  0.07162000  0.32152000  1.0 -0.0308755833
C  C784  1  0.59280000  0.06790000  0.29850000  1.0 -0.160592778
C  C785  1  0.59760000  0.11040000  0.36660000  1.0 0.5722999567
C  C786  1  0.41600000  0.95870000  0.24430000  1.0 0.5918273815
C  C787  1  0.59820000  0.23080000  0.48680000  1.0 0.5722999567
C  C788  1  0.56600000  0.24377000  0.49397000  1.0 -0.0308755833
C  C789  1  0.50860000  0.20380000  0.47280000  1.0 -0.121765487
C  C790  1  0.47830000  0.21420000  0.48210000  1.0 -0.0211810779
C  C791  1  0.50560000  0.26447000  0.51267000  1.0 -0.1408630882
C  C792  1  0.56300000  0.30444000  0.53384000  1.0 0.0614296279
C  C793  1  0.59330000  0.29410000  0.52460000  1.0 -0.160592778
C  C794  1  0.41610000  0.17170000  0.45760000  1.0 0.5918273815
C  C795  1  0.59290000  0.35906000  0.56656000  1.0 0.0684462682
C  C796  1  0.57320000  0.36150000  0.59750000  1.0 -0.2099580596
C  C797  1  0.60200000  0.41275000  0.62755000  1.0 0.0815883685
C  C798  1  0.65050000  0.46161000  0.62671000  1.0 -0.2216190158
C  C799  1  0.67030000  0.45920000  0.59590000  1.0 0.2023199377
C  C800  1  0.64150000  0.40793000  0.56583000  1.0 -0.2216190158
C  C801  1  0.72030000  0.51190000  0.59160000  1.0 -0.4597611715
C  C802  1  0.58190000  0.41697000  0.66207000  1.0 0.0614296279
C  C803  1  0.56212000  0.37833000  0.68105000  1.0 -0.1408630882
C  C804  1  0.54566000  0.38180000  0.71406000  1.0 -0.0211810779
C  C805  1  0.54900000  0.42403000  0.72803000  1.0 -0.1111936942
C  C806  1  0.56887000  0.46277000  0.70904000  1.0 -0.0686844029
C  C807  1  0.58523000  0.45920000  0.67603000  1.0 -0.160592778
C  C808  1  0.52580000  0.34020000  0.73600000  1.0 0.57738717
C  C809  1  0.57160000  0.50640000  0.72400000  1.0 0.5508397881
C  C810  1  0.37430000  0.03580000  0.06450000  1.0 0.5392641946
C  C811  1  0.36981000  0.04584000  0.10705000  1.0 -0.0120543974
C  C812  1  0.38636000  0.09490000  0.12866000  1.0 -0.1787744722
C  C813  1  0.38610000  0.10515000  0.16885000  1.0 0.0684462682
C  C814  1  0.36940000  0.06655000  0.18735000  1.0 -0.1691250334
C  C815  1  0.35284000  0.01750000  0.16574000  1.0 -0.0211810779
C  C816  1  0.35310000  0.00724000  0.12554000  1.0 -0.1337796038
C  C817  1  0.33750000  0.97540000  0.18530000  1.0 0.5722999567
C  C818  1  0.40930000  0.16115000  0.19465000  1.0 0.0815883685
C  C819  1  0.38690000  0.16330000  0.22340000  1.0 -0.2099580596
C  C820  1  0.40850000  0.21416000  0.24766000  1.0 0.0815883685
C  C821  1  0.45230000  0.26276000  0.24306000  1.0 -0.2216190158
C  C822  1  0.47470000  0.26061000  0.21431000  1.0 0.2023199377
C  C823  1  0.45310000  0.20975000  0.19005000  1.0 -0.2099580596
C  C824  1  0.52440000  0.31330000  0.21070000  1.0 -0.4597611715
C  C825  1  0.38610000  0.21788000  0.28078000  1.0 0.0684462682
C  C826  1  0.36950000  0.18260000  0.30270000  1.0 -0.160592778
C  C827  1  0.35336000  0.18780000  0.33536000  1.0 -0.0211810779
C  C828  1  0.35370000  0.22826000  0.34616000  1.0 -0.121765487
C  C829  1  0.37030000  0.26355000  0.32425000  1.0 -0.0308755833
C  C830  1  0.38657000  0.25840000  0.29157000  1.0 -0.1691250334
C  C831  1  0.37370000  0.30890000  0.33800000  1.0 0.5392641946
C  C832  1  0.33650000  0.15160000  0.36110000  1.0 0.5722999567
C  C833  1  0.83050000  0.83520000  0.92010000  1.0 0.3020035787
C  C834  1  0.81470000  0.80370000  0.87420000  1.0 0.0298679448
C  C835  1  0.84820000  0.83100000  0.85180000  1.0 -0.0807084283
C  C836  1  0.82700000  0.80610000  0.80830000  1.0 -0.0211810779
C  C837  1  0.77220000  0.75410000  0.78730000  1.0 -0.086341934
C  C838  1  0.73870000  0.72680000  0.80970000  1.0 0.0378683174
C  C839  1  0.76000000  0.75170000  0.85310000  1.0 -0.1111936942
C  C840  1  0.67950000  0.67090000  0.78820000  1.0 0.2628335153
C  C841  1  0.86720000  0.83370000  0.78570000  1.0 -0.0308755833
C  C842  1  0.85900000  0.80230000  0.74830000  1.0 -0.2479418729
C  C843  1  0.83590000  0.83150000  0.92100000  1.0 0.3372697869
C  C844  1  0.80440000  0.81420000  0.87480000  1.0 0.0231921111
C  C845  1  0.83100000  0.84810000  0.85250000  1.0 -0.086341934
C  C846  1  0.80590000  0.82700000  0.80910000  1.0 -0.0120543974
C  C847  1  0.75410000  0.77210000  0.78800000  1.0 -0.0807084283
C  C848  1  0.72750000  0.73820000  0.81030000  1.0 0.0298679448
C  C849  1  0.75260000  0.75920000  0.85360000  1.0 -0.1111936942
C  C850  1  0.67080000  0.67960000  0.78900000  1.0 0.2628335153
C  C851  1  0.83460000  0.86760000  0.78700000  1.0 0.011789765
C  C852  1  0.80210000  0.86320000  0.75310000  1.0 -0.2617719954
C  C853  1  0.36440000  0.35870000  0.47150000  1.0 0.3638998309
C  C854  1  0.39020000  0.38350000  0.51970000  1.0 0.0298679448
C  C855  1  0.36510000  0.34960000  0.54230000  1.0 -0.0686844029
C  C856  1  0.39110000  0.37150000  0.58580000  1.0 0.011789765
C  C857  1  0.44200000  0.42710000  0.60650000  1.0 -0.0308755833
C  C858  1  0.46700000  0.46090000  0.58370000  1.0 0.011789765
C  C859  1  0.44110000  0.43910000  0.54040000  1.0 -0.2216190158
C  C860  1  0.52550000  0.51750000  0.60380000  1.0 0.2799669562
C  C861  1  0.36130000  0.33390000  0.60980000  1.0 0.0298679448
C  C862  1  0.39400000  0.33980000  0.64500000  1.0 -0.2783448639
C  C863  1  0.35990000  0.36590000  0.47120000  1.0 0.3655331546
C  C864  1  0.38420000  0.39020000  0.51920000  1.0 0.0298679448
C  C865  1  0.35060000  0.36450000  0.54190000  1.0 -0.0807084283
C  C866  1  0.37350000  0.38980000  0.58570000  1.0 0.0298679448
C  C867  1  0.42760000  0.44240000  0.60660000  1.0 -0.0532101484
C  C868  1  0.46140000  0.46640000  0.58380000  1.0 0.011789765
C  C869  1  0.43970000  0.44290000  0.54000000  1.0 -0.2216190158
C  C870  1  0.51780000  0.52530000  0.60470000  1.0 0.2799669562
C  C871  1  0.33550000  0.36020000  0.60950000  1.0 0.0298679448
C  C872  1  0.34180000  0.39310000  0.64510000  1.0 -0.2783448639
C  C873  1  0.00000000  0.32620000  0.32620000  1.0 0.40793084
C  C874  1  0.99958000  0.29980000  0.29938000  1.0 -0.3032696879
C  C875  1  0.71290000  0.30330000  0.01620000  1.0 -0.0807084283
C  C876  1  0.70490000  0.36360000  0.06850000  1.0 0.102608391
C  C877  1  0.70050000  0.39620000  0.09670000  1.0 -0.2216190158
C  C878  1  0.69760000  0.28810000  0.98570000  1.0 -0.0807084283
C  C879  1  0.63810000  0.29770000  0.93580000  1.0 0.1113849006
C  C880  1  0.60560000  0.30250000  0.90810000  1.0 -0.2403534929
C  C881  1  0.00000000  0.67380000  0.67380000  1.0 0.40793084
C  C882  1  0.00042000  0.70020000  0.70062000  1.0 -0.3032696879
C  C883  1  0.28710000  0.69670000  0.98380000  1.0 -0.0807084283
C  C884  1  0.29510000  0.63640000  0.93150000  1.0 0.102608391
C  C885  1  0.29950000  0.60380000  0.90330000  1.0 -0.2287329119
C  C886  1  0.30240000  0.71190000  0.01430000  1.0 -0.0807084283
C  C887  1  0.36190000  0.70230000  0.06420000  1.0 0.1113849006
C  C888  1  0.39440000  0.69750000  0.09190000  1.0 -0.2403534929
C  C889  1  0.32620000  0.00000000  0.32620000  1.0 0.40793084
C  C890  1  0.29980000  0.00042000  0.30022000  1.0 -0.3032696879
C  C891  1  0.30330000  0.28710000  0.59040000  1.0 -0.0807084283
C  C892  1  0.36360000  0.29510000  0.65870000  1.0 0.102608391
C  C893  1  0.39620000  0.29950000  0.69570000  1.0 -0.2216190158
C  C894  1  0.28810000  0.30240000  0.59050000  1.0 -0.0807084283
C  C895  1  0.29770000  0.36190000  0.65960000  1.0 0.1113849006
C  C896  1  0.30250000  0.39440000  0.69690000  1.0 -0.2403534929
C  C897  1  0.67380000  0.00000000  0.67380000  1.0 0.40793084
C  C898  1  0.70020000  0.99958000  0.69978000  1.0 -0.3032696879
C  C899  1  0.69670000  0.71290000  0.40960000  1.0 -0.0807084283
C  C900  1  0.63640000  0.70490000  0.34130000  1.0 0.102608391
C  C901  1  0.60380000  0.70050000  0.30430000  1.0 -0.2216190158
C  C902  1  0.71190000  0.69760000  0.40950000  1.0 -0.0807084283
C  C903  1  0.70230000  0.63810000  0.34040000  1.0 0.1113849006
C  C904  1  0.69750000  0.60560000  0.30310000  1.0 -0.2403534929
C  C905  1  0.10780000  0.90980000  0.01760000  1.0 -0.1408630882
C  C906  1  0.16880000  0.90100000  0.06980000  1.0 0.102608391
C  C907  1  0.20130000  0.90500000  0.10630000  1.0 -0.1899835081
C  C908  1  0.08570000  0.89250000  0.97820000  1.0 -0.1691250334
C  C909  1  0.09110000  0.83190000  0.92300000  1.0 0.0932725816
C  C910  1  0.09360000  0.79930000  0.89290000  1.0 -0.1975399441
C  C911  1  0.89220000  0.09020000  0.98240000  1.0 -0.1408630882
C  C912  1  0.83120000  0.09900000  0.93020000  1.0 0.1113849006
C  C913  1  0.79870000  0.09500000  0.89370000  1.0 -0.1899835081
C  C914  1  0.91430000  0.10750000  0.02180000  1.0 -0.1691250334
C  C915  1  0.90890000  0.16810000  0.07700000  1.0 0.0932725816
C  C916  1  0.90640000  0.20070000  0.10710000  1.0 -0.1899835081
C  C917  1  0.90980000  0.89220000  0.80200000  1.0 -0.1408630882
C  C918  1  0.90100000  0.83120000  0.73220000  1.0 0.1113849006
C  C919  1  0.90500000  0.79870000  0.70370000  1.0 -0.1899835081
C  C920  1  0.89250000  0.91430000  0.80680000  1.0 -0.1691250334
C  C921  1  0.83190000  0.90890000  0.74080000  1.0 0.0932725816
C  C922  1  0.79930000  0.90640000  0.70570000  1.0 -0.1975399441
C  C923  1  0.09020000  0.10780000  0.19800000  1.0 -0.1408630882
C  C924  1  0.09900000  0.16880000  0.26780000  1.0 0.1113849006
C  C925  1  0.09500000  0.20130000  0.29630000  1.0 -0.1899835081
C  C926  1  0.10750000  0.08570000  0.19320000  1.0 -0.1691250334
C  C927  1  0.16810000  0.09110000  0.25920000  1.0 0.0932725816
C  C928  1  0.20070000  0.09360000  0.29430000  1.0 -0.1899835081
O  O1  1  0.78430000  0.18970000  0.40560000  1.0 -0.467428576
O  O2  1  0.75460000  0.19740000  0.44100000  1.0 -0.6353316194
O  O3  1  0.85859000  0.34174000  0.48183000  1.0 -0.3032696879
O  O4  1  0.24910000  0.41820000  0.76790000  1.0 -0.5280136618
O  O5  1  0.19920000  0.41840000  0.71780000  1.0 -0.5690516568
O  O6  1  0.19230000  0.24340000  0.75810000  1.0 -0.4795991795
O  O7  1  0.12880000  0.17290000  0.70130000  1.0 -0.4920446188
O  O8  1  0.08030000  0.28880000  0.46970000  1.0 -0.5610328203
O  O9  1  0.03050000  0.29620000  0.42710000  1.0 -0.5499883702
O  O10  1  0.86430000  0.24830000  0.50940000  1.0 -0.5099789297
O  O11  1  0.88030000  0.26460000  0.45370000  1.0 -0.5610328203
O  O12  1  0.81080000  0.26360000  0.38420000  1.0 -0.5499883702
O  O13  1  0.73980000  0.24890000  0.38390000  1.0 -0.4920446188
O  O14  1  0.86990000  0.29700000  0.26610000  1.0 -0.5610328203
O  O15  1  0.81920000  0.28820000  0.20880000  1.0 -0.5499883702
O  O16  1  0.70060000  0.41830000  0.21970000  1.0 -0.5813879556
O  O17  1  0.64980000  0.41870000  0.16910000  1.0 -0.538498887
O  O18  1  0.48520000  0.24260000  0.05160000  1.0 -0.4597611715
O  O19  1  0.47030000  0.17270000  0.04520000  1.0 -0.4479874036
O  O20  1  0.93750000  0.98360000  0.31250000  1.0 -0.515305925
O  O21  1  0.00310000  0.05300000  0.37070000  1.0 -0.5099789297
O  O22  1  0.01450000  0.23570000  0.34940000  1.0 -0.5690516568
O  O23  1  0.06480000  0.22930000  0.39250000  1.0 -0.538498887
O  O24  1  0.66960000  0.98340000  0.04560000  1.0 -0.4920446188
O  O25  1  0.68200000  0.05250000  0.05070000  1.0 -0.4795991795
O  O26  1  0.83680000  0.22870000  0.16430000  1.0 -0.538498887
O  O27  1  0.88590000  0.23550000  0.22080000  1.0 -0.5690516568
O  O28  1  0.11390000  0.05290000  0.99260000  1.0 -0.2287329119
O  O29  1  0.19220000  0.12990000  0.99030000  1.0 -0.1691250334
O  O30  1  0.33440000  0.08530000  0.98050000  1.0 -0.1787744722
O  O31  1  0.34590000  0.15430000  0.99340000  1.0 -0.2216190158
O  O32  1  0.12180000  0.06020000  0.00920000  1.0 -0.2287329119
O  O33  1  0.20020000  0.13940000  0.00960000  1.0 -0.1691250334
O  O34  1  0.35340000  0.10480000  0.01880000  1.0 -0.1691250334
O  O35  1  0.35260000  0.16160000  0.00740000  1.0 -0.2287329119
O  O36  1  0.60530000  0.05990000  0.98980000  1.0 -0.1483678832
O  O37  1  0.69070000  0.14340000  0.00890000  1.0 -0.1337796038
O  O38  1  0.44510000  0.08500000  0.97830000  1.0 -0.2216190158
O  O39  1  0.45070000  0.03400000  0.99030000  1.0 -0.121765487
O  O40  1  0.61620000  0.06950000  0.01090000  1.0 -0.1787744722
O  O41  1  0.67890000  0.13100000  0.98890000  1.0 -0.1408630882
O  O42  1  0.46690000  0.10860000  0.02090000  1.0 -0.2479418729
O  O43  1  0.45980000  0.04410000  0.00950000  1.0 -0.1111936942
O  O44  1  0.78410000  0.37870000  0.59440000  1.0 -0.467428576
O  O45  1  0.75640000  0.31360000  0.55900000  1.0 -0.6353316194
O  O46  1  0.85991000  0.37676000  0.51817000  1.0 -0.3032696879
O  O47  1  0.65030000  0.48120000  0.23210000  1.0 -0.5280136618
O  O48  1  0.70060000  0.48140000  0.28220000  1.0 -0.5690516568
O  O49  1  0.48530000  0.43420000  0.24190000  1.0 -0.4795991795
O  O50  1  0.47160000  0.42750000  0.29870000  1.0 -0.4920446188
O  O51  1  0.81910000  0.61060000  0.53030000  1.0 -0.5610328203
O  O52  1  0.86910000  0.60340000  0.57290000  1.0 -0.5499883702
O  O53  1  0.73890000  0.35490000  0.49060000  1.0 -0.5099789297
O  O54  1  0.81090000  0.42660000  0.54630000  1.0 -0.5610328203
O  O55  1  0.87940000  0.42660000  0.61580000  1.0 -0.5499883702
O  O56  1  0.86500000  0.35590000  0.61610000  1.0 -0.4920446188
O  O57  1  0.03090000  0.60380000  0.73390000  1.0 -0.5610328203
O  O58  1  0.07940000  0.61040000  0.79120000  1.0 -0.5499883702
O  O59  1  0.19860000  0.48090000  0.78030000  1.0 -0.5813879556
O  O60  1  0.24960000  0.48070000  0.83090000  1.0 -0.538498887
O  O61  1  0.19100000  0.43360000  0.94840000  1.0 -0.4597611715
O  O62  1  0.12750000  0.42510000  0.95480000  1.0 -0.4479874036
O  O63  1  0.67110000  0.62500000  0.68750000  1.0 -0.5099789297
O  O64  1  0.68230000  0.63240000  0.62930000  1.0 -0.5099789297
O  O65  1  0.88630000  0.66510000  0.65060000  1.0 -0.5690516568
O  O66  1  0.83680000  0.67230000  0.60750000  1.0 -0.538498887
O  O67  1  0.93780000  0.62400000  0.95440000  1.0 -0.4920446188
O  O68  1  0.00180000  0.63130000  0.94930000  1.0 -0.4795991795
O  O69  1  0.06440000  0.67250000  0.83570000  1.0 -0.538498887
O  O70  1  0.01470000  0.66510000  0.77920000  1.0 -0.5690516568
O  O71  1  0.06030000  0.12130000  0.00740000  1.0 -0.2287329119
O  O72  1  0.13960000  0.20190000  0.00970000  1.0 -0.1691250334
O  O73  1  0.10480000  0.35390000  0.01950000  1.0 -0.1787744722
O  O74  1  0.16090000  0.35250000  0.00660000  1.0 -0.2216190158
O  O75  1  0.05100000  0.11260000  0.99080000  1.0 -0.2287329119
O  O76  1  0.12980000  0.19060000  0.99040000  1.0 -0.1691250334
O  O77  1  0.08600000  0.33460000  0.98120000  1.0 -0.1691250334
O  O78  1  0.15420000  0.34520000  0.99260000  1.0 -0.2287329119
O  O79  1  0.07010000  0.61550000  0.01020000  1.0 -0.1408630882
O  O80  1  0.13450000  0.68180000  0.99110000  1.0 -0.1337796038
O  O81  1  0.10670000  0.46680000  0.02170000  1.0 -0.2287329119
O  O82  1  0.04370000  0.46040000  0.00970000  1.0 -0.121765487
O  O83  1  0.05860000  0.60530000  0.98910000  1.0 -0.1787744722
O  O84  1  0.14210000  0.69000000  0.01110000  1.0 -0.1408630882
O  O85  1  0.08770000  0.44600000  0.97910000  1.0 -0.2479418729
O  O86  1  0.03460000  0.45030000  0.99050000  1.0 -0.1111936942
O  O87  1  0.18970000  0.78410000  0.40540000  1.0 -0.467428576
O  O88  1  0.19740000  0.75640000  0.44280000  1.0 -0.6353316194
O  O89  1  0.34174000  0.85991000  0.48315000  1.0 -0.3032696879
O  O90  1  0.41820000  0.65030000  0.16910000  1.0 -0.5280136618
O  O91  1  0.41840000  0.70060000  0.21920000  1.0 -0.5690516568
O  O92  1  0.24340000  0.48530000  0.05110000  1.0 -0.4795991795
O  O93  1  0.17290000  0.47160000  0.04410000  1.0 -0.4920446188
O  O94  1  0.28880000  0.81910000  0.20850000  1.0 -0.5610328203
O  O95  1  0.29620000  0.86910000  0.26570000  1.0 -0.5499883702
O  O96  1  0.24830000  0.73890000  0.38400000  1.0 -0.5099789297
O  O97  1  0.26460000  0.81090000  0.38430000  1.0 -0.5610328203
O  O98  1  0.26360000  0.87940000  0.45280000  1.0 -0.5499883702
O  O99  1  0.24890000  0.86500000  0.50910000  1.0 -0.4920446188
O  O100  1  0.29700000  0.03090000  0.42710000  1.0 -0.5610328203
O  O101  1  0.28820000  0.07940000  0.46900000  1.0 -0.5499883702
O  O102  1  0.41830000  0.19860000  0.71770000  1.0 -0.5813879556
O  O103  1  0.41870000  0.24960000  0.76890000  1.0 -0.538498887
O  O104  1  0.24260000  0.19100000  0.75740000  1.0 -0.4597611715
O  O105  1  0.17270000  0.12750000  0.70240000  1.0 -0.4479874036
O  O106  1  0.98360000  0.67110000  0.04610000  1.0 -0.515305925
O  O107  1  0.05300000  0.68230000  0.04990000  1.0 -0.5099789297
O  O108  1  0.23570000  0.88630000  0.22120000  1.0 -0.5690516568
O  O109  1  0.22930000  0.83680000  0.16450000  1.0 -0.538498887
O  O110  1  0.98340000  0.93780000  0.31380000  1.0 -0.4920446188
O  O111  1  0.05250000  0.00180000  0.37050000  1.0 -0.4795991795
O  O112  1  0.22870000  0.06440000  0.39190000  1.0 -0.538498887
O  O113  1  0.23550000  0.01470000  0.34960000  1.0 -0.5690516568
O  O114  1  0.05290000  0.06030000  0.93900000  1.0 -0.2287329119
O  O115  1  0.12990000  0.13960000  0.93770000  1.0 -0.1691250334
O  O116  1  0.08530000  0.10480000  0.75090000  1.0 -0.1787744722
O  O117  1  0.15430000  0.16090000  0.80840000  1.0 -0.2216190158
O  O118  1  0.06020000  0.05100000  0.93840000  1.0 -0.2287329119
O  O119  1  0.13940000  0.12980000  0.93920000  1.0 -0.1691250334
O  O120  1  0.10480000  0.08600000  0.75140000  1.0 -0.1691250334
O  O121  1  0.16160000  0.15420000  0.80900000  1.0 -0.2287329119
O  O122  1  0.05990000  0.07010000  0.45460000  1.0 -0.1408630882
O  O123  1  0.14340000  0.13450000  0.45270000  1.0 -0.1337796038
O  O124  1  0.08500000  0.10670000  0.63990000  1.0 -0.2216190158
O  O125  1  0.03400000  0.04370000  0.58330000  1.0 -0.121765487
O  O126  1  0.06950000  0.05860000  0.45330000  1.0 -0.1691250334
O  O127  1  0.13100000  0.14210000  0.45210000  1.0 -0.1408630882
O  O128  1  0.10860000  0.08770000  0.64170000  1.0 -0.2479418729
O  O129  1  0.04410000  0.03460000  0.58430000  1.0 -0.1111936942
O  O130  1  0.37870000  0.78430000  0.59460000  1.0 -0.467428576
O  O131  1  0.31360000  0.75460000  0.55720000  1.0 -0.6348191386
O  O132  1  0.37676000  0.85859000  0.51685000  1.0 -0.3032696879
O  O133  1  0.48120000  0.24910000  0.83090000  1.0 -0.5280136618
O  O134  1  0.48140000  0.19920000  0.78080000  1.0 -0.5690516568
O  O135  1  0.43420000  0.19230000  0.94890000  1.0 -0.4795991795
O  O136  1  0.42750000  0.12880000  0.95590000  1.0 -0.4920446188
O  O137  1  0.61060000  0.08030000  0.79150000  1.0 -0.5610328203
O  O138  1  0.60340000  0.03050000  0.73430000  1.0 -0.5499883702
O  O139  1  0.35490000  0.86430000  0.61600000  1.0 -0.5099789297
O  O140  1  0.42660000  0.88030000  0.61570000  1.0 -0.5610328203
O  O141  1  0.42660000  0.81080000  0.54720000  1.0 -0.5499883702
O  O142  1  0.35590000  0.73980000  0.49090000  1.0 -0.4920446188
O  O143  1  0.60380000  0.86990000  0.57290000  1.0 -0.5610328203
O  O144  1  0.61040000  0.81920000  0.53100000  1.0 -0.5499883702
O  O145  1  0.48090000  0.70060000  0.28230000  1.0 -0.5813879556
O  O146  1  0.48070000  0.64980000  0.23110000  1.0 -0.538498887
O  O147  1  0.43360000  0.48520000  0.24260000  1.0 -0.4597611715
O  O148  1  0.42510000  0.47030000  0.29760000  1.0 -0.4479874036
O  O149  1  0.62500000  0.93750000  0.95390000  1.0 -0.5099789297
O  O150  1  0.63240000  0.00310000  0.95010000  1.0 -0.5099789297
O  O151  1  0.66510000  0.01450000  0.77880000  1.0 -0.5690516568
O  O152  1  0.67230000  0.06480000  0.83550000  1.0 -0.538498887
O  O153  1  0.62400000  0.66960000  0.68620000  1.0 -0.4920446188
O  O154  1  0.63130000  0.68200000  0.62950000  1.0 -0.4795991795
O  O155  1  0.67250000  0.83680000  0.60810000  1.0 -0.538498887
O  O156  1  0.66510000  0.88590000  0.65040000  1.0 -0.5690516568
O  O157  1  0.12130000  0.11390000  0.06100000  1.0 -0.2287329119
O  O158  1  0.20190000  0.19220000  0.06230000  1.0 -0.1691250334
O  O159  1  0.35390000  0.33440000  0.24910000  1.0 -0.1787744722
O  O160  1  0.35250000  0.34590000  0.19160000  1.0 -0.2216190158
O  O161  1  0.11260000  0.12180000  0.06160000  1.0 -0.2287329119
O  O162  1  0.19060000  0.20020000  0.06080000  1.0 -0.1691250334
O  O163  1  0.33460000  0.35340000  0.24860000  1.0 -0.1691250334
O  O164  1  0.34520000  0.35260000  0.19100000  1.0 -0.2287329119
O  O165  1  0.61550000  0.60530000  0.54540000  1.0 -0.1483678832
O  O166  1  0.68180000  0.69070000  0.54730000  1.0 -0.1408630882
O  O167  1  0.46680000  0.44510000  0.36010000  1.0 -0.2287329119
O  O168  1  0.46040000  0.45070000  0.41670000  1.0 -0.121765487
O  O169  1  0.60530000  0.61620000  0.54670000  1.0 -0.1787744722
O  O170  1  0.69000000  0.67890000  0.54790000  1.0 -0.1408630882
O  O171  1  0.44600000  0.46690000  0.35830000  1.0 -0.2479418729
O  O172  1  0.45030000  0.45980000  0.41570000  1.0 -0.1111936942
O  O173  1  0.21570000  0.81030000  0.59440000  1.0 -0.467428576
O  O174  1  0.24540000  0.80260000  0.55900000  1.0 -0.6353316194
O  O175  1  0.14141000  0.65826000  0.51817000  1.0 -0.3032696879
O  O176  1  0.75090000  0.58180000  0.23210000  1.0 -0.5280136618
O  O177  1  0.80080000  0.58160000  0.28220000  1.0 -0.5690516568
O  O178  1  0.80770000  0.75660000  0.24190000  1.0 -0.4795991795
O  O179  1  0.87120000  0.82710000  0.29870000  1.0 -0.4920446188
O  O180  1  0.91970000  0.71120000  0.53030000  1.0 -0.5610328203
O  O181  1  0.96950000  0.70380000  0.57290000  1.0 -0.5499883702
O  O182  1  0.13570000  0.75170000  0.49060000  1.0 -0.5099789297
O  O183  1  0.11970000  0.73540000  0.54630000  1.0 -0.5610328203
O  O184  1  0.18920000  0.73640000  0.61580000  1.0 -0.5499883702
O  O185  1  0.26020000  0.75110000  0.61610000  1.0 -0.4920446188
O  O186  1  0.13010000  0.70300000  0.73390000  1.0 -0.5610328203
O  O187  1  0.18080000  0.71180000  0.79120000  1.0 -0.5499883702
O  O188  1  0.29940000  0.58170000  0.78030000  1.0 -0.5813879556
O  O189  1  0.35020000  0.58130000  0.83090000  1.0 -0.538498887
O  O190  1  0.51480000  0.75740000  0.94840000  1.0 -0.4597611715
O  O191  1  0.52970000  0.82730000  0.95480000  1.0 -0.4479874036
O  O192  1  0.06250000  0.01640000  0.68750000  1.0 -0.5099789297
O  O193  1  0.99690000  0.94700000  0.62930000  1.0 -0.5099789297
O  O194  1  0.98550000  0.76430000  0.65060000  1.0 -0.5690516568
O  O195  1  0.93520000  0.77070000  0.60750000  1.0 -0.538498887
O  O196  1  0.33040000  0.01660000  0.95440000  1.0 -0.4920446188
O  O197  1  0.31800000  0.94750000  0.94930000  1.0 -0.4795991795
O  O198  1  0.16320000  0.77130000  0.83570000  1.0 -0.538498887
O  O199  1  0.11410000  0.76450000  0.77920000  1.0 -0.5690516568
O  O200  1  0.88610000  0.94710000  0.00740000  1.0 -0.2287329119
O  O201  1  0.80780000  0.87010000  0.00970000  1.0 -0.160592778
O  O202  1  0.66560000  0.91470000  0.01950000  1.0 -0.1787744722
O  O203  1  0.65410000  0.84570000  0.00660000  1.0 -0.2216190158
O  O204  1  0.87820000  0.93980000  0.99080000  1.0 -0.2287329119
O  O205  1  0.79980000  0.86060000  0.99040000  1.0 -0.1691250334
O  O206  1  0.64660000  0.89520000  0.98120000  1.0 -0.1691250334
O  O207  1  0.64740000  0.83840000  0.99260000  1.0 -0.2287329119
O  O208  1  0.39470000  0.94010000  0.01020000  1.0 -0.1483678832
O  O209  1  0.30930000  0.85660000  0.99110000  1.0 -0.1337796038
O  O210  1  0.55490000  0.91500000  0.02170000  1.0 -0.2287329119
O  O211  1  0.54930000  0.96600000  0.00970000  1.0 -0.121765487
O  O212  1  0.38380000  0.93050000  0.98910000  1.0 -0.1691250334
O  O213  1  0.32110000  0.86900000  0.01110000  1.0 -0.1408630882
O  O214  1  0.53310000  0.89140000  0.97910000  1.0 -0.2479418729
O  O215  1  0.54020000  0.95590000  0.99050000  1.0 -0.1111936942
O  O216  1  0.21590000  0.62130000  0.40560000  1.0 -0.467428576
O  O217  1  0.24360000  0.68640000  0.44100000  1.0 -0.6353316194
O  O218  1  0.14009000  0.62324000  0.48183000  1.0 -0.3032696879
O  O219  1  0.34970000  0.51880000  0.76790000  1.0 -0.5280136618
O  O220  1  0.29940000  0.51860000  0.71780000  1.0 -0.5690516568
O  O221  1  0.51470000  0.56580000  0.75810000  1.0 -0.4795991795
O  O222  1  0.52840000  0.57250000  0.70130000  1.0 -0.4920446188
O  O223  1  0.18090000  0.38940000  0.46970000  1.0 -0.5610328203
O  O224  1  0.13090000  0.39660000  0.42710000  1.0 -0.5499883702
O  O225  1  0.26110000  0.64510000  0.50940000  1.0 -0.5099789297
O  O226  1  0.18910000  0.57340000  0.45370000  1.0 -0.5610328203
O  O227  1  0.12060000  0.57340000  0.38420000  1.0 -0.5499883702
O  O228  1  0.13500000  0.64410000  0.38390000  1.0 -0.4920446188
O  O229  1  0.96910000  0.39620000  0.26610000  1.0 -0.5610328203
O  O230  1  0.92060000  0.38960000  0.20880000  1.0 -0.5499883702
O  O231  1  0.80140000  0.51910000  0.21970000  1.0 -0.5813879556
O  O232  1  0.75040000  0.51930000  0.16910000  1.0 -0.538498887
O  O233  1  0.80900000  0.56640000  0.05160000  1.0 -0.4597611715
O  O234  1  0.87250000  0.57490000  0.04520000  1.0 -0.4479874036
O  O235  1  0.32890000  0.37500000  0.31250000  1.0 -0.515305925
O  O236  1  0.31770000  0.36760000  0.37070000  1.0 -0.5099789297
O  O237  1  0.11370000  0.33490000  0.34940000  1.0 -0.5690516568
O  O238  1  0.16320000  0.32770000  0.39250000  1.0 -0.538498887
O  O239  1  0.06220000  0.37600000  0.04560000  1.0 -0.4920446188
O  O240  1  0.99820000  0.36870000  0.05070000  1.0 -0.4795991795
O  O241  1  0.93560000  0.32750000  0.16430000  1.0 -0.538498887
O  O242  1  0.98530000  0.33490000  0.22080000  1.0 -0.5690516568
O  O243  1  0.93970000  0.87870000  0.99260000  1.0 -0.2287329119
O  O244  1  0.86040000  0.79810000  0.99030000  1.0 -0.1691250334
O  O245  1  0.89520000  0.64610000  0.98050000  1.0 -0.1787744722
O  O246  1  0.83910000  0.64750000  0.99340000  1.0 -0.2216190158
O  O247  1  0.94900000  0.88740000  0.00920000  1.0 -0.2287329119
O  O248  1  0.87020000  0.80940000  0.00960000  1.0 -0.1691250334
O  O249  1  0.91400000  0.66540000  0.01880000  1.0 -0.1691250334
O  O250  1  0.84580000  0.65480000  0.00740000  1.0 -0.2287329119
O  O251  1  0.92990000  0.38450000  0.98980000  1.0 -0.1483678832
O  O252  1  0.86550000  0.31820000  0.00890000  1.0 -0.1408630882
O  O253  1  0.89330000  0.53320000  0.97830000  1.0 -0.2287329119
O  O254  1  0.95630000  0.53960000  0.99030000  1.0 -0.121765487
O  O255  1  0.94140000  0.39470000  0.01090000  1.0 -0.1787744722
O  O256  1  0.85790000  0.31000000  0.98890000  1.0 -0.1408630882
O  O257  1  0.91230000  0.55400000  0.02090000  1.0 -0.2479418729
O  O258  1  0.96540000  0.54970000  0.00950000  1.0 -0.1111936942
O  O259  1  0.81030000  0.21590000  0.59460000  1.0 -0.467428576
O  O260  1  0.80260000  0.24360000  0.55720000  1.0 -0.6348191386
O  O261  1  0.65826000  0.14009000  0.51685000  1.0 -0.3032696879
O  O262  1  0.58180000  0.34970000  0.83090000  1.0 -0.5280136618
O  O263  1  0.58160000  0.29940000  0.78080000  1.0 -0.5690516568
O  O264  1  0.75660000  0.51470000  0.94890000  1.0 -0.4795991795
O  O265  1  0.82710000  0.52840000  0.95590000  1.0 -0.4920446188
O  O266  1  0.71120000  0.18090000  0.79150000  1.0 -0.5610328203
O  O267  1  0.70380000  0.13090000  0.73430000  1.0 -0.5499883702
O  O268  1  0.75170000  0.26110000  0.61600000  1.0 -0.5099789297
O  O269  1  0.73540000  0.18910000  0.61570000  1.0 -0.5610328203
O  O270  1  0.73640000  0.12060000  0.54720000  1.0 -0.5499883702
O  O271  1  0.75110000  0.13500000  0.49090000  1.0 -0.4920446188
O  O272  1  0.70300000  0.96910000  0.57290000  1.0 -0.5610328203
O  O273  1  0.71180000  0.92060000  0.53100000  1.0 -0.5499883702
O  O274  1  0.58170000  0.80140000  0.28230000  1.0 -0.5813879556
O  O275  1  0.58130000  0.75040000  0.23110000  1.0 -0.538498887
O  O276  1  0.75740000  0.80900000  0.24260000  1.0 -0.4597611715
O  O277  1  0.82730000  0.87250000  0.29760000  1.0 -0.4479874036
O  O278  1  0.01640000  0.32890000  0.95390000  1.0 -0.515305925
O  O279  1  0.94700000  0.31770000  0.95010000  1.0 -0.5099789297
O  O280  1  0.76430000  0.11370000  0.77880000  1.0 -0.5690516568
O  O281  1  0.77070000  0.16320000  0.83550000  1.0 -0.538498887
O  O282  1  0.01660000  0.06220000  0.68620000  1.0 -0.4920446188
O  O283  1  0.94750000  0.99820000  0.62950000  1.0 -0.4795991795
O  O284  1  0.77130000  0.93560000  0.60810000  1.0 -0.538498887
O  O285  1  0.76450000  0.98530000  0.65040000  1.0 -0.5690516568
O  O286  1  0.94710000  0.93970000  0.06100000  1.0 -0.2287329119
O  O287  1  0.87010000  0.86040000  0.06230000  1.0 -0.1691250334
O  O288  1  0.91470000  0.89520000  0.24910000  1.0 -0.1787744722
O  O289  1  0.84570000  0.83910000  0.19160000  1.0 -0.2216190158
O  O290  1  0.93980000  0.94900000  0.06160000  1.0 -0.2287329119
O  O291  1  0.86060000  0.87020000  0.06080000  1.0 -0.1691250334
O  O292  1  0.89520000  0.91400000  0.24860000  1.0 -0.1691250334
O  O293  1  0.83840000  0.84580000  0.19100000  1.0 -0.2287329119
O  O294  1  0.94010000  0.92990000  0.54540000  1.0 -0.1483678832
O  O295  1  0.85660000  0.86550000  0.54730000  1.0 -0.1408630882
O  O296  1  0.91500000  0.89330000  0.36010000  1.0 -0.2216190158
O  O297  1  0.96600000  0.95630000  0.41670000  1.0 -0.121765487
O  O298  1  0.93050000  0.94140000  0.54670000  1.0 -0.1787744722
O  O299  1  0.86900000  0.85790000  0.54790000  1.0 -0.1408630882
O  O300  1  0.89140000  0.91230000  0.35830000  1.0 -0.2479418729
O  O301  1  0.95590000  0.96540000  0.41570000  1.0 -0.1111936942
O  O302  1  0.62130000  0.21570000  0.40540000  1.0 -0.467428576
O  O303  1  0.68640000  0.24540000  0.44280000  1.0 -0.6353316194
O  O304  1  0.62324000  0.14141000  0.48315000  1.0 -0.3032696879
O  O305  1  0.51880000  0.75090000  0.16910000  1.0 -0.5280136618
O  O306  1  0.51860000  0.80080000  0.21920000  1.0 -0.5690516568
O  O307  1  0.56580000  0.80770000  0.05110000  1.0 -0.4795991795
O  O308  1  0.57250000  0.87120000  0.04410000  1.0 -0.4920446188
O  O309  1  0.38940000  0.91970000  0.20850000  1.0 -0.5610328203
O  O310  1  0.39660000  0.96950000  0.26570000  1.0 -0.5499883702
O  O311  1  0.64510000  0.13570000  0.38400000  1.0 -0.5099789297
O  O312  1  0.57340000  0.11970000  0.38430000  1.0 -0.5610328203
O  O313  1  0.57340000  0.18920000  0.45280000  1.0 -0.5499883702
O  O314  1  0.64410000  0.26020000  0.50910000  1.0 -0.4920446188
O  O315  1  0.39620000  0.13010000  0.42710000  1.0 -0.5610328203
O  O316  1  0.38960000  0.18080000  0.46900000  1.0 -0.5499883702
O  O317  1  0.51910000  0.29940000  0.71770000  1.0 -0.5813879556
O  O318  1  0.51930000  0.35020000  0.76890000  1.0 -0.538498887
O  O319  1  0.56640000  0.51480000  0.75740000  1.0 -0.4597611715
O  O320  1  0.57490000  0.52970000  0.70240000  1.0 -0.4479874036
O  O321  1  0.37500000  0.06250000  0.04610000  1.0 -0.5099789297
O  O322  1  0.36760000  0.99690000  0.04990000  1.0 -0.5099789297
O  O323  1  0.33490000  0.98550000  0.22120000  1.0 -0.5690516568
O  O324  1  0.32770000  0.93520000  0.16450000  1.0 -0.538498887
O  O325  1  0.37600000  0.33040000  0.31380000  1.0 -0.4920446188
O  O326  1  0.36870000  0.31800000  0.37050000  1.0 -0.4795991795
O  O327  1  0.32750000  0.16320000  0.39190000  1.0 -0.538498887
O  O328  1  0.33490000  0.11410000  0.34960000  1.0 -0.5690516568
O  O329  1  0.87870000  0.88610000  0.93900000  1.0 -0.2287329119
O  O330  1  0.79810000  0.80780000  0.93770000  1.0 -0.1691250334
O  O331  1  0.64610000  0.66560000  0.75090000  1.0 -0.1787744722
O  O332  1  0.64750000  0.65410000  0.80840000  1.0 -0.2216190158
O  O333  1  0.88740000  0.87820000  0.93840000  1.0 -0.2287329119
O  O334  1  0.80940000  0.79980000  0.93920000  1.0 -0.1691250334
O  O335  1  0.66540000  0.64660000  0.75140000  1.0 -0.1691250334
O  O336  1  0.65480000  0.64740000  0.80900000  1.0 -0.2287329119
O  O337  1  0.38450000  0.39470000  0.45460000  1.0 -0.1483678832
O  O338  1  0.31820000  0.30930000  0.45270000  1.0 -0.1337796038
O  O339  1  0.53320000  0.55490000  0.63990000  1.0 -0.2287329119
O  O340  1  0.53960000  0.54930000  0.58330000  1.0 -0.121765487
O  O341  1  0.39470000  0.38380000  0.45330000  1.0 -0.1787744722
O  O342  1  0.31000000  0.32110000  0.45210000  1.0 -0.1408630882
O  O343  1  0.55400000  0.53310000  0.64170000  1.0 -0.2479418729
O  O344  1  0.54970000  0.54020000  0.58430000  1.0 -0.1111936942
O  O345  1  0.97550000  0.33180000  0.30730000  1.0 -0.2216190158
O  O346  1  0.02470000  0.33160000  0.35630000  1.0 -0.2403534929
O  O347  1  0.02450000  0.66820000  0.69270000  1.0 -0.2216190158
O  O348  1  0.97530000  0.66840000  0.64370000  1.0 -0.2403534929
O  O349  1  0.33180000  0.02450000  0.35630000  1.0 -0.2216190158
O  O350  1  0.33160000  0.97530000  0.30690000  1.0 -0.2403534929
O  O351  1  0.66820000  0.97550000  0.64370000  1.0 -0.2216190158
O  O352  1  0.66840000  0.02470000  0.69310000  1.0 -0.2403534929
O  O353  1  0.00000000  0.00000000  0.00000000  1.0 -0.5280136618
