# DDEC6 charges by PACMAN v1.1 (https://github.com/mtap-research/PACMAN-charge/)
data_RASNUX_ASR_pacman
_symmetry_space_group_name_H-M   'P 1'
_cell_length_a   9.99830000
_cell_length_b   14.98150000
_cell_length_c   24.92890000
_cell_angle_alpha   90.00000000
_cell_angle_beta   90.00000000
_cell_angle_gamma   90.00000000
_symmetry_Int_Tables_number   1
_chemical_formula_structural   CuH14C25(NO)4
_chemical_formula_sum   'Cu4 H56 C100 N16 O16'
_cell_volume   3734.08825056
_cell_formula_units_Z   4
loop_
 _symmetry_equiv_pos_site_id
 _symmetry_equiv_pos_as_xyz
  1  'x, y, z'
loop_
 _atom_site_type_symbol
 _atom_site_label
 _atom_site_symmetry_multiplicity
 _atom_site_fract_x
 _atom_site_fract_y
 _atom_site_fract_z
 _atom_site_occupancy
 _atom_site_charge
Cu  Cu1  1  0.87222000  0.77111000  0.25000000  1.0 0.671916853
Cu  Cu2  1  0.62778000  0.27111000  0.75000000  1.0 0.6750747865
Cu  Cu3  1  0.12778000  0.22889000  0.75000000  1.0 0.671916853
Cu  Cu4  1  0.37222000  0.72889000  0.25000000  1.0 0.671916853
H  H1  1  0.44080000  0.54520000  0.66270000  1.0 0.1410759469
H  H2  1  0.71590000  0.35380000  0.63450000  1.0 0.1466680038
H  H3  1  0.56480000  0.62310000  0.45820000  1.0 0.1191298874
H  H4  1  0.66020000  0.66990000  0.37830000  1.0 0.1191298874
H  H5  1  0.02340000  0.60700000  0.43500000  1.0 0.1191298874
H  H6  1  0.92980000  0.56250000  0.51550000  1.0 0.1191298874
H  H7  1  0.05920000  0.04520000  0.33730000  1.0 0.1410759469
H  H8  1  0.78410000  0.85380000  0.36550000  1.0 0.1466680038
H  H9  1  0.93520000  0.12310000  0.54180000  1.0 0.1191298874
H  H10  1  0.83980000  0.16990000  0.62170000  1.0 0.1191298874
H  H11  1  0.47660000  0.10700000  0.56500000  1.0 0.1191298874
H  H12  1  0.57020000  0.06250000  0.48450000  1.0 0.1191298874
H  H13  1  0.44080000  0.54520000  0.83730000  1.0 0.1410759469
H  H14  1  0.71590000  0.35380000  0.86550000  1.0 0.1466680038
H  H15  1  0.56480000  0.62310000  0.04180000  1.0 0.1191298874
H  H16  1  0.66020000  0.66990000  0.12170000  1.0 0.1191298874
H  H17  1  0.02340000  0.60700000  0.06500000  1.0 0.1191298874
H  H18  1  0.92980000  0.56250000  0.98450000  1.0 0.1191298874
H  H19  1  0.05920000  0.04520000  0.16270000  1.0 0.1410759469
H  H20  1  0.78410000  0.85380000  0.13450000  1.0 0.1466680038
H  H21  1  0.93520000  0.12310000  0.95820000  1.0 0.1191298874
H  H22  1  0.83980000  0.16990000  0.87830000  1.0 0.1191298874
H  H23  1  0.47660000  0.10700000  0.93500000  1.0 0.1191298874
H  H24  1  0.57020000  0.06250000  0.01550000  1.0 0.1191298874
H  H25  1  0.33890000  0.47410000  0.75000000  1.0 0.1466680038
H  H26  1  0.35370000  0.36730000  0.75000000  1.0 0.1640365576
H  H27  1  0.16110000  0.97410000  0.25000000  1.0 0.1466680038
H  H28  1  0.14630000  0.86730000  0.25000000  1.0 0.1640365576
H  H29  1  0.55920000  0.45480000  0.16270000  1.0 0.1410759469
H  H30  1  0.28410000  0.64620000  0.13450000  1.0 0.1466680038
H  H31  1  0.43520000  0.37690000  0.95820000  1.0 0.1191298874
H  H32  1  0.33980000  0.33010000  0.87830000  1.0 0.1191298874
H  H33  1  0.97660000  0.39300000  0.93500000  1.0 0.1191298874
H  H34  1  0.07020000  0.43750000  0.01550000  1.0 0.1191298874
H  H35  1  0.94080000  0.95480000  0.83730000  1.0 0.1410759469
H  H36  1  0.21590000  0.14620000  0.86550000  1.0 0.1466680038
H  H37  1  0.06480000  0.87690000  0.04180000  1.0 0.1191298874
H  H38  1  0.16020000  0.83010000  0.12170000  1.0 0.1191298874
H  H39  1  0.52340000  0.89300000  0.06500000  1.0 0.1191298874
H  H40  1  0.42980000  0.93750000  0.98450000  1.0 0.1191298874
H  H41  1  0.55920000  0.45480000  0.33730000  1.0 0.1410759469
H  H42  1  0.28410000  0.64620000  0.36550000  1.0 0.1466680038
H  H43  1  0.43520000  0.37690000  0.54180000  1.0 0.1191298874
H  H44  1  0.33980000  0.33010000  0.62170000  1.0 0.1191298874
H  H45  1  0.97660000  0.39300000  0.56500000  1.0 0.1191298874
H  H46  1  0.07020000  0.43750000  0.48450000  1.0 0.1191298874
H  H47  1  0.94080000  0.95480000  0.66270000  1.0 0.1410759469
H  H48  1  0.21590000  0.14620000  0.63450000  1.0 0.1466680038
H  H49  1  0.06480000  0.87690000  0.45820000  1.0 0.1191298874
H  H50  1  0.16020000  0.83010000  0.37830000  1.0 0.1191298874
H  H51  1  0.52340000  0.89300000  0.43500000  1.0 0.1191298874
H  H52  1  0.42980000  0.93750000  0.51550000  1.0 0.1191298874
H  H53  1  0.66110000  0.52590000  0.25000000  1.0 0.1466680038
H  H54  1  0.64630000  0.63270000  0.25000000  1.0 0.1640365576
H  H55  1  0.83890000  0.02590000  0.75000000  1.0 0.1466680038
H  H56  1  0.85370000  0.13270000  0.75000000  1.0 0.1640365576
C  C1  1  0.49490000  0.49320000  0.66483000  1.0 -0.121182837
C  C2  1  0.59410000  0.46840000  0.62981000  1.0 0.0407843186
C  C3  1  0.64490000  0.38700000  0.65013000  1.0 -0.0120875617
C  C4  1  0.63920000  0.51410000  0.58241000  1.0 -0.0692620793
C  C5  1  0.67890000  0.54620000  0.54266000  1.0 -0.0972537161
C  C6  1  0.73510000  0.58210000  0.49404000  1.0 0.1410759469
C  C7  1  0.65870000  0.61770000  0.45334000  1.0 -0.1492678033
C  C8  1  0.71520000  0.64550000  0.40567000  1.0 -0.0972537161
C  C9  1  0.85080000  0.63800000  0.39768000  1.0 -0.0120875617
C  C10  1  0.92910000  0.60870000  0.43923000  1.0 -0.0972537161
C  C11  1  0.87350000  0.58170000  0.48701000  1.0 -0.1492678033
C  C12  1  0.91320000  0.66560000  0.34532000  1.0 0.5516665136
C  C13  1  0.00510000  0.99320000  0.33517000  1.0 -0.121182837
C  C14  1  0.90590000  0.96840000  0.37019000  1.0 0.0407843186
C  C15  1  0.85510000  0.88700000  0.34987000  1.0 -0.0120875617
C  C16  1  0.86080000  0.01410000  0.41759000  1.0 -0.0692620793
C  C17  1  0.82110000  0.04620000  0.45734000  1.0 -0.0972537161
C  C18  1  0.76490000  0.08210000  0.50596000  1.0 0.1410759469
C  C19  1  0.84130000  0.11770000  0.54666000  1.0 -0.1492678033
C  C20  1  0.78480000  0.14550000  0.59433000  1.0 -0.0972537161
C  C21  1  0.64920000  0.13800000  0.60232000  1.0 -0.0120875617
C  C22  1  0.57090000  0.10870000  0.56077000  1.0 -0.0972537161
C  C23  1  0.62650000  0.08170000  0.51299000  1.0 -0.1492678033
C  C24  1  0.58680000  0.16560000  0.65468000  1.0 0.5516665136
C  C25  1  0.49490000  0.49320000  0.83517000  1.0 -0.121182837
C  C26  1  0.59410000  0.46840000  0.87019000  1.0 0.0407843186
C  C27  1  0.64490000  0.38700000  0.84987000  1.0 -0.0120875617
C  C28  1  0.63920000  0.51410000  0.91759000  1.0 -0.0692620793
C  C29  1  0.67890000  0.54620000  0.95734000  1.0 -0.0972537161
C  C30  1  0.73510000  0.58210000  0.00596000  1.0 0.1410759469
C  C31  1  0.65870000  0.61770000  0.04666000  1.0 -0.1492678033
C  C32  1  0.71520000  0.64550000  0.09433000  1.0 -0.0972537161
C  C33  1  0.85080000  0.63800000  0.10232000  1.0 -0.0120875617
C  C34  1  0.92910000  0.60870000  0.06077000  1.0 -0.0972537161
C  C35  1  0.87350000  0.58170000  0.01299000  1.0 -0.1492678033
C  C36  1  0.91320000  0.66560000  0.15468000  1.0 0.5516665136
C  C37  1  0.00510000  0.99320000  0.16483000  1.0 -0.121182837
C  C38  1  0.90590000  0.96840000  0.12981000  1.0 0.0407843186
C  C39  1  0.85510000  0.88700000  0.15013000  1.0 -0.0120875617
C  C40  1  0.86080000  0.01410000  0.08241000  1.0 -0.0692620793
C  C41  1  0.82110000  0.04620000  0.04266000  1.0 -0.0972537161
C  C42  1  0.76490000  0.08210000  0.99404000  1.0 0.1410759469
C  C43  1  0.84130000  0.11770000  0.95334000  1.0 -0.1492678033
C  C44  1  0.78480000  0.14550000  0.90567000  1.0 -0.0972537161
C  C45  1  0.64920000  0.13800000  0.89768000  1.0 -0.0120875617
C  C46  1  0.57090000  0.10870000  0.93923000  1.0 -0.0972537161
C  C47  1  0.62650000  0.08170000  0.98701000  1.0 -0.1492678033
C  C48  1  0.58680000  0.16560000  0.84532000  1.0 0.5516665136
C  C49  1  0.40390000  0.42430000  0.75000000  1.0 -0.0972537161
C  C50  1  0.09610000  0.92430000  0.25000000  1.0 -0.0972537161
C  C51  1  0.50510000  0.50680000  0.16483000  1.0 -0.121182837
C  C52  1  0.40590000  0.53160000  0.12981000  1.0 0.0407843186
C  C53  1  0.35510000  0.61300000  0.15013000  1.0 -0.0120875617
C  C54  1  0.36080000  0.48590000  0.08241000  1.0 -0.0692620793
C  C55  1  0.32110000  0.45380000  0.04266000  1.0 -0.0972537161
C  C56  1  0.26490000  0.41790000  0.99404000  1.0 0.1410759469
C  C57  1  0.34130000  0.38230000  0.95334000  1.0 -0.1492678033
C  C58  1  0.28480000  0.35450000  0.90567000  1.0 -0.0972537161
C  C59  1  0.14920000  0.36200000  0.89768000  1.0 -0.0151964514
C  C60  1  0.07090000  0.39130000  0.93923000  1.0 -0.0972537161
C  C61  1  0.12650000  0.41830000  0.98701000  1.0 -0.1492678033
C  C62  1  0.08680000  0.33440000  0.84532000  1.0 0.5516665136
C  C63  1  0.99490000  0.00680000  0.83517000  1.0 -0.121182837
C  C64  1  0.09410000  0.03160000  0.87019000  1.0 0.0407843186
C  C65  1  0.14490000  0.11300000  0.84987000  1.0 -0.0120875617
C  C66  1  0.13920000  0.98590000  0.91759000  1.0 -0.0692620793
C  C67  1  0.17890000  0.95380000  0.95734000  1.0 -0.0972537161
C  C68  1  0.23510000  0.91790000  0.00596000  1.0 0.1410759469
C  C69  1  0.15870000  0.88230000  0.04666000  1.0 -0.1492678033
C  C70  1  0.21520000  0.85450000  0.09433000  1.0 -0.0972537161
C  C71  1  0.35080000  0.86200000  0.10232000  1.0 -0.0120875617
C  C72  1  0.42910000  0.89130000  0.06077000  1.0 -0.0972537161
C  C73  1  0.37350000  0.91830000  0.01299000  1.0 -0.1492678033
C  C74  1  0.41320000  0.83440000  0.15468000  1.0 0.5516665136
C  C75  1  0.50510000  0.50680000  0.33517000  1.0 -0.121182837
C  C76  1  0.40590000  0.53160000  0.37019000  1.0 0.0407843186
C  C77  1  0.35510000  0.61300000  0.34987000  1.0 -0.0120875617
C  C78  1  0.36080000  0.48590000  0.41759000  1.0 -0.0692620793
C  C79  1  0.32110000  0.45380000  0.45734000  1.0 -0.0972537161
C  C80  1  0.26490000  0.41790000  0.50596000  1.0 0.1410759469
C  C81  1  0.34130000  0.38230000  0.54666000  1.0 -0.1492678033
C  C82  1  0.28480000  0.35450000  0.59433000  1.0 -0.0972537161
C  C83  1  0.14920000  0.36200000  0.60232000  1.0 -0.0151964514
C  C84  1  0.07090000  0.39130000  0.56077000  1.0 -0.0972537161
C  C85  1  0.12650000  0.41830000  0.51299000  1.0 -0.1492678033
C  C86  1  0.08680000  0.33440000  0.65468000  1.0 0.5516665136
C  C87  1  0.99490000  0.00680000  0.66483000  1.0 -0.121182837
C  C88  1  0.09410000  0.03160000  0.62981000  1.0 0.0407843186
C  C89  1  0.14490000  0.11300000  0.65013000  1.0 -0.0120875617
C  C90  1  0.13920000  0.98590000  0.58241000  1.0 -0.0692620793
C  C91  1  0.17890000  0.95380000  0.54266000  1.0 -0.0972537161
C  C92  1  0.23510000  0.91790000  0.49404000  1.0 0.1410759469
C  C93  1  0.15870000  0.88230000  0.45334000  1.0 -0.1492678033
C  C94  1  0.21520000  0.85450000  0.40567000  1.0 -0.0972537161
C  C95  1  0.35080000  0.86200000  0.39768000  1.0 -0.0120875617
C  C96  1  0.42910000  0.89130000  0.43923000  1.0 -0.0972537161
C  C97  1  0.37350000  0.91830000  0.48701000  1.0 -0.1492678033
C  C98  1  0.41320000  0.83440000  0.34532000  1.0 0.5516665136
C  C99  1  0.59610000  0.57570000  0.25000000  1.0 -0.0972537161
C  C100  1  0.90390000  0.07570000  0.75000000  1.0 -0.0972537161
N  N1  1  0.57880000  0.36365000  0.69444000  1.0 -0.2100496287
N  N2  1  0.48910000  0.42951000  0.70286000  1.0 0.1855958557
N  N3  1  0.92120000  0.86365000  0.30556000  1.0 -0.2100496287
N  N4  1  0.01090000  0.92951000  0.29714000  1.0 0.1855958557
N  N5  1  0.57880000  0.36365000  0.80556000  1.0 -0.2100496287
N  N6  1  0.48910000  0.42951000  0.79714000  1.0 0.1855958557
N  N7  1  0.92120000  0.86365000  0.19444000  1.0 -0.2100496287
N  N8  1  0.01090000  0.92951000  0.20286000  1.0 0.1855958557
N  N9  1  0.42120000  0.63635000  0.19444000  1.0 -0.2100496287
N  N10  1  0.51090000  0.57049000  0.20286000  1.0 0.1855958557
N  N11  1  0.07880000  0.13635000  0.80556000  1.0 -0.2100496287
N  N12  1  0.98910000  0.07049000  0.79714000  1.0 0.1855958557
N  N13  1  0.42120000  0.63635000  0.30556000  1.0 -0.2100496287
N  N14  1  0.51090000  0.57049000  0.29714000  1.0 0.1855958557
N  N15  1  0.07880000  0.13635000  0.69444000  1.0 -0.2100496287
N  N16  1  0.98910000  0.07049000  0.70286000  1.0 0.1855958557
O  O1  1  0.83236000  0.68734000  0.30778000  1.0 -0.5528019065
O  O2  1  0.03750000  0.66840000  0.34292000  1.0 -0.5579191739
O  O3  1  0.66764000  0.18734000  0.69222000  1.0 -0.5528019065
O  O4  1  0.46250000  0.16840000  0.65708000  1.0 -0.5579191739
O  O5  1  0.83236000  0.68734000  0.19222000  1.0 -0.5528019065
O  O6  1  0.03750000  0.66840000  0.15708000  1.0 -0.5579191739
O  O7  1  0.66764000  0.18734000  0.80778000  1.0 -0.5528019065
O  O8  1  0.46250000  0.16840000  0.84292000  1.0 -0.5579191739
O  O9  1  0.16764000  0.31266000  0.80778000  1.0 -0.5528019065
O  O10  1  0.96250000  0.33160000  0.84292000  1.0 -0.5579191739
O  O11  1  0.33236000  0.81266000  0.19222000  1.0 -0.5528019065
O  O12  1  0.53750000  0.83160000  0.15708000  1.0 -0.5579191739
O  O13  1  0.16764000  0.31266000  0.69222000  1.0 -0.5528019065
O  O14  1  0.96250000  0.33160000  0.65708000  1.0 -0.5579191739
O  O15  1  0.33236000  0.81266000  0.30778000  1.0 -0.5528019065
O  O16  1  0.53750000  0.83160000  0.34292000  1.0 -0.5579191739
