# DDEC6 charges by PACMAN v1.1 (https://github.com/mtap-research/PACMAN-charge/)
data_RASPEJ_ASR_pacman
_symmetry_space_group_name_H-M   'P 1'
_cell_length_a   16.14370000
_cell_length_b   18.14330000
_cell_length_c   24.15330000
_cell_angle_alpha   90.00000000
_cell_angle_beta   98.64400000
_cell_angle_gamma   90.00000000
_symmetry_Int_Tables_number   1
_chemical_formula_structural   Cu5H88C116(NO)16
_chemical_formula_sum   'Cu10 H176 C232 N32 O32'
_cell_volume   6994.14392185
_cell_formula_units_Z   2
loop_
 _symmetry_equiv_pos_site_id
 _symmetry_equiv_pos_as_xyz
  1  'x, y, z'
loop_
 _atom_site_type_symbol
 _atom_site_label
 _atom_site_symmetry_multiplicity
 _atom_site_fract_x
 _atom_site_fract_y
 _atom_site_fract_z
 _atom_site_occupancy
 _atom_site_charge
Cu  Cu1  1  0.97713000  0.90990000  0.61858000  1.0 0.9185129559
Cu  Cu2  1  0.82821000  0.65864000  0.73153000  1.0 0.2636881029
Cu  Cu3  1  0.02287000  0.40990000  0.88142000  1.0 0.9185129559
Cu  Cu4  1  0.17179000  0.15864000  0.76847000  1.0 0.2636881029
Cu  Cu5  1  0.02287000  0.09010000  0.38142000  1.0 0.9185129559
Cu  Cu6  1  0.17179000  0.34136000  0.26847000  1.0 0.2636881029
Cu  Cu7  1  0.97713000  0.59010000  0.11858000  1.0 0.9185129559
Cu  Cu8  1  0.82821000  0.84136000  0.23153000  1.0 0.2636881029
Cu  Cu9  1  0.00000000  0.00000000  0.50000000  1.0 0.6760000741
Cu  Cu10  1  0.00000000  0.50000000  0.00000000  1.0 0.6698252713
H  H1  1  0.81190000  0.70020000  0.56230000  1.0 0.1403758111
H  H2  1  0.86550000  0.72030000  0.62170000  1.0 0.1499920148
H  H3  1  0.65890000  0.70080000  0.51520000  1.0 0.1499920148
H  H4  1  0.59630000  0.76830000  0.51900000  1.0 0.1602591089
H  H5  1  0.69370000  0.78350000  0.51830000  1.0 0.1602591089
H  H6  1  0.69570000  0.75900000  0.77060000  1.0 0.1499920148
H  H7  1  0.62680000  0.81770000  0.74420000  1.0 0.1602591089
H  H8  1  0.60160000  0.73290000  0.74910000  1.0 0.1602591089
H  H9  1  0.36690000  0.84230000  0.68840000  1.0 0.1306716626
H  H10  1  0.23090000  0.88670000  0.67530000  1.0 0.1306716626
H  H11  1  0.24800000  0.93030000  0.51360000  1.0 0.1306716626
H  H12  1  0.38440000  0.88580000  0.52660000  1.0 0.1306716626
H  H13  1  0.84800000  0.58240000  0.50310000  1.0 0.1499920148
H  H14  1  0.78970000  0.51110000  0.50310000  1.0 0.1693332041
H  H15  1  0.75120000  0.59140000  0.50910000  1.0 0.1499920148
H  H16  1  0.83300000  0.46370000  0.73750000  1.0 0.1602591089
H  H17  1  0.91380000  0.43320000  0.71380000  1.0 0.1602591089
H  H18  1  0.91980000  0.50760000  0.74970000  1.0 0.1693332041
H  H19  1  0.85920000  0.24630000  0.52560000  1.0 0.1306716626
H  H20  1  0.89390000  0.12290000  0.54080000  1.0 0.1306716626
H  H21  1  0.93130000  0.15760000  0.70770000  1.0 0.1225547326
H  H22  1  0.89680000  0.28060000  0.69270000  1.0 0.1306716626
H  H23  1  0.89170000  0.59400000  0.84580000  1.0 0.1499920148
H  H24  1  0.85600000  0.62000000  0.90100000  1.0 0.1403758111
H  H25  1  0.70120000  0.65390000  0.92770000  1.0 0.1499920148
H  H26  1  0.63990000  0.58430000  0.92630000  1.0 0.1499920148
H  H27  1  0.73920000  0.57310000  0.94020000  1.0 0.1602591089
H  H28  1  0.67210000  0.57270000  0.68110000  1.0 0.1403758111
H  H29  1  0.62970000  0.50070000  0.70300000  1.0 0.1499920148
H  H30  1  0.58060000  0.57760000  0.69870000  1.0 0.1499920148
H  H31  1  0.34310000  0.49090000  0.77850000  1.0 0.1306716626
H  H32  1  0.22440000  0.44530000  0.81090000  1.0 0.1306716626
H  H33  1  0.34830000  0.44600000  0.96840000  1.0 0.1306716626
H  H34  1  0.46590000  0.49350000  0.93670000  1.0 0.1225547326
H  H35  1  0.91880000  0.73370000  0.96350000  1.0 0.1693332041
H  H36  1  0.86980000  0.81060000  0.95710000  1.0 0.1499920148
H  H37  1  0.81890000  0.73490000  0.94780000  1.0 0.1602591089
H  H38  1  0.86540000  0.82670000  0.71540000  1.0 0.1602591089
H  H39  1  0.92470000  0.88340000  0.75360000  1.0 0.1693332041
H  H40  1  0.96340000  0.80970000  0.73160000  1.0 0.1602591089
H  H41  1  0.93540000  0.03670000  0.96750000  1.0 0.1225547326
H  H42  1  0.95650000  0.16310000  0.98020000  1.0 0.1225547326
H  H43  1  0.96160000  0.18900000  0.81480000  1.0 0.1306716626
H  H44  1  0.93870000  0.06250000  0.80100000  1.0 0.1306716626
H  H45  1  0.18810000  0.20020000  0.93770000  1.0 0.1403758111
H  H46  1  0.13450000  0.22030000  0.87830000  1.0 0.1499920148
H  H47  1  0.34110000  0.20080000  0.98480000  1.0 0.1499920148
H  H48  1  0.40370000  0.26830000  0.98100000  1.0 0.1602591089
H  H49  1  0.30630000  0.28350000  0.98170000  1.0 0.1602591089
H  H50  1  0.30430000  0.25900000  0.72940000  1.0 0.1499920148
H  H51  1  0.37320000  0.31770000  0.75580000  1.0 0.1602591089
H  H52  1  0.39840000  0.23290000  0.75090000  1.0 0.1602591089
H  H53  1  0.63310000  0.34230000  0.81160000  1.0 0.1306716626
H  H54  1  0.76910000  0.38670000  0.82470000  1.0 0.1306716626
H  H55  1  0.75200000  0.43030000  0.98640000  1.0 0.1306716626
H  H56  1  0.61560000  0.38580000  0.97340000  1.0 0.1306716626
H  H57  1  0.15200000  0.08240000  0.99690000  1.0 0.1499920148
H  H58  1  0.21030000  0.01110000  0.99690000  1.0 0.1693332041
H  H59  1  0.24880000  0.09140000  0.99090000  1.0 0.1499920148
H  H60  1  0.16700000  0.96370000  0.76250000  1.0 0.1602591089
H  H61  1  0.08620000  0.93320000  0.78620000  1.0 0.1602591089
H  H62  1  0.08020000  0.00760000  0.75030000  1.0 0.1693332041
H  H63  1  0.14080000  0.74630000  0.97440000  1.0 0.1306716626
H  H64  1  0.10610000  0.62290000  0.95920000  1.0 0.1306716626
H  H65  1  0.06870000  0.65760000  0.79230000  1.0 0.1225547326
H  H66  1  0.10320000  0.78060000  0.80730000  1.0 0.1306716626
H  H67  1  0.10830000  0.09400000  0.65420000  1.0 0.1499920148
H  H68  1  0.14400000  0.12000000  0.59900000  1.0 0.1403758111
H  H69  1  0.29880000  0.15390000  0.57230000  1.0 0.1499920148
H  H70  1  0.36010000  0.08430000  0.57370000  1.0 0.1499920148
H  H71  1  0.26080000  0.07310000  0.55980000  1.0 0.1602591089
H  H72  1  0.32790000  0.07270000  0.81890000  1.0 0.1403758111
H  H73  1  0.37030000  0.00070000  0.79700000  1.0 0.1499920148
H  H74  1  0.41940000  0.07760000  0.80130000  1.0 0.1499920148
H  H75  1  0.65690000  0.99090000  0.72150000  1.0 0.1306716626
H  H76  1  0.77560000  0.94530000  0.68910000  1.0 0.1306716626
H  H77  1  0.65170000  0.94600000  0.53160000  1.0 0.1306716626
H  H78  1  0.53410000  0.99350000  0.56330000  1.0 0.1225547326
H  H79  1  0.08120000  0.23370000  0.53650000  1.0 0.1693332041
H  H80  1  0.13020000  0.31060000  0.54290000  1.0 0.1499920148
H  H81  1  0.18110000  0.23490000  0.55220000  1.0 0.1602591089
H  H82  1  0.13460000  0.32670000  0.78460000  1.0 0.1602591089
H  H83  1  0.07530000  0.38340000  0.74640000  1.0 0.1693332041
H  H84  1  0.03660000  0.30970000  0.76840000  1.0 0.1602591089
H  H85  1  0.06460000  0.53670000  0.53250000  1.0 0.1225547326
H  H86  1  0.04350000  0.66310000  0.51980000  1.0 0.1225547326
H  H87  1  0.03840000  0.68900000  0.68520000  1.0 0.1306716626
H  H88  1  0.06130000  0.56250000  0.69900000  1.0 0.1306716626
H  H89  1  0.18810000  0.29980000  0.43770000  1.0 0.1403758111
H  H90  1  0.13450000  0.27970000  0.37830000  1.0 0.1499920148
H  H91  1  0.34110000  0.29920000  0.48480000  1.0 0.1499920148
H  H92  1  0.40370000  0.23170000  0.48100000  1.0 0.1602591089
H  H93  1  0.30630000  0.21650000  0.48170000  1.0 0.1602591089
H  H94  1  0.30430000  0.24100000  0.22940000  1.0 0.1499920148
H  H95  1  0.37320000  0.18230000  0.25580000  1.0 0.1602591089
H  H96  1  0.39840000  0.26710000  0.25090000  1.0 0.1602591089
H  H97  1  0.63310000  0.15770000  0.31160000  1.0 0.1306716626
H  H98  1  0.76910000  0.11330000  0.32470000  1.0 0.1306716626
H  H99  1  0.75200000  0.06970000  0.48640000  1.0 0.1306716626
H  H100  1  0.61560000  0.11420000  0.47340000  1.0 0.1306716626
H  H101  1  0.15200000  0.41760000  0.49690000  1.0 0.1499920148
H  H102  1  0.21030000  0.48890000  0.49690000  1.0 0.1693332041
H  H103  1  0.24880000  0.40860000  0.49090000  1.0 0.1499920148
H  H104  1  0.16700000  0.53630000  0.26250000  1.0 0.1602591089
H  H105  1  0.08620000  0.56680000  0.28620000  1.0 0.1602591089
H  H106  1  0.08020000  0.49240000  0.25030000  1.0 0.1693332041
H  H107  1  0.14080000  0.75370000  0.47440000  1.0 0.1306716626
H  H108  1  0.10610000  0.87710000  0.45920000  1.0 0.1306716626
H  H109  1  0.06870000  0.84240000  0.29230000  1.0 0.1225547326
H  H110  1  0.10320000  0.71940000  0.30730000  1.0 0.1306716626
H  H111  1  0.10830000  0.40600000  0.15420000  1.0 0.1499920148
H  H112  1  0.14400000  0.38000000  0.09900000  1.0 0.1403758111
H  H113  1  0.29880000  0.34610000  0.07230000  1.0 0.1499920148
H  H114  1  0.36010000  0.41570000  0.07370000  1.0 0.1499920148
H  H115  1  0.26080000  0.42690000  0.05980000  1.0 0.1602591089
H  H116  1  0.32790000  0.42730000  0.31890000  1.0 0.1403758111
H  H117  1  0.37030000  0.49930000  0.29700000  1.0 0.1499920148
H  H118  1  0.41940000  0.42240000  0.30130000  1.0 0.1499920148
H  H119  1  0.65690000  0.50910000  0.22150000  1.0 0.1306716626
H  H120  1  0.77560000  0.55470000  0.18910000  1.0 0.1306716626
H  H121  1  0.65170000  0.55400000  0.03160000  1.0 0.1306716626
H  H122  1  0.53410000  0.50650000  0.06330000  1.0 0.1225547326
H  H123  1  0.08120000  0.26630000  0.03650000  1.0 0.1693332041
H  H124  1  0.13020000  0.18940000  0.04290000  1.0 0.1499920148
H  H125  1  0.18110000  0.26510000  0.05220000  1.0 0.1602591089
H  H126  1  0.13460000  0.17330000  0.28460000  1.0 0.1602591089
H  H127  1  0.07530000  0.11660000  0.24640000  1.0 0.1693332041
H  H128  1  0.03660000  0.19030000  0.26840000  1.0 0.1602591089
H  H129  1  0.06460000  0.96330000  0.03250000  1.0 0.1225547326
H  H130  1  0.04350000  0.83690000  0.01980000  1.0 0.1225547326
H  H131  1  0.03840000  0.81100000  0.18520000  1.0 0.1306716626
H  H132  1  0.06130000  0.93750000  0.19900000  1.0 0.1306716626
H  H133  1  0.81190000  0.79980000  0.06230000  1.0 0.1403758111
H  H134  1  0.86550000  0.77970000  0.12170000  1.0 0.1499920148
H  H135  1  0.65890000  0.79920000  0.01520000  1.0 0.1499920148
H  H136  1  0.59630000  0.73170000  0.01900000  1.0 0.1602591089
H  H137  1  0.69370000  0.71650000  0.01830000  1.0 0.1602591089
H  H138  1  0.69570000  0.74100000  0.27060000  1.0 0.1499920148
H  H139  1  0.62680000  0.68230000  0.24420000  1.0 0.1602591089
H  H140  1  0.60160000  0.76710000  0.24910000  1.0 0.1602591089
H  H141  1  0.36690000  0.65770000  0.18840000  1.0 0.1306716626
H  H142  1  0.23090000  0.61330000  0.17530000  1.0 0.1306716626
H  H143  1  0.24800000  0.56970000  0.01360000  1.0 0.1306716626
H  H144  1  0.38440000  0.61420000  0.02660000  1.0 0.1306716626
H  H145  1  0.84800000  0.91760000  0.00310000  1.0 0.1499920148
H  H146  1  0.78970000  0.98890000  0.00310000  1.0 0.1693332041
H  H147  1  0.75120000  0.90860000  0.00910000  1.0 0.1499920148
H  H148  1  0.83300000  0.03630000  0.23750000  1.0 0.1602591089
H  H149  1  0.91380000  0.06680000  0.21380000  1.0 0.1602591089
H  H150  1  0.91980000  0.99240000  0.24970000  1.0 0.1693332041
H  H151  1  0.85920000  0.25370000  0.02560000  1.0 0.1306716626
H  H152  1  0.89390000  0.37710000  0.04080000  1.0 0.1306716626
H  H153  1  0.93130000  0.34240000  0.20770000  1.0 0.1225547326
H  H154  1  0.89680000  0.21940000  0.19270000  1.0 0.1306716626
H  H155  1  0.89170000  0.90600000  0.34580000  1.0 0.1499920148
H  H156  1  0.85600000  0.88000000  0.40100000  1.0 0.1403758111
H  H157  1  0.70120000  0.84610000  0.42770000  1.0 0.1499920148
H  H158  1  0.63990000  0.91570000  0.42630000  1.0 0.1499920148
H  H159  1  0.73920000  0.92690000  0.44020000  1.0 0.1602591089
H  H160  1  0.67210000  0.92730000  0.18110000  1.0 0.1403758111
H  H161  1  0.62970000  0.99930000  0.20300000  1.0 0.1499920148
H  H162  1  0.58060000  0.92240000  0.19870000  1.0 0.1499920148
H  H163  1  0.34310000  0.00910000  0.27850000  1.0 0.1306716626
H  H164  1  0.22440000  0.05470000  0.31090000  1.0 0.1306716626
H  H165  1  0.34830000  0.05400000  0.46840000  1.0 0.1306716626
H  H166  1  0.46590000  0.00650000  0.43670000  1.0 0.1225547326
H  H167  1  0.91880000  0.76630000  0.46350000  1.0 0.1693332041
H  H168  1  0.86980000  0.68940000  0.45710000  1.0 0.1499920148
H  H169  1  0.81890000  0.76510000  0.44780000  1.0 0.1602591089
H  H170  1  0.86540000  0.67330000  0.21540000  1.0 0.1602591089
H  H171  1  0.92470000  0.61660000  0.25360000  1.0 0.1693332041
H  H172  1  0.96340000  0.69030000  0.23160000  1.0 0.1602591089
H  H173  1  0.93540000  0.46330000  0.46750000  1.0 0.1225547326
H  H174  1  0.95650000  0.33690000  0.48020000  1.0 0.1225547326
H  H175  1  0.96160000  0.31100000  0.31480000  1.0 0.1306716626
H  H176  1  0.93870000  0.43750000  0.30100000  1.0 0.1306716626
C  C1  1  0.81647000  0.69217000  0.60322000  1.0 -0.0812924387
C  C2  1  0.66910000  0.74510000  0.59378000  1.0 0.1602591089
C  C3  1  0.62118000  0.76705000  0.63305000  1.0 -0.1226889192
C  C4  1  0.66867000  0.75235000  0.68540000  1.0 0.2220282672
C  C5  1  0.53990000  0.79888000  0.62324000  1.0 -0.057324159
C  C6  1  0.47180000  0.82600000  0.61666000  1.0 -0.1107946961
C  C7  1  0.65310000  0.74980000  0.53118000  1.0 -0.487776572
C  C8  1  0.64630000  0.76670000  0.74219000  1.0 -0.4697577576
C  C9  1  0.38820000  0.85730000  0.60878000  1.0 0.1403758111
C  C10  1  0.34240000  0.85940000  0.65248000  1.0 -0.1437725158
C  C11  1  0.26180000  0.88590000  0.64477000  1.0 -0.1009640175
C  C12  1  0.22553000  0.91141000  0.59285000  1.0 -0.0127509482
C  C13  1  0.27205000  0.91167000  0.54917000  1.0 -0.0876585625
C  C14  1  0.35280000  0.88510000  0.55675000  1.0 -0.1517097945
C  C15  1  0.13569000  0.93543000  0.58382000  1.0 0.5737988806
C  C16  1  0.82262000  0.55546000  0.58072000  1.0 0.1693332041
C  C17  1  0.84196000  0.49432000  0.61453000  1.0 -0.1107946961
C  C18  1  0.85982000  0.52129000  0.66983000  1.0 0.2266374758
C  C19  1  0.84680000  0.41841000  0.60130000  1.0 -0.057324159
C  C20  1  0.85790000  0.35365000  0.60088000  1.0 -0.1009640175
C  C21  1  0.80100000  0.56051000  0.51872000  1.0 -0.487776572
C  C22  1  0.88370000  0.47773000  0.72219000  1.0 -0.487776572
C  C23  1  0.87515000  0.27600000  0.60781000  1.0 0.1306716626
C  C24  1  0.87418000  0.22844000  0.56274000  1.0 -0.1226889192
C  C25  1  0.89497000  0.15509000  0.57187000  1.0 -0.0876585625
C  C26  1  0.91725000  0.12780000  0.62554000  1.0 -0.0171759326
C  C27  1  0.91710000  0.17553000  0.67052000  1.0 -0.1009640175
C  C28  1  0.89650000  0.24850000  0.66156000  1.0 -0.1437725158
C  C29  1  0.94259000  0.04896000  0.63607000  1.0 0.5507758812
C  C30  1  0.85063000  0.62683000  0.85997000  1.0 -0.0812924387
C  C31  1  0.69840000  0.59149000  0.85828000  1.0 0.1693332041
C  C32  1  0.63710000  0.56904000  0.81533000  1.0 -0.1226889192
C  C33  1  0.67415000  0.57237000  0.76609000  1.0 0.2266374758
C  C34  1  0.55660000  0.54450000  0.82286000  1.0 -0.057324159
C  C35  1  0.49180000  0.52310000  0.83514000  1.0 -0.1107946961
C  C36  1  0.69430000  0.60150000  0.91810000  1.0 -0.4994506284
C  C37  1  0.63580000  0.55430000  0.70707000  1.0 -0.4645005459
C  C38  1  0.41650000  0.49550000  0.85384000  1.0 0.1499920148
C  C39  1  0.34460000  0.48160000  0.81732000  1.0 -0.1437725158
C  C40  1  0.27400000  0.45420000  0.83663000  1.0 -0.0876585625
C  C41  1  0.27516000  0.43981000  0.89248000  1.0 -0.0127509482
C  C42  1  0.34720000  0.45500000  0.92950000  1.0 -0.1009640175
C  C43  1  0.41710000  0.48280000  0.91074000  1.0 -0.1517097945
C  C44  1  0.19847000  0.40931000  0.91326000  1.0 0.5507758812
C  C45  1  0.87881000  0.76203000  0.88238000  1.0 0.1693332041
C  C46  1  0.89726000  0.82028000  0.84959000  1.0 -0.1107946961
C  C47  1  0.89753000  0.79196000  0.79536000  1.0 0.2220282672
C  C48  1  0.91158000  0.89524000  0.86571000  1.0 -0.0536028983
C  C49  1  0.92260000  0.95928000  0.87427000  1.0 -0.1226889192
C  C50  1  0.87090000  0.76015000  0.94284000  1.0 -0.4994506284
C  C51  1  0.91410000  0.83124000  0.74478000  1.0 -0.4994506284
C  C52  1  0.93515000  0.03697000  0.88286000  1.0 0.1499920148
C  C53  1  0.94043000  0.06743000  0.93629000  1.0 -0.1609262669
C  C54  1  0.95308000  0.14252000  0.94381000  1.0 -0.1107946961
C  C55  1  0.96082000  0.18793000  0.89871000  1.0 -0.0171759326
C  C56  1  0.95592000  0.15807000  0.84576000  1.0 -0.1009640175
C  C57  1  0.94260000  0.08273000  0.83754000  1.0 -0.1347479852
C  C58  1  0.97705000  0.26872000  0.90873000  1.0 0.5507758812
C  C59  1  0.18353000  0.19217000  0.89678000  1.0 -0.0812924387
C  C60  1  0.33090000  0.24510000  0.90622000  1.0 0.1602591089
C  C61  1  0.37882000  0.26705000  0.86695000  1.0 -0.1226889192
C  C62  1  0.33133000  0.25235000  0.81460000  1.0 0.2220282672
C  C63  1  0.46010000  0.29888000  0.87676000  1.0 -0.057324159
C  C64  1  0.52820000  0.32600000  0.88334000  1.0 -0.1107946961
C  C65  1  0.34690000  0.24980000  0.96882000  1.0 -0.487776572
C  C66  1  0.35370000  0.26670000  0.75781000  1.0 -0.4697577576
C  C67  1  0.61180000  0.35730000  0.89122000  1.0 0.1403758111
C  C68  1  0.65760000  0.35940000  0.84752000  1.0 -0.1437725158
C  C69  1  0.73820000  0.38590000  0.85523000  1.0 -0.1009640175
C  C70  1  0.77447000  0.41141000  0.90715000  1.0 -0.0127509482
C  C71  1  0.72795000  0.41167000  0.95083000  1.0 -0.0876585625
C  C72  1  0.64720000  0.38510000  0.94325000  1.0 -0.1517097945
C  C73  1  0.86431000  0.43543000  0.91618000  1.0 0.5737988806
C  C74  1  0.17738000  0.05546000  0.91928000  1.0 0.1693332041
C  C75  1  0.15804000  0.99432000  0.88547000  1.0 -0.1107946961
C  C76  1  0.14018000  0.02129000  0.83017000  1.0 0.2266374758
C  C77  1  0.15320000  0.91841000  0.89870000  1.0 -0.0536028983
C  C78  1  0.14210000  0.85365000  0.89912000  1.0 -0.1107946961
C  C79  1  0.19900000  0.06051000  0.98128000  1.0 -0.487776572
C  C80  1  0.11630000  0.97773000  0.77781000  1.0 -0.487776572
C  C81  1  0.12485000  0.77600000  0.89219000  1.0 0.1306716626
C  C82  1  0.12582000  0.72844000  0.93726000  1.0 -0.1226889192
C  C83  1  0.10503000  0.65509000  0.92813000  1.0 -0.0876585625
C  C84  1  0.08275000  0.62780000  0.87446000  1.0 -0.0171759326
C  C85  1  0.08290000  0.67553000  0.82948000  1.0 -0.1009640175
C  C86  1  0.10350000  0.74850000  0.83844000  1.0 -0.1437725158
C  C87  1  0.05741000  0.54896000  0.86393000  1.0 0.5507758812
C  C88  1  0.14937000  0.12683000  0.64003000  1.0 -0.0812924387
C  C89  1  0.30160000  0.09149000  0.64172000  1.0 0.1693332041
C  C90  1  0.36290000  0.06904000  0.68467000  1.0 -0.1226889192
C  C91  1  0.32585000  0.07237000  0.73391000  1.0 0.2266374758
C  C92  1  0.44340000  0.04450000  0.67714000  1.0 -0.057324159
C  C93  1  0.50820000  0.02310000  0.66486000  1.0 -0.1107946961
C  C94  1  0.30570000  0.10150000  0.58190000  1.0 -0.4994506284
C  C95  1  0.36420000  0.05430000  0.79293000  1.0 -0.4645005459
C  C96  1  0.58350000  0.99550000  0.64616000  1.0 0.1499920148
C  C97  1  0.65540000  0.98160000  0.68268000  1.0 -0.1437725158
C  C98  1  0.72600000  0.95420000  0.66337000  1.0 -0.0876585625
C  C99  1  0.72484000  0.93981000  0.60752000  1.0 -0.0127509482
C  C100  1  0.65280000  0.95500000  0.57050000  1.0 -0.1009640175
C  C101  1  0.58290000  0.98280000  0.58926000  1.0 -0.1517097945
C  C102  1  0.80153000  0.90931000  0.58674000  1.0 0.5507758812
C  C103  1  0.12119000  0.26203000  0.61762000  1.0 0.1693332041
C  C104  1  0.10274000  0.32028000  0.65041000  1.0 -0.1107946961
C  C105  1  0.10247000  0.29196000  0.70464000  1.0 0.2220282672
C  C106  1  0.08842000  0.39524000  0.63429000  1.0 -0.0536028983
C  C107  1  0.07740000  0.45928000  0.62573000  1.0 -0.1226889192
C  C108  1  0.12910000  0.26015000  0.55716000  1.0 -0.4994506284
C  C109  1  0.08590000  0.33124000  0.75522000  1.0 -0.4994506284
C  C110  1  0.06485000  0.53697000  0.61714000  1.0 0.1499920148
C  C111  1  0.05957000  0.56743000  0.56371000  1.0 -0.1609262669
C  C112  1  0.04692000  0.64252000  0.55619000  1.0 -0.1107946961
C  C113  1  0.03918000  0.68793000  0.60129000  1.0 -0.0171759326
C  C114  1  0.04408000  0.65807000  0.65424000  1.0 -0.1009640175
C  C115  1  0.05740000  0.58273000  0.66246000  1.0 -0.1347479852
C  C116  1  0.02295000  0.76872000  0.59127000  1.0 0.5507758812
C  C117  1  0.18353000  0.30783000  0.39678000  1.0 -0.0812924387
C  C118  1  0.33090000  0.25490000  0.40622000  1.0 0.1602591089
C  C119  1  0.37882000  0.23295000  0.36695000  1.0 -0.1226889192
C  C120  1  0.33133000  0.24765000  0.31460000  1.0 0.2220282672
C  C121  1  0.46010000  0.20112000  0.37676000  1.0 -0.057324159
C  C122  1  0.52820000  0.17400000  0.38334000  1.0 -0.1107946961
C  C123  1  0.34690000  0.25020000  0.46882000  1.0 -0.487776572
C  C124  1  0.35370000  0.23330000  0.25781000  1.0 -0.4697577576
C  C125  1  0.61180000  0.14270000  0.39122000  1.0 0.1403758111
C  C126  1  0.65760000  0.14060000  0.34752000  1.0 -0.1437725158
C  C127  1  0.73820000  0.11410000  0.35523000  1.0 -0.1009640175
C  C128  1  0.77447000  0.08859000  0.40715000  1.0 -0.0127509482
C  C129  1  0.72795000  0.08833000  0.45083000  1.0 -0.0876585625
C  C130  1  0.64720000  0.11490000  0.44325000  1.0 -0.1517097945
C  C131  1  0.86431000  0.06457000  0.41618000  1.0 0.5737988806
C  C132  1  0.17738000  0.44454000  0.41928000  1.0 0.1693332041
C  C133  1  0.15804000  0.50568000  0.38547000  1.0 -0.1107946961
C  C134  1  0.14018000  0.47871000  0.33017000  1.0 0.2266374758
C  C135  1  0.15320000  0.58159000  0.39870000  1.0 -0.057324159
C  C136  1  0.14210000  0.64635000  0.39912000  1.0 -0.1009640175
C  C137  1  0.19900000  0.43949000  0.48128000  1.0 -0.487776572
C  C138  1  0.11630000  0.52227000  0.27781000  1.0 -0.487776572
C  C139  1  0.12485000  0.72400000  0.39219000  1.0 0.1306716626
C  C140  1  0.12582000  0.77156000  0.43726000  1.0 -0.1226889192
C  C141  1  0.10503000  0.84491000  0.42813000  1.0 -0.0876585625
C  C142  1  0.08275000  0.87220000  0.37446000  1.0 -0.0171759326
C  C143  1  0.08290000  0.82447000  0.32948000  1.0 -0.1009640175
C  C144  1  0.10350000  0.75150000  0.33844000  1.0 -0.1437725158
C  C145  1  0.05741000  0.95104000  0.36393000  1.0 0.5507758812
C  C146  1  0.14937000  0.37317000  0.14003000  1.0 -0.0812924387
C  C147  1  0.30160000  0.40851000  0.14172000  1.0 0.1693332041
C  C148  1  0.36290000  0.43096000  0.18467000  1.0 -0.1226889192
C  C149  1  0.32585000  0.42763000  0.23391000  1.0 0.2266374758
C  C150  1  0.44340000  0.45550000  0.17714000  1.0 -0.057324159
C  C151  1  0.50820000  0.47690000  0.16486000  1.0 -0.1107946961
C  C152  1  0.30570000  0.39850000  0.08190000  1.0 -0.4994506284
C  C153  1  0.36420000  0.44570000  0.29293000  1.0 -0.4645005459
C  C154  1  0.58350000  0.50450000  0.14616000  1.0 0.1499920148
C  C155  1  0.65540000  0.51840000  0.18268000  1.0 -0.1437725158
C  C156  1  0.72600000  0.54580000  0.16337000  1.0 -0.0876585625
C  C157  1  0.72484000  0.56019000  0.10752000  1.0 -0.0127509482
C  C158  1  0.65280000  0.54500000  0.07050000  1.0 -0.1009640175
C  C159  1  0.58290000  0.51720000  0.08926000  1.0 -0.1517097945
C  C160  1  0.80153000  0.59069000  0.08674000  1.0 0.5507758812
C  C161  1  0.12119000  0.23797000  0.11762000  1.0 0.1693332041
C  C162  1  0.10274000  0.17972000  0.15041000  1.0 -0.1107946961
C  C163  1  0.10247000  0.20804000  0.20464000  1.0 0.2220282672
C  C164  1  0.08842000  0.10476000  0.13429000  1.0 -0.0536028983
C  C165  1  0.07740000  0.04072000  0.12573000  1.0 -0.1226889192
C  C166  1  0.12910000  0.23985000  0.05716000  1.0 -0.4994506284
C  C167  1  0.08590000  0.16876000  0.25522000  1.0 -0.4994506284
C  C168  1  0.06485000  0.96303000  0.11714000  1.0 0.1403758111
C  C169  1  0.05957000  0.93257000  0.06371000  1.0 -0.1609262669
C  C170  1  0.04692000  0.85748000  0.05619000  1.0 -0.1107946961
C  C171  1  0.03918000  0.81207000  0.10129000  1.0 -0.0171759326
C  C172  1  0.04408000  0.84193000  0.15424000  1.0 -0.1009640175
C  C173  1  0.05740000  0.91727000  0.16246000  1.0 -0.1347479852
C  C174  1  0.02295000  0.73128000  0.09127000  1.0 0.5507758812
C  C175  1  0.81647000  0.80783000  0.10322000  1.0 -0.0812924387
C  C176  1  0.66910000  0.75490000  0.09378000  1.0 0.1602591089
C  C177  1  0.62118000  0.73295000  0.13305000  1.0 -0.1226889192
C  C178  1  0.66867000  0.74765000  0.18540000  1.0 0.2220282672
C  C179  1  0.53990000  0.70112000  0.12324000  1.0 -0.057324159
C  C180  1  0.47180000  0.67400000  0.11666000  1.0 -0.1107946961
C  C181  1  0.65310000  0.75020000  0.03118000  1.0 -0.487776572
C  C182  1  0.64630000  0.73330000  0.24219000  1.0 -0.4697577576
C  C183  1  0.38820000  0.64270000  0.10878000  1.0 0.1403758111
C  C184  1  0.34240000  0.64060000  0.15248000  1.0 -0.1437725158
C  C185  1  0.26180000  0.61410000  0.14477000  1.0 -0.1009640175
C  C186  1  0.22553000  0.58859000  0.09285000  1.0 -0.0127509482
C  C187  1  0.27205000  0.58833000  0.04917000  1.0 -0.0876585625
C  C188  1  0.35280000  0.61490000  0.05675000  1.0 -0.1517097945
C  C189  1  0.13569000  0.56457000  0.08382000  1.0 0.5737988806
C  C190  1  0.82262000  0.94454000  0.08072000  1.0 0.1693332041
C  C191  1  0.84196000  0.00568000  0.11453000  1.0 -0.1107946961
C  C192  1  0.85982000  0.97871000  0.16983000  1.0 0.2266374758
C  C193  1  0.84680000  0.08159000  0.10130000  1.0 -0.057324159
C  C194  1  0.85790000  0.14635000  0.10088000  1.0 -0.1107946961
C  C195  1  0.80100000  0.93949000  0.01872000  1.0 -0.487776572
C  C196  1  0.88370000  0.02227000  0.22219000  1.0 -0.487776572
C  C197  1  0.87515000  0.22400000  0.10781000  1.0 0.1306716626
C  C198  1  0.87418000  0.27156000  0.06274000  1.0 -0.1226889192
C  C199  1  0.89497000  0.34491000  0.07187000  1.0 -0.0876585625
C  C200  1  0.91725000  0.37220000  0.12554000  1.0 -0.0171759326
C  C201  1  0.91710000  0.32447000  0.17052000  1.0 -0.1009640175
C  C202  1  0.89650000  0.25150000  0.16156000  1.0 -0.1437725158
C  C203  1  0.94259000  0.45104000  0.13607000  1.0 0.5507758812
C  C204  1  0.85063000  0.87317000  0.35997000  1.0 -0.0812924387
C  C205  1  0.69840000  0.90851000  0.35828000  1.0 0.1693332041
C  C206  1  0.63710000  0.93096000  0.31533000  1.0 -0.1226889192
C  C207  1  0.67415000  0.92763000  0.26609000  1.0 0.2266374758
C  C208  1  0.55660000  0.95550000  0.32286000  1.0 -0.057324159
C  C209  1  0.49180000  0.97690000  0.33514000  1.0 -0.1107946961
C  C210  1  0.69430000  0.89850000  0.41810000  1.0 -0.4994506284
C  C211  1  0.63580000  0.94570000  0.20707000  1.0 -0.4645005459
C  C212  1  0.41650000  0.00450000  0.35384000  1.0 0.1499920148
C  C213  1  0.34460000  0.01840000  0.31732000  1.0 -0.1437725158
C  C214  1  0.27400000  0.04580000  0.33663000  1.0 -0.0876585625
C  C215  1  0.27516000  0.06019000  0.39248000  1.0 -0.0127509482
C  C216  1  0.34720000  0.04500000  0.42950000  1.0 -0.1009640175
C  C217  1  0.41710000  0.01720000  0.41074000  1.0 -0.1517097945
C  C218  1  0.19847000  0.09069000  0.41326000  1.0 0.5507758812
C  C219  1  0.87881000  0.73797000  0.38238000  1.0 0.1693332041
C  C220  1  0.89726000  0.67972000  0.34959000  1.0 -0.1107946961
C  C221  1  0.89753000  0.70804000  0.29536000  1.0 0.2220282672
C  C222  1  0.91158000  0.60476000  0.36571000  1.0 -0.0536028983
C  C223  1  0.92260000  0.54072000  0.37427000  1.0 -0.1226889192
C  C224  1  0.87090000  0.73985000  0.44284000  1.0 -0.4994506284
C  C225  1  0.91410000  0.66876000  0.24478000  1.0 -0.4994506284
C  C226  1  0.93515000  0.46303000  0.38286000  1.0 0.1499920148
C  C227  1  0.94043000  0.43257000  0.43629000  1.0 -0.1609262669
C  C228  1  0.95308000  0.35748000  0.44381000  1.0 -0.1107946961
C  C229  1  0.96082000  0.31207000  0.39871000  1.0 -0.0171759326
C  C230  1  0.95592000  0.34193000  0.34576000  1.0 -0.1009640175
C  C231  1  0.94260000  0.41727000  0.33754000  1.0 -0.1347479852
C  C232  1  0.97705000  0.23128000  0.40873000  1.0 0.5507758812
N  N1  1  0.74216000  0.72385000  0.67912000  1.0 -0.2515772799
N  N2  1  0.74137000  0.71942000  0.62250000  1.0 0.0704540243
N  N3  1  0.85219000  0.59390000  0.67047000  1.0 -0.2515772799
N  N4  1  0.82941000  0.61409000  0.61536000  1.0 0.0704540243
N  N5  1  0.75279000  0.59526000  0.77757000  1.0 -0.2667165318
N  N6  1  0.76654000  0.60638000  0.83434000  1.0 0.0777444929
N  N7  1  0.87964000  0.72008000  0.79446000  1.0 -0.2557157123
N  N8  1  0.86943000  0.70248000  0.84797000  1.0 0.0777444929
N  N9  1  0.25784000  0.22385000  0.82088000  1.0 -0.2515772799
N  N10  1  0.25863000  0.21942000  0.87750000  1.0 0.0704540243
N  N11  1  0.14781000  0.09390000  0.82953000  1.0 -0.2515772799
N  N12  1  0.17059000  0.11409000  0.88464000  1.0 0.0704540243
N  N13  1  0.24721000  0.09526000  0.72243000  1.0 -0.2667165318
N  N14  1  0.23346000  0.10638000  0.66566000  1.0 0.0777444929
N  N15  1  0.12036000  0.22008000  0.70554000  1.0 -0.2557157123
N  N16  1  0.13057000  0.20248000  0.65203000  1.0 0.0777444929
N  N17  1  0.25784000  0.27615000  0.32088000  1.0 -0.2515772799
N  N18  1  0.25863000  0.28058000  0.37750000  1.0 0.0704540243
N  N19  1  0.14781000  0.40610000  0.32953000  1.0 -0.2515772799
N  N20  1  0.17059000  0.38591000  0.38464000  1.0 0.0704540243
N  N21  1  0.24721000  0.40474000  0.22243000  1.0 -0.2667165318
N  N22  1  0.23346000  0.39362000  0.16566000  1.0 0.0777444929
N  N23  1  0.12036000  0.27992000  0.20554000  1.0 -0.2557157123
N  N24  1  0.13057000  0.29752000  0.15203000  1.0 0.0777444929
N  N25  1  0.74216000  0.77615000  0.17912000  1.0 -0.2515772799
N  N26  1  0.74137000  0.78058000  0.12250000  1.0 0.0704540243
N  N27  1  0.85219000  0.90610000  0.17047000  1.0 -0.2515772799
N  N28  1  0.82941000  0.88591000  0.11536000  1.0 0.0704540243
N  N29  1  0.75279000  0.90474000  0.27757000  1.0 -0.2667165318
N  N30  1  0.76654000  0.89362000  0.33434000  1.0 0.0777444929
N  N31  1  0.87964000  0.77992000  0.29446000  1.0 -0.2557157123
N  N32  1  0.86943000  0.79752000  0.34797000  1.0 0.0777444929
O  O1  1  0.09621000  0.92812000  0.62462000  1.0 -0.5381944845
O  O2  1  0.10702000  0.95911000  0.53562000  1.0 -0.5496202404
O  O3  1  0.94979000  0.00982000  0.59276000  1.0 -0.582725569
O  O4  1  0.95676000  0.02464000  0.68433000  1.0 -0.5381944845
O  O5  1  0.13871000  0.39210000  0.87609000  1.0 -0.5334349418
O  O6  1  0.19860000  0.40481000  0.96483000  1.0 -0.5381944845
O  O7  1  0.97014000  0.29424000  0.95551000  1.0 -0.5381944845
O  O8  1  0.99877000  0.30550000  0.86810000  1.0 -0.5496202404
O  O9  1  0.90379000  0.42812000  0.87538000  1.0 -0.5381944845
O  O10  1  0.89298000  0.45911000  0.96438000  1.0 -0.5496202404
O  O11  1  0.05021000  0.50982000  0.90724000  1.0 -0.582725569
O  O12  1  0.04324000  0.52464000  0.81567000  1.0 -0.5381944845
O  O13  1  0.86129000  0.89210000  0.62391000  1.0 -0.5334349418
O  O14  1  0.80140000  0.90481000  0.53517000  1.0 -0.5381944845
O  O15  1  0.02986000  0.79424000  0.54449000  1.0 -0.5381944845
O  O16  1  0.00123000  0.80550000  0.63190000  1.0 -0.5496202404
O  O17  1  0.90379000  0.07188000  0.37538000  1.0 -0.5381944845
O  O18  1  0.89298000  0.04089000  0.46438000  1.0 -0.5496202404
O  O19  1  0.05021000  0.99018000  0.40724000  1.0 -0.582725569
O  O20  1  0.04324000  0.97536000  0.31567000  1.0 -0.5381944845
O  O21  1  0.86129000  0.60790000  0.12391000  1.0 -0.5334349418
O  O22  1  0.80140000  0.59519000  0.03517000  1.0 -0.5381944845
O  O23  1  0.02986000  0.70576000  0.04449000  1.0 -0.5381944845
O  O24  1  0.00123000  0.69450000  0.13190000  1.0 -0.5496202404
O  O25  1  0.09621000  0.57188000  0.12462000  1.0 -0.5381944845
O  O26  1  0.10702000  0.54089000  0.03562000  1.0 -0.5496202404
O  O27  1  0.94979000  0.49018000  0.09276000  1.0 -0.582725569
O  O28  1  0.95676000  0.47536000  0.18433000  1.0 -0.5381944845
O  O29  1  0.13871000  0.10790000  0.37609000  1.0 -0.5334349418
O  O30  1  0.19860000  0.09519000  0.46483000  1.0 -0.5381944845
O  O31  1  0.97014000  0.20576000  0.45551000  1.0 -0.5381944845
O  O32  1  0.99877000  0.19450000  0.36810000  1.0 -0.5496202404
