# DDEC6 charges by PACMAN v1.1 (https://github.com/mtap-research/PACMAN-charge/)
data_RATGAX_FSR_pacman
_symmetry_space_group_name_H-M   'P 1'
_cell_length_a   7.23550000
_cell_length_b   13.79480000
_cell_length_c   15.43090000
_cell_angle_alpha   99.38100000
_cell_angle_beta   93.12700000
_cell_angle_gamma   89.87000000
_symmetry_Int_Tables_number   1
_chemical_formula_structural   FeH8Pd(C3N)6
_chemical_formula_sum   'Fe2 H16 Pd2 C36 N12'
_cell_volume   1517.29826248
_cell_formula_units_Z   2
loop_
 _symmetry_equiv_pos_site_id
 _symmetry_equiv_pos_as_xyz
  1  'x, y, z'
loop_
 _atom_site_type_symbol
 _atom_site_label
 _atom_site_symmetry_multiplicity
 _atom_site_fract_x
 _atom_site_fract_y
 _atom_site_fract_z
 _atom_site_occupancy
 _atom_site_charge
Fe  Fe1  1  0.50000000  0.50000000  0.50000000  1.0 0.5657020706
Fe  Fe2  1  0.50000000  0.00000000  0.50000000  1.0 0.5875359076
H  H1  1  0.47860000  0.51500000  0.31110000  1.0 0.1297827411
H  H2  1  0.47080000  0.41570000  0.17450000  1.0 0.1297827411
H  H3  1  0.49370000  0.17860000  0.29940000  1.0 0.118080197
H  H4  1  0.49840000  0.28400000  0.43180000  1.0 0.118080197
H  H5  1  0.77610000  0.00880000  0.65240000  1.0 0.118080197
H  H6  1  0.78500000  0.04190000  0.80320000  1.0 0.1356060105
H  H7  1  0.22430000  0.03600000  0.79040000  1.0 0.1297827411
H  H8  1  0.22850000  0.00370000  0.63850000  1.0 0.118080197
H  H9  1  0.52140000  0.48500000  0.68890000  1.0 0.1297827411
H  H10  1  0.52920000  0.58430000  0.82550000  1.0 0.1297827411
H  H11  1  0.50630000  0.82140000  0.70060000  1.0 0.118080197
H  H12  1  0.50160000  0.71600000  0.56820000  1.0 0.118080197
H  H13  1  0.22390000  0.99120000  0.34760000  1.0 0.118080197
H  H14  1  0.21500000  0.95810000  0.19680000  1.0 0.1356060105
H  H15  1  0.77570000  0.96400000  0.20960000  1.0 0.1297827411
H  H16  1  0.77150000  0.99630000  0.36150000  1.0 0.118080197
Pd  Pd1  1  0.99611000  0.73910000  0.46162000  1.0 0.1516175019
Pd  Pd2  1  0.00389000  0.26090000  0.53838000  1.0 0.1516175019
C  C1  1  0.48200000  0.44580000  0.30860000  1.0 0.0838552835
C  C2  1  0.47810000  0.38720000  0.22660000  1.0 -0.1713864557
C  C3  1  0.48520000  0.28620000  0.22220000  1.0 0.1602168354
C  C4  1  0.49130000  0.24770000  0.30040000  1.0 -0.1713864557
C  C5  1  0.49390000  0.31090000  0.37890000  1.0 0.0693484071
C  C6  1  0.48800000  0.22270000  0.13810000  1.0 -0.0720096817
C  C7  1  0.49290000  0.17390000  0.06650000  1.0 -0.0634672408
C  C8  1  0.80060000  0.63700000  0.45520000  1.0 0.0184962449
C  C9  1  0.19410000  0.84130000  0.47530000  1.0 -0.0024351704
C  C10  1  0.80190000  0.84200000  0.47990000  1.0 0.002844005
C  C11  1  0.80900000  0.36400000  0.54790000  1.0 0.0184962449
C  C12  1  0.66250000  0.01670000  0.68070000  1.0 0.062075344
C  C13  1  0.66920000  0.03700000  0.77060000  1.0 -0.1713864557
C  C14  1  0.50460000  0.05040000  0.81420000  1.0 0.1602168354
C  C15  1  0.33900000  0.03360000  0.76300000  1.0 -0.1751522076
C  C16  1  0.34260000  0.01350000  0.67230000  1.0 0.0693484071
C  C17  1  0.50320000  0.08520000  0.90680000  1.0 -0.0720096817
C  C18  1  0.49820000  0.12370000  0.98270000  1.0 -0.0407439032
C  C19  1  0.51800000  0.55420000  0.69140000  1.0 0.0838552835
C  C20  1  0.52190000  0.61280000  0.77340000  1.0 -0.1713864557
C  C21  1  0.51480000  0.71380000  0.77780000  1.0 0.1602168354
C  C22  1  0.50870000  0.75230000  0.69960000  1.0 -0.1713864557
C  C23  1  0.50610000  0.68910000  0.62110000  1.0 0.0693484071
C  C24  1  0.51200000  0.77730000  0.86190000  1.0 -0.0720096817
C  C25  1  0.50710000  0.82610000  0.93350000  1.0 -0.0634672408
C  C26  1  0.19940000  0.36300000  0.54480000  1.0 0.0184962449
C  C27  1  0.80590000  0.15870000  0.52470000  1.0 -0.0024351704
C  C28  1  0.19810000  0.15800000  0.52010000  1.0 0.002844005
C  C29  1  0.19100000  0.63600000  0.45210000  1.0 0.0252317014
C  C30  1  0.33750000  0.98330000  0.31930000  1.0 0.062075344
C  C31  1  0.33080000  0.96300000  0.22940000  1.0 -0.1713864557
C  C32  1  0.49540000  0.94960000  0.18580000  1.0 0.1602168354
C  C33  1  0.66100000  0.96640000  0.23700000  1.0 -0.1751522076
C  C34  1  0.65740000  0.98650000  0.32770000  1.0 0.0693484071
C  C35  1  0.49680000  0.91480000  0.09320000  1.0 -0.0720096817
C  C36  1  0.50180000  0.87630000  0.01730000  1.0 -0.0407439032
N  N1  1  0.49020000  0.41040000  0.38460000  1.0 -0.1412358535
N  N2  1  0.68630000  0.58160000  0.46250000  1.0 -0.289327418
N  N3  1  0.68870000  0.90000000  0.49120000  1.0 -0.289327418
N  N4  1  0.31020000  0.89980000  0.48510000  1.0 -0.289327418
N  N5  1  0.50220000  0.00710000  0.62980000  1.0 -0.1412358535
N  N6  1  0.69530000  0.41920000  0.53990000  1.0 -0.283345635
N  N7  1  0.50980000  0.58960000  0.61540000  1.0 -0.1412358535
N  N8  1  0.31370000  0.41840000  0.53750000  1.0 -0.289327418
N  N9  1  0.31130000  0.10000000  0.50880000  1.0 -0.289327418
N  N10  1  0.68980000  0.10020000  0.51490000  1.0 -0.289327418
N  N11  1  0.49780000  0.99290000  0.37020000  1.0 -0.1412358535
N  N12  1  0.30470000  0.58080000  0.46010000  1.0 -0.283345635
