# DDEC6 charges by PACMAN v1.1 (https://github.com/mtap-research/PACMAN-charge/)
data_RATGIF_ASR_pacman
_symmetry_space_group_name_H-M   'P 1'
_cell_length_a   14.01780000
_cell_length_b   7.32400000
_cell_length_c   15.70220000
_cell_angle_alpha   90.00000000
_cell_angle_beta   98.40200000
_cell_angle_gamma   90.00000000
_symmetry_Int_Tables_number   1
_chemical_formula_structural   FeNiH8(C3N)6
_chemical_formula_sum   'Fe2 Ni2 H16 C36 N12'
_cell_volume   1594.78566814
_cell_formula_units_Z   2
loop_
 _symmetry_equiv_pos_site_id
 _symmetry_equiv_pos_as_xyz
  1  'x, y, z'
loop_
 _atom_site_type_symbol
 _atom_site_label
 _atom_site_symmetry_multiplicity
 _atom_site_fract_x
 _atom_site_fract_y
 _atom_site_fract_z
 _atom_site_occupancy
 _atom_site_charge
Fe  Fe1  1  0.00000000  0.00000000  0.00000000  1.0 0.7603814156
Fe  Fe2  1  0.50000000  0.00000000  0.00000000  1.0 0.7662853749
Ni  Ni1  1  0.76030000  0.50000000  0.03307000  1.0 0.1219694417
Ni  Ni2  1  0.23970000  0.50000000  0.96693000  1.0 0.1219694417
H  H1  1  0.48896000  0.73451000  0.84270000  1.0 0.1086628587
H  H2  1  0.45376000  0.72700000  0.69602000  1.0 0.1329076266
H  H3  1  0.51104000  0.73451000  0.15730000  1.0 0.1086628587
H  H4  1  0.54624000  0.72700000  0.30398000  1.0 0.1329076266
H  H5  1  0.51104000  0.26549000  0.15730000  1.0 0.1086628587
H  H6  1  0.54624000  0.27300000  0.30398000  1.0 0.1329076266
H  H7  1  0.48896000  0.26549000  0.84270000  1.0 0.1086628587
H  H8  1  0.45376000  0.27300000  0.69602000  1.0 0.1329076266
H  H9  1  0.22121000  0.00000000  0.07587000  1.0 0.1086628587
H  H10  1  0.32393000  0.00000000  0.20361000  1.0 0.1219694417
H  H11  1  0.09234000  0.00000000  0.32593000  1.0 0.1329076266
H  H12  1  0.99718000  0.00000000  0.19573000  1.0 0.1219694417
H  H13  1  0.77879000  0.00000000  0.92413000  1.0 0.1086628587
H  H14  1  0.67607000  0.00000000  0.79639000  1.0 0.1219694417
H  H15  1  0.90766000  0.00000000  0.67407000  1.0 0.1329076266
H  H16  1  0.00282000  0.00000000  0.80427000  1.0 0.1219694417
C  C1  1  0.85500000  0.67940000  0.04370000  1.0 0.0680661724
C  C2  1  0.33410000  0.68060000  0.98150000  1.0 0.0560632759
C  C3  1  0.48020000  0.84420000  0.81280000  1.0 0.0920565787
C  C4  1  0.45850000  0.83830000  0.72490000  1.0 -0.1753920018
C  C5  1  0.14500000  0.67940000  0.95630000  1.0 0.0680661724
C  C6  1  0.66590000  0.68060000  0.01850000  1.0 0.0560632759
C  C7  1  0.51980000  0.84420000  0.18720000  1.0 0.0920565787
C  C8  1  0.54150000  0.83830000  0.27510000  1.0 -0.1753920018
C  C9  1  0.14500000  0.32060000  0.95630000  1.0 0.0680661724
C  C10  1  0.66590000  0.31940000  0.01850000  1.0 0.0560632759
C  C11  1  0.51980000  0.15580000  0.18720000  1.0 0.0920565787
C  C12  1  0.54150000  0.16170000  0.27510000  1.0 -0.1753920018
C  C13  1  0.85500000  0.32060000  0.04370000  1.0 0.0680661724
C  C14  1  0.33410000  0.31940000  0.98150000  1.0 0.0560632759
C  C15  1  0.48020000  0.15580000  0.81280000  1.0 0.0920565787
C  C16  1  0.45850000  0.16170000  0.72490000  1.0 -0.1753920018
C  C17  1  0.19520000  0.00000000  0.12710000  1.0 0.0961190314
C  C18  1  0.25760000  0.00000000  0.20350000  1.0 -0.1717665418
C  C19  1  0.22000000  0.00000000  0.27960000  1.0 0.1713579149
C  C20  1  0.12020000  0.00000000  0.27570000  1.0 -0.1600276007
C  C21  1  0.06380000  0.00000000  0.19740000  1.0 0.0920565787
C  C22  1  0.28020000  0.00000000  0.36190000  1.0 -0.0679481457
C  C23  1  0.32660000  0.00000000  0.43220000  1.0 -0.0621518091
C  C24  1  0.44370000  0.00000000  0.67980000  1.0 0.1713579149
C  C25  1  0.41020000  0.00000000  0.58880000  1.0 -0.0621518091
C  C26  1  0.37390000  0.00000000  0.51410000  1.0 -0.0470388382
C  C27  1  0.80480000  0.00000000  0.87290000  1.0 0.0961190314
C  C28  1  0.74240000  0.00000000  0.79650000  1.0 -0.1717665418
C  C29  1  0.78000000  0.00000000  0.72040000  1.0 0.1713579149
C  C30  1  0.87980000  0.00000000  0.72430000  1.0 -0.1600276007
C  C31  1  0.93620000  0.00000000  0.80260000  1.0 0.0920565787
C  C32  1  0.71980000  0.00000000  0.63810000  1.0 -0.0679481457
C  C33  1  0.67340000  0.00000000  0.56780000  1.0 -0.0621518091
C  C34  1  0.55630000  0.00000000  0.32020000  1.0 0.1713579149
C  C35  1  0.58980000  0.00000000  0.41120000  1.0 -0.0621518091
C  C36  1  0.62610000  0.00000000  0.48590000  1.0 -0.0470388382
N  N1  1  0.91208000  0.79140000  0.04480000  1.0 -0.3663622885
N  N2  1  0.39150000  0.79290000  0.99069000  1.0 -0.3663622885
N  N3  1  0.08792000  0.79140000  0.95520000  1.0 -0.3663622885
N  N4  1  0.60850000  0.79290000  0.00931000  1.0 -0.3663622885
N  N5  1  0.08792000  0.20860000  0.95520000  1.0 -0.3663622885
N  N6  1  0.60850000  0.20710000  0.00931000  1.0 -0.3663622885
N  N7  1  0.91208000  0.20860000  0.04480000  1.0 -0.3663622885
N  N8  1  0.39150000  0.20710000  0.99069000  1.0 -0.3663622885
N  N9  1  0.09930000  0.00000000  0.12270000  1.0 -0.2071559726
N  N10  1  0.48930000  0.00000000  0.85770000  1.0 -0.2227427958
N  N11  1  0.90070000  0.00000000  0.87730000  1.0 -0.2071559726
N  N12  1  0.51070000  0.00000000  0.14230000  1.0 -0.2227427958
