# DDEC6 charges by PACMAN v1.1 (https://github.com/mtap-research/PACMAN-charge/)
data_RAWQOY_FSR_pacman
_chemical_formula_sum              "Cu6 C25 N13 H30"
_cell_length_a       8.6913
_cell_length_b       11.8473
_cell_length_c       12.4691
_cell_angle_alpha    63.694
_cell_angle_beta     85.989
_cell_angle_gamma    70.101

_symmetry_space_group_name_H-M    "P 1"
_symmetry_Int_Tables_number       1

loop_
  _symmetry_equiv_pos_as_xyz
  'x, y, z'

loop_
  _atom_site_type_symbol
  _atom_site_label
  _atom_site_symmetry_multiplicity
  _atom_site_fract_x
  _atom_site_fract_y
  _atom_site_fract_z
  _atom_site_occupancy
 _atom_site_charge
Cu  Cu1       1.0  0.59769  0.05002  0.79861  1.0000 0.34591384
C   C1        1.0  0.52080  0.01240  0.95200  1.0000 -0.3823388689
N   N1        1.0  0.55490  0.23760  0.68600  1.0000 -0.2666261666
C   C2        1.0  0.71490  0.92210  0.74340  1.0000 -0.1324851089
C   C3        1.0  0.53380  0.34630  0.62210  1.0000 -0.0684786648
N   N2        1.0  0.78750  0.84350  0.71150  1.0000 -0.3335631065
Cu  Cu2       1.0  0.51474  0.45998  0.42027  1.0000 0.4369962342
Cu  Cu3       1.0  0.90297  0.70040  0.66844  1.0000 0.2452830202
N   N3        1.0  0.73850  0.38780  0.37690  1.0000 -0.3234103345
N   N4        1.0  0.34450  0.40980  0.37540  1.0000 -0.3234103345
C   C4        1.0  0.75150  0.62610  0.64380  1.0000 -0.0400192239
C   C5        1.0  0.12890  0.64760  0.64300  1.0000 -0.0400192239
N   N5        1.0  0.47920  0.98760  0.04800  1.0000 -0.0977374115
N   N6        1.0  0.50200  0.43200  0.01700  1.0000 -0.0310414247
N   N7        1.0  0.55400  0.58750  0.02540  1.0000 0.1401838041
C   C6        1.0  0.51100  0.48300  0.09100  1.0000 -0.0129279987
H   H1        1.0  0.48570  0.45440  0.17260  1.0000 0.1259557731
C   C7        1.0  0.58800  0.60100  0.91080  1.0000 -0.0216050667
H   H2        1.0  0.63350  0.66270  0.85020  1.0000 0.0924985535
C   C8        1.0  0.55100  0.49900  0.91100  1.0000 -0.0516609721
H   H3        1.0  0.55070  0.48240  0.84170  1.0000 0.1081154026
C   C9        1.0  0.44000  0.31900  0.04400  1.0000 -0.0216050667
H   H4        1.0  0.44940  0.29960  0.97660  1.0000 0.1004285678
H   H5        1.0  0.50540  0.24130  0.11310  1.0000 0.118706754
H   H6        1.0  0.32730  0.34390  0.06080  1.0000 0.0594946533
C   C10       1.0  0.59000  0.67470  0.07160  1.0000 -0.1146867894
H   H7        1.0  0.58440  0.64180  0.15680  1.0000 0.118706754
H   H8        1.0  0.51680  0.76610  0.03130  1.0000 0.118706754
C   C11       1.0  0.76400  0.66100  0.03800  1.0000 -0.2219136231
H   H9        1.0  0.82340  0.67280  0.09140  1.0000 0.118706754
H   H10       1.0  0.76220  0.72830  0.95750  1.0000 0.1004285678
C   C12       1.0  0.85300  0.52100  0.04600  1.0000 -0.1494299345
H   H11       1.0  0.77300  0.49280  0.02540  1.0000 0.069165885
H   H12       1.0  0.89810  0.45870  0.12740  1.0000 0.0594946533
C   C13       1.0  0.98400  0.51600  0.96050  1.0000 -0.1494299345
H   H13       1.0  0.03310  0.42590  0.96900  1.0000 0.069165885
H   H14       1.0  0.94000  0.57600  0.87860  1.0000 0.0838684715
H   H15       1.0  0.06650  0.54150  0.98180  1.0000 0.0502632684
Cu  Cu4       1.0  0.40231  0.94998  0.20139  1.0000 0.2337978757
N   N8        1.0  0.44510  0.76240  0.31400  1.0000 -0.2457583122
C   C14       1.0  0.28510  0.07790  0.25660  1.0000 -0.0632160105
C   C15       1.0  0.46620  0.65370  0.37790  1.0000 -0.0684786648
N   N9        1.0  0.21250  0.15650  0.28850  1.0000 -0.3413101905
Cu  Cu5       1.0  0.48526  0.54002  0.57973  1.0000 0.431186033
Cu  Cu6       1.0  0.09703  0.29960  0.33156  1.0000 0.2418129123
N   N10       1.0  0.26150  0.61220  0.62310  1.0000 -0.3234103345
N   N11       1.0  0.65550  0.59020  0.62460  1.0000 -0.3234103345
C   C16       1.0  0.24850  0.37390  0.35620  1.0000 -0.0310414247
C   C17       1.0  0.87110  0.35240  0.35700  1.0000 -0.0400192239
N   N12       1.0  0.49800  0.56800  0.98300  1.0000 -0.0310414247
N   N13       1.0  0.44600  0.41250  0.97460  1.0000 0.1401838041
C   C18       1.0  0.48900  0.51700  0.90900  1.0000 -0.0129279987
H   H16       1.0  0.51430  0.54560  0.82740  1.0000 0.1259557731
C   C19       1.0  0.41200  0.39900  0.08920  1.0000 -0.0310414247
H   H17       1.0  0.36650  0.33730  0.14980  1.0000 0.0924985535
C   C20       1.0  0.44900  0.50100  0.08900  1.0000 -0.0516609721
H   H18       1.0  0.44930  0.51760  0.15830  1.0000 0.1081154026
C   C21       1.0  0.56000  0.68100  0.95600  1.0000 -0.0216050667
H   H19       1.0  0.55060  0.70040  0.02340  1.0000 0.1004285678
H   H20       1.0  0.49460  0.75870  0.88690  1.0000 0.118706754
H   H21       1.0  0.67270  0.65610  0.93920  1.0000 0.0594946533
C   C22       1.0  0.41000  0.32530  0.92840  1.0000 -0.1146867894
H   H22       1.0  0.41560  0.35820  0.84320  1.0000 0.118706754
H   H23       1.0  0.48320  0.23390  0.96870  1.0000 0.118706754
C   C23       1.0  0.23600  0.33900  0.96200  1.0000 -0.2219136231
H   H24       1.0  0.17660  0.32720  0.90860  1.0000 0.118706754
H   H25       1.0  0.23780  0.27170  0.04250  1.0000 0.1004285678
C   C24       1.0  0.14700  0.47900  0.95400  1.0000 -0.1494299345
H   H26       1.0  0.22700  0.50720  0.97460  1.0000 0.069165885
H   H27       1.0  0.10190  0.54130  0.87260  1.0000 0.0594946533
C   C25       1.0  0.01600  0.48400  0.03950  1.0000 -0.1494299345
H   H28       1.0  0.96690  0.57410  0.03100  1.0000 0.069165885
H   H29       1.0  0.06000  0.42400  0.12140  1.0000 0.0838684715
H   H30       1.0  0.93350  0.45850  0.01820  1.0000 0.0502632684
  N   N14       1.0  0.52080  0.01240  0.95200  1.0000
  C   C26       1.0  0.47920  0.98760  0.04800  1.0000
