# DDEC6 charges by PACMAN v1.1 (https://github.com/mtap-research/PACMAN-charge/)
data_RAYFEE_FSR_pacman
_symmetry_space_group_name_H-M   'P 1'
_cell_length_a   20.35290000
_cell_length_b   20.35290000
_cell_length_c   20.35290000
_cell_angle_alpha   115.53400000
_cell_angle_beta   115.53400000
_cell_angle_gamma   115.53400000
_symmetry_Int_Tables_number   1
_chemical_formula_structural   Cu2H21C14S3N7O10
_chemical_formula_sum   'Cu12 H126 C84 S18 N42 O60'
_cell_volume   4480.48924838
_cell_formula_units_Z   6
loop_
 _symmetry_equiv_pos_site_id
 _symmetry_equiv_pos_as_xyz
  1  'x, y, z'
loop_
 _atom_site_type_symbol
 _atom_site_label
 _atom_site_symmetry_multiplicity
 _atom_site_fract_x
 _atom_site_fract_y
 _atom_site_fract_z
 _atom_site_occupancy
 _atom_site_charge
Cu  Cu1  1  0.12852000  0.30152000  0.61287000  1.0 0.6320660427
Cu  Cu2  1  0.30152000  0.61287000  0.12852000  1.0 0.6320660427
Cu  Cu3  1  0.61287000  0.12852000  0.30152000  1.0 0.6320660427
Cu  Cu4  1  0.87148000  0.69848000  0.38713000  1.0 0.6320660427
Cu  Cu5  1  0.69848000  0.38713000  0.87148000  1.0 0.6320660427
Cu  Cu6  1  0.38713000  0.87148000  0.69848000  1.0 0.6320660427
Cu  Cu7  1  0.06815000  0.45800000  0.54640000  1.0 0.620670638
Cu  Cu8  1  0.45800000  0.54640000  0.06815000  1.0 0.620670638
Cu  Cu9  1  0.54640000  0.06815000  0.45800000  1.0 0.620670638
Cu  Cu10  1  0.93185000  0.54200000  0.45360000  1.0 0.620670638
Cu  Cu11  1  0.54200000  0.45360000  0.93185000  1.0 0.620670638
Cu  Cu12  1  0.45360000  0.93185000  0.54200000  1.0 0.620670638
H  H1  1  0.20120000  0.63520000  0.78350000  1.0 0.3281639432
H  H2  1  0.63520000  0.78350000  0.20120000  1.0 0.3281639432
H  H3  1  0.78350000  0.20120000  0.63520000  1.0 0.3281639432
H  H4  1  0.79880000  0.36480000  0.21650000  1.0 0.3281639432
H  H5  1  0.36480000  0.21650000  0.79880000  1.0 0.3281639432
H  H6  1  0.21650000  0.79880000  0.36480000  1.0 0.3281639432
H  H7  1  0.08510000  0.14230000  0.62540000  1.0 0.116899801
H  H8  1  0.14230000  0.62540000  0.08510000  1.0 0.116899801
H  H9  1  0.62540000  0.08510000  0.14230000  1.0 0.116899801
H  H10  1  0.91490000  0.85770000  0.37460000  1.0 0.116899801
H  H11  1  0.85770000  0.37460000  0.91490000  1.0 0.116899801
H  H12  1  0.37460000  0.91490000  0.85770000  1.0 0.116899801
H  H13  1  0.93600000  0.98000000  0.54290000  1.0 0.1312426344
H  H14  1  0.98000000  0.54290000  0.93600000  1.0 0.1312426344
H  H15  1  0.54290000  0.93600000  0.98000000  1.0 0.1312426344
H  H16  1  0.06400000  0.02000000  0.45710000  1.0 0.1312426344
H  H17  1  0.02000000  0.45710000  0.06400000  1.0 0.1312426344
H  H18  1  0.45710000  0.06400000  0.02000000  1.0 0.1312426344
H  H19  1  0.76160000  0.89540000  0.41520000  1.0 0.1089995166
H  H20  1  0.89540000  0.41520000  0.76160000  1.0 0.1089995166
H  H21  1  0.41520000  0.76160000  0.89540000  1.0 0.1089995166
H  H22  1  0.23840000  0.10460000  0.58480000  1.0 0.1089995166
H  H23  1  0.10460000  0.58480000  0.23840000  1.0 0.1089995166
H  H24  1  0.58480000  0.23840000  0.10460000  1.0 0.1089995166
H  H25  1  0.74510000  0.99110000  0.38670000  1.0 0.1312426344
H  H26  1  0.99110000  0.38670000  0.74510000  1.0 0.1312426344
H  H27  1  0.38670000  0.74510000  0.99110000  1.0 0.1312426344
H  H28  1  0.25490000  0.00890000  0.61330000  1.0 0.1312426344
H  H29  1  0.00890000  0.61330000  0.25490000  1.0 0.1312426344
H  H30  1  0.61330000  0.25490000  0.00890000  1.0 0.1312426344
H  H31  1  0.70480000  0.32180000  0.32670000  1.0 0.1089995166
H  H32  1  0.32180000  0.32670000  0.70480000  1.0 0.1089995166
H  H33  1  0.32670000  0.70480000  0.32180000  1.0 0.1089995166
H  H34  1  0.29520000  0.67820000  0.67330000  1.0 0.1089995166
H  H35  1  0.67820000  0.67330000  0.29520000  1.0 0.1089995166
H  H36  1  0.67330000  0.29520000  0.67820000  1.0 0.1089995166
H  H37  1  0.31220000  0.28210000  0.54650000  1.0 0.1312426344
H  H38  1  0.28210000  0.54650000  0.31220000  1.0 0.1312426344
H  H39  1  0.54650000  0.31220000  0.28210000  1.0 0.1312426344
H  H40  1  0.68780000  0.71790000  0.45350000  1.0 0.1312426344
H  H41  1  0.71790000  0.45350000  0.68780000  1.0 0.1312426344
H  H42  1  0.45350000  0.68780000  0.71790000  1.0 0.1312426344
H  H43  1  0.28300000  0.30050000  0.47630000  1.0 0.1390471924
H  H44  1  0.30050000  0.47630000  0.28300000  1.0 0.1390471924
H  H45  1  0.47630000  0.28300000  0.30050000  1.0 0.1390471924
H  H46  1  0.71700000  0.69950000  0.52370000  1.0 0.1390471924
H  H47  1  0.69950000  0.52370000  0.71700000  1.0 0.1390471924
H  H48  1  0.52370000  0.71700000  0.69950000  1.0 0.1390471924
H  H49  1  0.31720000  0.37100000  0.58400000  1.0 0.1390471924
H  H50  1  0.37100000  0.58400000  0.31720000  1.0 0.1390471924
H  H51  1  0.58400000  0.31720000  0.37100000  1.0 0.1390471924
H  H52  1  0.68280000  0.62900000  0.41600000  1.0 0.1390471924
H  H53  1  0.62900000  0.41600000  0.68280000  1.0 0.1390471924
H  H54  1  0.41600000  0.68280000  0.62900000  1.0 0.1390471924
H  H55  1  0.07170000  0.03450000  0.33350000  1.0 0.0699696829
H  H56  1  0.03450000  0.33350000  0.07170000  1.0 0.0699696829
H  H57  1  0.33350000  0.07170000  0.03450000  1.0 0.0699696829
H  H58  1  0.92830000  0.96550000  0.66650000  1.0 0.0699696829
H  H59  1  0.96550000  0.66650000  0.92830000  1.0 0.0699696829
H  H60  1  0.66650000  0.92830000  0.96550000  1.0 0.0699696829
H  H61  1  0.14760000  0.11010000  0.33830000  1.0 0.0790009041
H  H62  1  0.11010000  0.33830000  0.14760000  1.0 0.0790009041
H  H63  1  0.33830000  0.14760000  0.11010000  1.0 0.0790009041
H  H64  1  0.85240000  0.88990000  0.66170000  1.0 0.0790009041
H  H65  1  0.88990000  0.66170000  0.85240000  1.0 0.0790009041
H  H66  1  0.66170000  0.85240000  0.88990000  1.0 0.0790009041
H  H67  1  0.20180000  0.13140000  0.43860000  1.0 0.1089995166
H  H68  1  0.13140000  0.43860000  0.20180000  1.0 0.1089995166
H  H69  1  0.43860000  0.20180000  0.13140000  1.0 0.1089995166
H  H70  1  0.79820000  0.86860000  0.56140000  1.0 0.1089995166
H  H71  1  0.86860000  0.56140000  0.79820000  1.0 0.1089995166
H  H72  1  0.56140000  0.79820000  0.86860000  1.0 0.1089995166
H  H73  1  0.00650000  0.51020000  0.68950000  1.0 0.1089995166
H  H74  1  0.51020000  0.68950000  0.00650000  1.0 0.1089995166
H  H75  1  0.68950000  0.00650000  0.51020000  1.0 0.1089995166
H  H76  1  0.99350000  0.48980000  0.31050000  1.0 0.1089995166
H  H77  1  0.48980000  0.31050000  0.99350000  1.0 0.1089995166
H  H78  1  0.31050000  0.99350000  0.48980000  1.0 0.1089995166
H  H79  1  0.10240000  0.55620000  0.79720000  1.0 0.0927394966
H  H80  1  0.55620000  0.79720000  0.10240000  1.0 0.0927394966
H  H81  1  0.79720000  0.10240000  0.55620000  1.0 0.0927394966
H  H82  1  0.89760000  0.44380000  0.20280000  1.0 0.0927394966
H  H83  1  0.44380000  0.20280000  0.89760000  1.0 0.0927394966
H  H84  1  0.20280000  0.89760000  0.44380000  1.0 0.0927394966
H  H85  1  0.02640000  0.44170000  0.67900000  1.0 0.0990444635
H  H86  1  0.44170000  0.67900000  0.02640000  1.0 0.0990444635
H  H87  1  0.67900000  0.02640000  0.44170000  1.0 0.0990444635
H  H88  1  0.97360000  0.55830000  0.32100000  1.0 0.0990444635
H  H89  1  0.55830000  0.32100000  0.97360000  1.0 0.0990444635
H  H90  1  0.32100000  0.97360000  0.55830000  1.0 0.0990444635
H  H91  1  0.11520000  0.29260000  0.43300000  1.0 0.1390471924
H  H92  1  0.29260000  0.43300000  0.11520000  1.0 0.1502128308
H  H93  1  0.43300000  0.11520000  0.29260000  1.0 0.1502128308
H  H94  1  0.88480000  0.70740000  0.56700000  1.0 0.1502128308
H  H95  1  0.70740000  0.56700000  0.88480000  1.0 0.1390471924
H  H96  1  0.56700000  0.88480000  0.70740000  1.0 0.1502128308
H  H97  1  0.13760000  0.25500000  0.36870000  1.0 0.1390471924
H  H98  1  0.25500000  0.36870000  0.13760000  1.0 0.1390471924
H  H99  1  0.36870000  0.13760000  0.25500000  1.0 0.1390471924
H  H100  1  0.86240000  0.74500000  0.63130000  1.0 0.1390471924
H  H101  1  0.74500000  0.63130000  0.86240000  1.0 0.1390471924
H  H102  1  0.63130000  0.86240000  0.74500000  1.0 0.1390471924
H  H103  1  0.01970000  0.16860000  0.31380000  1.0 0.1390471924
H  H104  1  0.16860000  0.31380000  0.01970000  1.0 0.1390471924
H  H105  1  0.31380000  0.01970000  0.16860000  1.0 0.1390471924
H  H106  1  0.98030000  0.83140000  0.68620000  1.0 0.1390471924
H  H107  1  0.83140000  0.68620000  0.98030000  1.0 0.1390471924
H  H108  1  0.68620000  0.98030000  0.83140000  1.0 0.1390471924
H  H109  1  0.05690000  0.03210000  0.30390000  1.0 0.0387431808
H  H110  1  0.03210000  0.30390000  0.05690000  1.0 0.0387431808
H  H111  1  0.30390000  0.05690000  0.03210000  1.0 0.0387431808
H  H112  1  0.94310000  0.96790000  0.69610000  1.0 0.0387431808
H  H113  1  0.96790000  0.69610000  0.94310000  1.0 0.0387431808
H  H114  1  0.69610000  0.94310000  0.96790000  1.0 0.0387431808
H  H115  1  0.96990000  0.02990000  0.26860000  1.0 0.1390471924
H  H116  1  0.02990000  0.26860000  0.96990000  1.0 0.1390471924
H  H117  1  0.26860000  0.96990000  0.02990000  1.0 0.1390471924
H  H118  1  0.03010000  0.97010000  0.73140000  1.0 0.1390471924
H  H119  1  0.97010000  0.73140000  0.03010000  1.0 0.1390471924
H  H120  1  0.73140000  0.03010000  0.97010000  1.0 0.1390471924
H  H121  1  0.05120000  0.08510000  0.26740000  1.0 0.1089995166
H  H122  1  0.08510000  0.26740000  0.05120000  1.0 0.1089995166
H  H123  1  0.26740000  0.05120000  0.08510000  1.0 0.1089995166
H  H124  1  0.94880000  0.91490000  0.73260000  1.0 0.1089995166
H  H125  1  0.91490000  0.73260000  0.94880000  1.0 0.1089995166
H  H126  1  0.73260000  0.94880000  0.91490000  1.0 0.1089995166
C  C1  1  0.01530000  0.11090000  0.57630000  1.0 0.0790009041
C  C2  1  0.11090000  0.57630000  0.01530000  1.0 0.0790009041
C  C3  1  0.57630000  0.01530000  0.11090000  1.0 0.0790009041
C  C4  1  0.98470000  0.88910000  0.42370000  1.0 0.0790009041
C  C5  1  0.88910000  0.42370000  0.98470000  1.0 0.0790009041
C  C6  1  0.42370000  0.98470000  0.88910000  1.0 0.0790009041
C  C7  1  0.92640000  0.01330000  0.52640000  1.0 -0.1568831673
C  C8  1  0.01330000  0.52640000  0.92640000  1.0 -0.1568831673
C  C9  1  0.52640000  0.92640000  0.01330000  1.0 -0.1568831673
C  C10  1  0.07360000  0.98670000  0.47360000  1.0 -0.1568831673
C  C11  1  0.98670000  0.47360000  0.07360000  1.0 -0.1568831673
C  C12  1  0.47360000  0.07360000  0.98670000  1.0 -0.1568831673
C  C13  1  0.82400000  0.96430000  0.45280000  1.0 -0.0547244782
C  C14  1  0.96430000  0.45280000  0.82400000  1.0 -0.0547244782
C  C15  1  0.45280000  0.82400000  0.96430000  1.0 -0.0553538027
C  C16  1  0.17600000  0.03570000  0.54720000  1.0 -0.0547244782
C  C17  1  0.03570000  0.54720000  0.17600000  1.0 -0.0553538027
C  C18  1  0.54720000  0.17600000  0.03570000  1.0 -0.0547244782
C  C19  1  0.81390000  0.02060000  0.43420000  1.0 -0.1709674011
C  C20  1  0.02060000  0.43420000  0.81390000  1.0 -0.1709674011
C  C21  1  0.43420000  0.81390000  0.02060000  1.0 -0.1709674011
C  C22  1  0.18610000  0.97940000  0.56580000  1.0 -0.1709674011
C  C23  1  0.97940000  0.56580000  0.18610000  1.0 -0.1709674011
C  C24  1  0.56580000  0.18610000  0.97940000  1.0 -0.1709674011
C  C25  1  0.90599000  0.11781000  0.48700000  1.0 0.1502128308
C  C26  1  0.11781000  0.48700000  0.90599000  1.0 0.1502128308
C  C27  1  0.48700000  0.90599000  0.11781000  1.0 0.1502128308
C  C28  1  0.09401000  0.88219000  0.51300000  1.0 0.1502128308
C  C29  1  0.88219000  0.51300000  0.09401000  1.0 0.1502128308
C  C30  1  0.51300000  0.09401000  0.88219000  1.0 0.1502128308
C  C31  1  0.90789000  0.18336000  0.47355000  1.0 0.2220837837
C  C32  1  0.18336000  0.47355000  0.90789000  1.0 0.2220837837
C  C33  1  0.47355000  0.90789000  0.18336000  1.0 0.2220837837
C  C34  1  0.09211000  0.81664000  0.52645000  1.0 0.2220837837
C  C35  1  0.81664000  0.52645000  0.09211000  1.0 0.2220837837
C  C36  1  0.52645000  0.09211000  0.81664000  1.0 0.2220837837
C  C37  1  0.87777000  0.25516000  0.44117000  1.0 0.2220837837
C  C38  1  0.25516000  0.44117000  0.87777000  1.0 0.2220837837
C  C39  1  0.44117000  0.87777000  0.25516000  1.0 0.2220837837
C  C40  1  0.12223000  0.74484000  0.55883000  1.0 0.2220837837
C  C41  1  0.74484000  0.55883000  0.12223000  1.0 0.2220837837
C  C42  1  0.55883000  0.12223000  0.74484000  1.0 0.2220837837
C  C43  1  0.84060000  0.29516000  0.41314000  1.0 0.2282592868
C  C44  1  0.29516000  0.41314000  0.84060000  1.0 0.2282592868
C  C45  1  0.41314000  0.84060000  0.29516000  1.0 0.2282592868
C  C46  1  0.15940000  0.70484000  0.58686000  1.0 0.2282592868
C  C47  1  0.70484000  0.58686000  0.15940000  1.0 0.2282592868
C  C48  1  0.58686000  0.15940000  0.70484000  1.0 0.2282592868
C  C49  1  0.75885000  0.32724000  0.35931000  1.0 0.0927394966
C  C50  1  0.32724000  0.35931000  0.75885000  1.0 0.0927394966
C  C51  1  0.35931000  0.75885000  0.32724000  1.0 0.0927394966
C  C52  1  0.24115000  0.67276000  0.64069000  1.0 0.0927394966
C  C53  1  0.67276000  0.64069000  0.24115000  1.0 0.0927394966
C  C54  1  0.64069000  0.24115000  0.67276000  1.0 0.0927394966
C  C55  1  0.27860000  0.29930000  0.52090000  1.0 -0.641915141
C  C56  1  0.29930000  0.52090000  0.27860000  1.0 -0.641915141
C  C57  1  0.52090000  0.27860000  0.29930000  1.0 -0.641915141
C  C58  1  0.72140000  0.70070000  0.47910000  1.0 -0.641915141
C  C59  1  0.70070000  0.47910000  0.72140000  1.0 -0.641915141
C  C60  1  0.47910000  0.72140000  0.70070000  1.0 -0.641915141
C  C61  1  0.13980000  0.10830000  0.38090000  1.0 -0.3068534022
C  C62  1  0.10830000  0.38090000  0.13980000  1.0 -0.3068534022
C  C63  1  0.38090000  0.13980000  0.10830000  1.0 -0.3068534022
C  C64  1  0.86020000  0.89170000  0.61910000  1.0 -0.3068534022
C  C65  1  0.89170000  0.61910000  0.86020000  1.0 -0.3068534022
C  C66  1  0.61910000  0.86020000  0.89170000  1.0 -0.3068534022
C  C67  1  0.06240000  0.51570000  0.72290000  1.0 -0.1534325524
C  C68  1  0.51570000  0.72290000  0.06240000  1.0 -0.1568831673
C  C69  1  0.72290000  0.06240000  0.51570000  1.0 -0.1534325524
C  C70  1  0.93760000  0.48430000  0.27710000  1.0 -0.1534325524
C  C71  1  0.48430000  0.27710000  0.93760000  1.0 -0.1534325524
C  C72  1  0.27710000  0.93760000  0.48430000  1.0 -0.1534325524
C  C73  1  0.09830000  0.23220000  0.38250000  1.0 -0.6172292019
C  C74  1  0.23220000  0.38250000  0.09830000  1.0 -0.6172292019
C  C75  1  0.38250000  0.09830000  0.23220000  1.0 -0.6172292019
C  C76  1  0.90170000  0.76780000  0.61750000  1.0 -0.6172292019
C  C77  1  0.76780000  0.61750000  0.90170000  1.0 -0.6172292019
C  C78  1  0.61750000  0.90170000  0.76780000  1.0 -0.6172292019
C  C79  1  0.04400000  0.07300000  0.30500000  1.0 -0.3249393488
C  C80  1  0.07300000  0.30500000  0.04400000  1.0 -0.3252245272
C  C81  1  0.30500000  0.04400000  0.07300000  1.0 -0.3252245272
C  C82  1  0.95600000  0.92700000  0.69500000  1.0 -0.3252245272
C  C83  1  0.92700000  0.69500000  0.95600000  1.0 -0.3249393488
C  C84  1  0.69500000  0.95600000  0.92700000  1.0 -0.3249393488
S  S1  1  0.27870000  0.52538000  0.70602000  1.0 0.4275457278
S  S2  1  0.52538000  0.70602000  0.27870000  1.0 0.4275457278
S  S3  1  0.70602000  0.27870000  0.52538000  1.0 0.4275457278
S  S4  1  0.72130000  0.47462000  0.29398000  1.0 0.4275457278
S  S5  1  0.47462000  0.29398000  0.72130000  1.0 0.4275457278
S  S6  1  0.29398000  0.72130000  0.47462000  1.0 0.4275457278
S  S7  1  0.13970000  0.19854000  0.44136000  1.0 0.8169858371
S  S8  1  0.19854000  0.44136000  0.13970000  1.0 0.8169858371
S  S9  1  0.44136000  0.13970000  0.19854000  1.0 0.8169858371
S  S10  1  0.86030000  0.80146000  0.55864000  1.0 0.8169858371
S  S11  1  0.80146000  0.55864000  0.86030000  1.0 0.8169858371
S  S12  1  0.55864000  0.86030000  0.80146000  1.0 0.8169858371
S  S13  1  0.25490000  0.51100000  0.67010000  1.0 0.4032588566
S  S14  1  0.51100000  0.67010000  0.25490000  1.0 0.4032588566
S  S15  1  0.67010000  0.25490000  0.51100000  1.0 0.4032588566
S  S16  1  0.74510000  0.48900000  0.32990000  1.0 0.4032588566
S  S17  1  0.48900000  0.32990000  0.74510000  1.0 0.4032588566
S  S18  1  0.32990000  0.74510000  0.48900000  1.0 0.4032588566
N  N1  1  0.00695000  0.16459000  0.55796000  1.0 -0.2592621977
N  N2  1  0.16459000  0.55796000  0.00695000  1.0 -0.2592621977
N  N3  1  0.55796000  0.00695000  0.16459000  1.0 -0.2592621977
N  N4  1  0.99305000  0.83541000  0.44204000  1.0 -0.2592621977
N  N5  1  0.83541000  0.44204000  0.99305000  1.0 -0.2592621977
N  N6  1  0.44204000  0.99305000  0.83541000  1.0 -0.2592621977
N  N7  1  0.00286000  0.27171000  0.52363000  1.0 -0.2498061953
N  N8  1  0.27171000  0.52363000  0.00286000  1.0 -0.2498061953
N  N9  1  0.52363000  0.00286000  0.27171000  1.0 -0.2498061953
N  N10  1  0.99714000  0.72829000  0.47637000  1.0 -0.2498061953
N  N11  1  0.72829000  0.47637000  0.99714000  1.0 -0.2498061953
N  N12  1  0.47637000  0.99714000  0.72829000  1.0 -0.2498061953
N  N13  1  0.98458000  0.32006000  0.50346000  1.0 -0.2721617008
N  N14  1  0.32006000  0.50346000  0.98458000  1.0 -0.2721617008
N  N15  1  0.50346000  0.98458000  0.32006000  1.0 -0.2721617008
N  N16  1  0.01542000  0.67994000  0.49654000  1.0 -0.2721617008
N  N17  1  0.67994000  0.49654000  0.01542000  1.0 -0.2721617008
N  N18  1  0.49654000  0.01542000  0.67994000  1.0 -0.2721617008
N  N19  1  0.82424000  0.16737000  0.41809000  1.0 -0.3638474777
N  N20  1  0.16737000  0.41809000  0.82424000  1.0 -0.3638474777
N  N21  1  0.41809000  0.82424000  0.16737000  1.0 -0.3638474777
N  N22  1  0.17576000  0.83263000  0.58191000  1.0 -0.3638474777
N  N23  1  0.83263000  0.58191000  0.17576000  1.0 -0.3638474777
N  N24  1  0.58191000  0.17576000  0.83263000  1.0 -0.3638474777
N  N25  1  0.91579000  0.38931000  0.45320000  1.0 -0.2498061953
N  N26  1  0.38931000  0.45320000  0.91579000  1.0 -0.2498061953
N  N27  1  0.45320000  0.91579000  0.38931000  1.0 -0.2498061953
N  N28  1  0.08421000  0.61069000  0.54680000  1.0 -0.2498061953
N  N29  1  0.61069000  0.54680000  0.08421000  1.0 -0.2498061953
N  N30  1  0.54680000  0.08421000  0.61069000  1.0 -0.2498061953
N  N31  1  0.86249000  0.41027000  0.41714000  1.0 -0.2429632927
N  N32  1  0.41027000  0.41714000  0.86249000  1.0 -0.2429632927
N  N33  1  0.41714000  0.86249000  0.41027000  1.0 -0.2429632927
N  N34  1  0.13751000  0.58973000  0.58286000  1.0 -0.2429632927
N  N35  1  0.58973000  0.58286000  0.13751000  1.0 -0.2429632927
N  N36  1  0.58286000  0.13751000  0.58973000  1.0 -0.2429632927
N  N37  1  0.74073000  0.25186000  0.35291000  1.0 -0.3810987706
N  N38  1  0.25186000  0.35291000  0.74073000  1.0 -0.3810987706
N  N39  1  0.35291000  0.74073000  0.25186000  1.0 -0.3810987706
N  N40  1  0.25927000  0.74814000  0.64709000  1.0 -0.3810987706
N  N41  1  0.74814000  0.64709000  0.25927000  1.0 -0.3810987706
N  N42  1  0.64709000  0.25927000  0.74814000  1.0 -0.3810987706
O  O1  1  0.23316000  0.41659000  0.64195000  1.0 -0.1534325524
O  O2  1  0.41659000  0.64195000  0.23316000  1.0 -0.1534325524
O  O3  1  0.64195000  0.23316000  0.41659000  1.0 -0.1534325524
O  O4  1  0.76684000  0.58341000  0.35805000  1.0 -0.1534325524
O  O5  1  0.58341000  0.35805000  0.76684000  1.0 -0.1534325524
O  O6  1  0.35805000  0.76684000  0.58341000  1.0 -0.1534325524
O  O7  1  0.26800000  0.54980000  0.77600000  1.0 -0.2592621977
O  O8  1  0.54980000  0.77600000  0.26800000  1.0 -0.2592621977
O  O9  1  0.77600000  0.26800000  0.54980000  1.0 -0.2592621977
O  O10  1  0.73200000  0.45020000  0.22400000  1.0 -0.2592621977
O  O11  1  0.45020000  0.22400000  0.73200000  1.0 -0.2592621977
O  O12  1  0.22400000  0.73200000  0.45020000  1.0 -0.2592621977
O  O13  1  0.39060000  0.61160000  0.76740000  1.0 -0.1812172095
O  O14  1  0.61160000  0.76740000  0.39060000  1.0 -0.1812172095
O  O15  1  0.76740000  0.39060000  0.61160000  1.0 -0.1812172095
O  O16  1  0.60940000  0.38840000  0.23260000  1.0 -0.1812172095
O  O17  1  0.38840000  0.23260000  0.60940000  1.0 -0.1812172095
O  O18  1  0.23260000  0.60940000  0.38840000  1.0 -0.1812172095
O  O19  1  0.20821000  0.51209000  0.62180000  1.0 -0.0071935139
O  O20  1  0.51209000  0.62180000  0.20821000  1.0 -0.0071935139
O  O21  1  0.62180000  0.20821000  0.51209000  1.0 -0.0071935139
O  O22  1  0.79179000  0.48791000  0.37820000  1.0 -0.0071935139
O  O23  1  0.48791000  0.37820000  0.79179000  1.0 -0.0071935139
O  O24  1  0.37820000  0.79179000  0.48791000  1.0 -0.0071935139
O  O25  1  0.11308000  0.18691000  0.49461000  1.0 -0.5128187522
O  O26  1  0.18691000  0.49461000  0.11308000  1.0 -0.5128187522
O  O27  1  0.49461000  0.11308000  0.18691000  1.0 -0.5128187522
O  O28  1  0.88692000  0.81309000  0.50539000  1.0 -0.5128187522
O  O29  1  0.81309000  0.50539000  0.88692000  1.0 -0.5128187522
O  O30  1  0.50539000  0.88692000  0.81309000  1.0 -0.5128187522
O  O31  1  0.12960000  0.56170000  0.71860000  1.0 -0.4044334973
O  O32  1  0.56170000  0.71860000  0.12960000  1.0 -0.4044334973
O  O33  1  0.71860000  0.12960000  0.56170000  1.0 -0.4044334973
O  O34  1  0.87040000  0.43830000  0.28140000  1.0 -0.4044334973
O  O35  1  0.43830000  0.28140000  0.87040000  1.0 -0.4044334973
O  O36  1  0.28140000  0.87040000  0.43830000  1.0 -0.4044334973
O  O37  1  0.25020000  0.44870000  0.68910000  1.0 -0.0745299468
O  O38  1  0.44870000  0.68910000  0.25020000  1.0 -0.0745299468
O  O39  1  0.68910000  0.25020000  0.44870000  1.0 -0.0745299468
O  O40  1  0.74980000  0.55130000  0.31090000  1.0 -0.0745299468
O  O41  1  0.55130000  0.31090000  0.74980000  1.0 -0.0745299468
O  O42  1  0.31090000  0.74980000  0.55130000  1.0 -0.0745299468
O  O43  1  0.21310000  0.54610000  0.69750000  1.0 -0.1275481219
O  O44  1  0.54610000  0.69750000  0.21310000  1.0 -0.1275481219
O  O45  1  0.69750000  0.21310000  0.54610000  1.0 -0.1275481219
O  O46  1  0.78690000  0.45390000  0.30250000  1.0 -0.1275481219
O  O47  1  0.45390000  0.30250000  0.78690000  1.0 -0.1275481219
O  O48  1  0.30250000  0.78690000  0.45390000  1.0 -0.1275481219
O  O49  1  0.35870000  0.58760000  0.71170000  1.0 -0.1406170661
O  O50  1  0.58760000  0.71170000  0.35870000  1.0 -0.1406170661
O  O51  1  0.71170000  0.35870000  0.58760000  1.0 -0.1406170661
O  O52  1  0.64130000  0.41240000  0.28830000  1.0 -0.1406170661
O  O53  1  0.41240000  0.28830000  0.64130000  1.0 -0.1406170661
O  O54  1  0.28830000  0.64130000  0.41240000  1.0 -0.1406170661
O  O55  1  0.17340000  0.45670000  0.55900000  1.0 -0.1920502121
O  O56  1  0.45670000  0.55900000  0.17340000  1.0 -0.1920502121
O  O57  1  0.55900000  0.17340000  0.45670000  1.0 -0.1920502121
O  O58  1  0.82660000  0.54330000  0.44100000  1.0 -0.1920502121
O  O59  1  0.54330000  0.44100000  0.82660000  1.0 -0.1920502121
O  O60  1  0.44100000  0.82660000  0.54330000  1.0 -0.1920502121
