# DDEC6 charges by PACMAN v1.1 (https://github.com/mtap-research/PACMAN-charge/)
data_RAYMAG_ASR_pacman
_symmetry_space_group_name_H-M   'P 1'
_cell_length_a   10.01960000
_cell_length_b   13.56340000
_cell_length_c   17.58110000
_cell_angle_alpha   71.96800000
_cell_angle_beta   83.62500000
_cell_angle_gamma   78.83300000
_symmetry_Int_Tables_number   1
_chemical_formula_structural   Co3H50C62(NO2)6
_chemical_formula_sum   'Co3 H50 C62 N6 O12'
_cell_volume   2225.55789345
_cell_formula_units_Z   1
loop_
 _symmetry_equiv_pos_site_id
 _symmetry_equiv_pos_as_xyz
  1  'x, y, z'
loop_
 _atom_site_type_symbol
 _atom_site_label
 _atom_site_symmetry_multiplicity
 _atom_site_fract_x
 _atom_site_fract_y
 _atom_site_fract_z
 _atom_site_occupancy
 _atom_site_charge
Co  Co1  1  0.19972000  0.49180000  0.42978000  1.0 0.8409064073
Co  Co2  1  0.80028000  0.50820000  0.57022000  1.0 0.8409064073
Co  Co3  1  0.00000000  0.50000000  0.00000000  1.0 0.6220535297
H  H1  1  0.65190000  0.51240000  0.42550000  1.0 0.1171464472
H  H2  1  0.34810000  0.48760000  0.57450000  1.0 0.1171464472
H  H3  1  0.93180000  0.50760000  0.24490000  1.0 0.1171464472
H  H4  1  0.06820000  0.49240000  0.75510000  1.0 0.1171464472
H  H5  1  0.54500000  0.48560000  0.22080000  1.0 0.1291176282
H  H6  1  0.45500000  0.51440000  0.77920000  1.0 0.1291176282
H  H7  1  0.39240000  0.64090000  0.44030000  1.0 0.1115663052
H  H8  1  0.60760000  0.35910000  0.55970000  1.0 0.1115663052
H  H9  1  0.38910000  0.80460000  0.45120000  1.0 0.1291176282
H  H10  1  0.61090000  0.19540000  0.54880000  1.0 0.1291176282
H  H11  1  0.98510000  0.85460000  0.44740000  1.0 0.1291176282
H  H12  1  0.01490000  0.14540000  0.55260000  1.0 0.1291176282
H  H13  1  0.99900000  0.68940000  0.43700000  1.0 0.0989934549
H  H14  1  0.00100000  0.31060000  0.56300000  1.0 0.0989934549
H  H15  1  0.14510000  0.96050000  0.50950000  1.0 0.1171464472
H  H16  1  0.85490000  0.03950000  0.49050000  1.0 0.1171464472
H  H17  1  0.10730000  0.00720000  0.41990000  1.0 0.1171464472
H  H18  1  0.89270000  0.99280000  0.58010000  1.0 0.1171464472
H  H19  1  0.37330000  0.96630000  0.47350000  1.0 0.1115663052
H  H20  1  0.62670000  0.03370000  0.52650000  1.0 0.1115663052
H  H21  1  0.34440000  0.00080000  0.38220000  1.0 0.1171464472
H  H22  1  0.65560000  0.99920000  0.61780000  1.0 0.1171464472
H  H23  1  0.14070000  0.35210000  0.33120000  1.0 0.1171464472
H  H24  1  0.85930000  0.64790000  0.66880000  1.0 0.1171464472
H  H25  1  0.19000000  0.18100000  0.32800000  1.0 0.1378646602
H  H26  1  0.81000000  0.81900000  0.67200000  1.0 0.1378646602
H  H27  1  0.35940000  0.10100000  0.53760000  1.0 0.1291176282
H  H28  1  0.64060000  0.89900000  0.46240000  1.0 0.1291176282
H  H29  1  0.31090000  0.27410000  0.53430000  1.0 0.1115663052
H  H30  1  0.68910000  0.72590000  0.46570000  1.0 0.1115663052
H  H31  1  0.82950000  0.32260000  0.06370000  1.0 0.1171464472
H  H32  1  0.17050000  0.67740000  0.93630000  1.0 0.1171464472
H  H33  1  0.84010000  0.14820000  0.07810000  1.0 0.1115663052
H  H34  1  0.15990000  0.85180000  0.92190000  1.0 0.1115663052
H  H35  1  0.20950000  0.13990000  0.97030000  1.0 0.1171464472
H  H36  1  0.79050000  0.86010000  0.02970000  1.0 0.1115663052
H  H37  1  0.19230000  0.31390000  0.95800000  1.0 0.1171464472
H  H38  1  0.80770000  0.68610000  0.04200000  1.0 0.1171464472
H  H39  1  0.12650000  0.97600000  0.02520000  1.0 0.089828143
H  H40  1  0.87350000  0.02400000  0.97480000  1.0 0.089828143
H  H41  1  0.99220000  0.97360000  0.07990000  1.0 0.0766323504
H  H42  1  0.00780000  0.02640000  0.92010000  1.0 0.0766323504
H  H43  1  0.02350000  0.35580000  0.89400000  1.0 0.1171464472
H  H44  1  0.97650000  0.64420000  0.10600000  1.0 0.1171464472
H  H45  1  0.03480000  0.18170000  0.90360000  1.0 0.1171464472
H  H46  1  0.96520000  0.81830000  0.09640000  1.0 0.1171464472
H  H47  1  0.99680000  0.28200000  0.12440000  1.0 0.1171464472
H  H48  1  0.00320000  0.71800000  0.87560000  1.0 0.1171464472
H  H49  1  0.00750000  0.10650000  0.13840000  1.0 0.1115663052
H  H50  1  0.99250000  0.89350000  0.86160000  1.0 0.1115663052
C  C1  1  0.57690000  0.49590000  0.32909000  1.0 -0.0114201708
C  C2  1  0.42310000  0.50410000  0.67091000  1.0 -0.0114201708
C  C3  1  0.67500000  0.50837000  0.37372000  1.0 -0.1317744792
C  C4  1  0.32500000  0.49163000  0.62628000  1.0 -0.1317744792
C  C5  1  0.80680000  0.51485000  0.34194000  1.0 -0.0286372499
C  C6  1  0.19320000  0.48515000  0.65806000  1.0 -0.0286372499
C  C7  1  0.84240000  0.50611000  0.26556000  1.0 -0.1317744792
C  C8  1  0.15760000  0.49389000  0.73444000  1.0 -0.135854442
C  C9  1  0.74410000  0.49510000  0.21942000  1.0 -0.0286372499
C  C10  1  0.25590000  0.50490000  0.78058000  1.0 -0.0286372499
C  C11  1  0.61120000  0.49130000  0.25157000  1.0 -0.1048780795
C  C12  1  0.38880000  0.50870000  0.74843000  1.0 -0.1048780795
C  C13  1  0.43530000  0.49027000  0.36512000  1.0 0.5180959065
C  C14  1  0.56470000  0.50973000  0.63488000  1.0 0.5180959065
C  C15  1  0.78140000  0.48840000  0.13579000  1.0 0.5356193442
C  C16  1  0.21860000  0.51160000  0.86421000  1.0 0.5356193442
C  C17  1  0.30880000  0.68470000  0.44122000  1.0 0.0989934549
C  C18  1  0.69120000  0.31530000  0.55878000  1.0 0.0989934549
C  C19  1  0.30750000  0.78360000  0.44770000  1.0 -0.212167174
C  C20  1  0.69250000  0.21640000  0.55230000  1.0 -0.212167174
C  C21  1  0.18620000  0.85160000  0.44909000  1.0 0.1603235934
C  C22  1  0.81380000  0.14840000  0.55091000  1.0 0.1603235934
C  C23  1  0.07010000  0.81290000  0.44560000  1.0 -0.2197126601
C  C24  1  0.92990000  0.18710000  0.55440000  1.0 -0.2197126601
C  C25  1  0.07920000  0.71300000  0.43927000  1.0 0.089828143
C  C26  1  0.92080000  0.28700000  0.56073000  1.0 0.0989934549
C  C27  1  0.17620000  0.96090000  0.45520000  1.0 -0.2417568158
C  C28  1  0.82380000  0.03910000  0.54480000  1.0 -0.2417568158
C  C29  1  0.30700000  0.00630000  0.43430000  1.0 -0.2417568158
C  C30  1  0.69300000  0.99370000  0.56570000  1.0 -0.2417568158
C  C31  1  0.18690000  0.30120000  0.37283000  1.0 0.0989934549
C  C32  1  0.81310000  0.69880000  0.62717000  1.0 0.0989934549
C  C33  1  0.21510000  0.19810000  0.37110000  1.0 -0.212167174
C  C34  1  0.78490000  0.80190000  0.62890000  1.0 -0.212167174
C  C35  1  0.28070000  0.12050000  0.43300000  1.0 0.1504217048
C  C36  1  0.71930000  0.87950000  0.56700000  1.0 0.1504217048
C  C37  1  0.31570000  0.15070000  0.49440000  1.0 -0.230558772
C  C38  1  0.68430000  0.84930000  0.50560000  1.0 -0.230558772
C  C39  1  0.28590000  0.25530000  0.49196000  1.0 0.089828143
C  C40  1  0.71410000  0.74470000  0.50804000  1.0 0.089828143
C  C41  1  0.90730000  0.28630000  0.04410000  1.0 -0.0194968361
C  C42  1  0.09270000  0.71370000  0.95590000  1.0 -0.0194968361
C  C43  1  0.91240000  0.18140000  0.05200000  1.0 -0.0789462369
C  C44  1  0.08760000  0.81860000  0.94800000  1.0 -0.0789462369
C  C45  1  0.12980000  0.17560000  0.98860000  1.0 -0.1068006372
C  C46  1  0.87020000  0.82440000  0.01140000  1.0 -0.1068006372
C  C47  1  0.11920000  0.28030000  0.98240000  1.0 -0.0114201708
C  C48  1  0.88080000  0.71970000  0.01760000  1.0 -0.0114201708
C  C49  1  0.02470000  0.12470000  0.02120000  1.0 0.0766323504
C  C50  1  0.97530000  0.87530000  0.97880000  1.0 0.0766323504
C  C51  1  0.03160000  0.00830000  0.02790000  1.0 -0.2197126601
C  C52  1  0.96840000  0.99170000  0.97210000  1.0 -0.2197126601
C  C53  1  0.91040000  0.53099000  0.39112000  1.0 0.5639591772
C  C54  1  0.08960000  0.46901000  0.60888000  1.0 0.5639591772
C  C55  1  0.02040000  0.30660000  0.94430000  1.0 -0.0286372499
C  C56  1  0.97960000  0.69340000  0.05570000  1.0 -0.0286372499
C  C57  1  0.02760000  0.20080000  0.95050000  1.0 -0.0932494741
C  C58  1  0.97240000  0.79920000  0.04950000  1.0 -0.0932494741
C  C59  1  0.00500000  0.26200000  0.07780000  1.0 0.0069488023
C  C60  1  0.99500000  0.73800000  0.92220000  1.0 0.0069488023
C  C61  1  0.01180000  0.15480000  0.08770000  1.0 -0.1068006372
C  C62  1  0.98820000  0.84520000  0.91230000  1.0 -0.1048780795
N  N1  1  0.19644000  0.64846000  0.43621000  1.0 -0.2417568158
N  N2  1  0.80356000  0.35154000  0.56379000  1.0 -0.2417568158
N  N3  1  0.22351000  0.33046000  0.43229000  1.0 -0.230558772
N  N4  1  0.77649000  0.66954000  0.56771000  1.0 -0.230558772
N  N5  1  0.00910000  0.33774000  0.00969000  1.0 -0.1526118111
N  N6  1  0.99090000  0.66226000  0.99031000  1.0 -0.1526118111
O  O1  1  0.33597000  0.51913000  0.32025000  1.0 -0.53059027
O  O2  1  0.66403000  0.48087000  0.67975000  1.0 -0.53059027
O  O3  1  0.41661000  0.45963000  0.43965000  1.0 -0.5474595766
O  O4  1  0.58339000  0.54037000  0.56035000  1.0 -0.5474595766
O  O5  1  0.90514000  0.47867000  0.11373000  1.0 -0.5937587957
O  O6  1  0.09486000  0.52133000  0.88627000  1.0 -0.5937587957
O  O7  1  0.68499000  0.49750000  0.09192000  1.0 -0.5606718402
O  O8  1  0.31501000  0.50250000  0.90808000  1.0 -0.5606718402
O  O9  1  0.03239000  0.52386000  0.36458000  1.0 -0.5372932892
O  O10  1  0.96761000  0.47614000  0.63542000  1.0 -0.5372932892
O  O11  1  0.86783000  0.55389000  0.45422000  1.0 -0.5706629496
O  O12  1  0.13217000  0.44611000  0.54578000  1.0 -0.5706629496
