# DDEC6 charges by PACMAN v1.1 (https://github.com/mtap-research/PACMAN-charge/)
data_RAYMOV_ASR_pacman
_symmetry_space_group_name_H-M   'P 1'
_cell_length_a   20.09620000
_cell_length_b   20.09620000
_cell_length_c   26.91450000
_cell_angle_alpha   90.00000000
_cell_angle_beta   90.00000000
_cell_angle_gamma   120.00000000
_symmetry_Int_Tables_number   1
_chemical_formula_structural   Mn3H36C66O13
_chemical_formula_sum   'Mn6 H72 C132 O26'
_cell_volume   9413.36365001
_cell_formula_units_Z   2
loop_
 _symmetry_equiv_pos_site_id
 _symmetry_equiv_pos_as_xyz
  1  'x, y, z'
loop_
 _atom_site_type_symbol
 _atom_site_label
 _atom_site_symmetry_multiplicity
 _atom_site_fract_x
 _atom_site_fract_y
 _atom_site_fract_z
 _atom_site_occupancy
 _atom_site_charge
Mn  Mn1  1  0.63278000  0.41613000  0.75000000  1.0 1.1246126067
Mn  Mn2  1  0.78336000  0.36722000  0.75000000  1.0 1.1246126067
Mn  Mn3  1  0.58387000  0.21664000  0.75000000  1.0 1.1246126067
Mn  Mn4  1  0.41613000  0.63278000  0.25000000  1.0 1.1246126067
Mn  Mn5  1  0.21664000  0.58387000  0.25000000  1.0 1.1246126067
Mn  Mn6  1  0.36722000  0.78336000  0.25000000  1.0 1.1246126067
H  H1  1  0.74910000  0.59190000  0.63300000  1.0 0.1297360108
H  H2  1  0.84281000  0.25090000  0.86700000  1.0 0.1297360108
H  H3  1  0.40810000  0.15719000  0.63300000  1.0 0.1297360108
H  H4  1  0.74910000  0.59190000  0.86700000  1.0 0.1297360108
H  H5  1  0.84281000  0.25090000  0.63300000  1.0 0.1297360108
H  H6  1  0.40810000  0.15719000  0.86700000  1.0 0.1297360108
H  H7  1  0.59190000  0.74910000  0.13300000  1.0 0.1297360108
H  H8  1  0.15719000  0.40810000  0.36700000  1.0 0.1297360108
H  H9  1  0.25090000  0.84281000  0.13300000  1.0 0.1297360108
H  H10  1  0.59190000  0.74910000  0.36700000  1.0 0.1297360108
H  H11  1  0.15719000  0.40810000  0.13300000  1.0 0.1297360108
H  H12  1  0.25090000  0.84281000  0.36700000  1.0 0.1297360108
H  H13  1  0.81900000  0.68730000  0.57680000  1.0 0.1158488295
H  H14  1  0.86831000  0.18100000  0.92320000  1.0 0.1158488295
H  H15  1  0.31270000  0.13169000  0.57680000  1.0 0.1158488295
H  H16  1  0.81900000  0.68730000  0.92320000  1.0 0.1158488295
H  H17  1  0.86831000  0.18100000  0.57680000  1.0 0.1158488295
H  H18  1  0.31270000  0.13169000  0.92320000  1.0 0.1158488295
H  H19  1  0.68730000  0.81900000  0.07680000  1.0 0.1158488295
H  H20  1  0.13169000  0.31270000  0.42320000  1.0 0.1158488295
H  H21  1  0.18100000  0.86831000  0.07680000  1.0 0.1158488295
H  H22  1  0.68730000  0.81900000  0.42320000  1.0 0.1158488295
H  H23  1  0.13169000  0.31270000  0.07680000  1.0 0.1158488295
H  H24  1  0.18100000  0.86831000  0.42320000  1.0 0.1158488295
H  H25  1  0.98390000  0.63090000  0.58000000  1.0 0.1158488295
H  H26  1  0.64701000  0.01610000  0.92000000  1.0 0.1158488295
H  H27  1  0.36910000  0.35299000  0.58000000  1.0 0.1158488295
H  H28  1  0.98390000  0.63090000  0.92000000  1.0 0.1158488295
H  H29  1  0.64701000  0.01610000  0.58000000  1.0 0.1158488295
H  H30  1  0.36910000  0.35299000  0.92000000  1.0 0.1158488295
H  H31  1  0.63090000  0.98390000  0.08000000  1.0 0.1158488295
H  H32  1  0.35299000  0.36910000  0.42000000  1.0 0.1158488295
H  H33  1  0.01610000  0.64701000  0.08000000  1.0 0.1158488295
H  H34  1  0.63090000  0.98390000  0.42000000  1.0 0.1158488295
H  H35  1  0.35299000  0.36910000  0.08000000  1.0 0.1158488295
H  H36  1  0.01610000  0.64701000  0.42000000  1.0 0.1158488295
H  H37  1  0.91420000  0.53720000  0.63930000  1.0 0.1297360108
H  H38  1  0.62301000  0.08580000  0.86070000  1.0 0.1297360108
H  H39  1  0.46280000  0.37699000  0.63930000  1.0 0.1297360108
H  H40  1  0.91420000  0.53720000  0.86070000  1.0 0.1297360108
H  H41  1  0.62301000  0.08580000  0.63930000  1.0 0.1297360108
H  H42  1  0.46280000  0.37699000  0.86070000  1.0 0.1297360108
H  H43  1  0.53720000  0.91420000  0.13930000  1.0 0.1297360108
H  H44  1  0.37699000  0.46280000  0.36070000  1.0 0.1297360108
H  H45  1  0.08580000  0.62301000  0.13930000  1.0 0.1297360108
H  H46  1  0.53720000  0.91420000  0.36070000  1.0 0.1297360108
H  H47  1  0.37699000  0.46280000  0.13930000  1.0 0.1297360108
H  H48  1  0.08580000  0.62301000  0.36070000  1.0 0.1297360108
H  H49  1  0.00000000  0.67241000  0.50000000  1.0 0.1131954711
H  H50  1  0.67241000  0.00000000  0.00000000  1.0 0.1131954711
H  H51  1  0.32760000  0.32760000  0.50000000  1.0 0.1131954711
H  H52  1  0.00000000  0.67241000  0.00000000  1.0 0.1131954711
H  H53  1  0.67241000  0.00000000  0.50000000  1.0 0.1131954711
H  H54  1  0.32760000  0.32760000  0.00000000  1.0 0.1131954711
H  H55  1  0.92270000  0.80590000  0.55540000  1.0 0.1158488295
H  H56  1  0.88321000  0.07730000  0.94460000  1.0 0.1158488295
H  H57  1  0.19410000  0.11679000  0.55540000  1.0 0.1158488295
H  H58  1  0.92270000  0.80590000  0.94460000  1.0 0.1158488295
H  H59  1  0.88321000  0.07730000  0.55540000  1.0 0.1158488295
H  H60  1  0.19410000  0.11679000  0.94460000  1.0 0.1158488295
H  H61  1  0.80590000  0.92270000  0.05540000  1.0 0.1158488295
H  H62  1  0.11679000  0.19410000  0.44460000  1.0 0.1158488295
H  H63  1  0.07730000  0.88321000  0.05540000  1.0 0.1158488295
H  H64  1  0.80590000  0.92270000  0.44460000  1.0 0.1158488295
H  H65  1  0.11679000  0.19410000  0.05540000  1.0 0.1158488295
H  H66  1  0.07730000  0.88321000  0.44460000  1.0 0.1158488295
H  H67  1  0.11529000  0.00000000  0.50000000  1.0 0.1158488295
H  H68  1  0.88470000  0.88470000  0.00000000  1.0 0.1158488295
H  H69  1  0.00000000  0.11529000  0.50000000  1.0 0.1158488295
H  H70  1  0.11529000  0.00000000  0.00000000  1.0 0.1158488295
H  H71  1  0.88470000  0.88470000  0.50000000  1.0 0.1158488295
H  H72  1  0.00000000  0.11529000  0.00000000  1.0 0.1158488295
C  C1  1  0.77785000  0.49157000  0.67988000  1.0 0.579288758
C  C2  1  0.71373000  0.22215000  0.82012000  1.0 0.579288758
C  C3  1  0.50843000  0.28627000  0.67988000  1.0 0.579288758
C  C4  1  0.77785000  0.49157000  0.82012000  1.0 0.579288758
C  C5  1  0.71373000  0.22215000  0.67988000  1.0 0.579288758
C  C6  1  0.50843000  0.28627000  0.82012000  1.0 0.579288758
C  C7  1  0.49157000  0.77785000  0.17988000  1.0 0.579288758
C  C8  1  0.28627000  0.50843000  0.32012000  1.0 0.579288758
C  C9  1  0.22215000  0.71373000  0.17988000  1.0 0.579288758
C  C10  1  0.49157000  0.77785000  0.32012000  1.0 0.579288758
C  C11  1  0.28627000  0.50843000  0.17988000  1.0 0.579288758
C  C12  1  0.22215000  0.71373000  0.32012000  1.0 0.579288758
C  C13  1  0.82245000  0.55355000  0.64156000  1.0 -0.0205981928
C  C14  1  0.73111000  0.17755000  0.85844000  1.0 -0.0205981928
C  C15  1  0.44645000  0.26889000  0.64156000  1.0 -0.0205981928
C  C16  1  0.82245000  0.55355000  0.85844000  1.0 -0.0205981928
C  C17  1  0.73111000  0.17755000  0.64156000  1.0 -0.0205981928
C  C18  1  0.44645000  0.26889000  0.85844000  1.0 -0.0205981928
C  C19  1  0.55355000  0.82245000  0.14156000  1.0 -0.0205981928
C  C20  1  0.26889000  0.44645000  0.35844000  1.0 -0.0205981928
C  C21  1  0.17755000  0.73111000  0.14156000  1.0 -0.0205981928
C  C22  1  0.55355000  0.82245000  0.35844000  1.0 -0.0205981928
C  C23  1  0.26889000  0.44645000  0.14156000  1.0 -0.0205981928
C  C24  1  0.17755000  0.73111000  0.35844000  1.0 -0.0205981928
C  C25  1  0.79655000  0.59943000  0.62253000  1.0 -0.0863721654
C  C26  1  0.80289000  0.20345000  0.87747000  1.0 -0.0863721654
C  C27  1  0.40057000  0.19711000  0.62253000  1.0 -0.0863721654
C  C28  1  0.79655000  0.59943000  0.87747000  1.0 -0.0863721654
C  C29  1  0.80289000  0.20345000  0.62253000  1.0 -0.0863721654
C  C30  1  0.40057000  0.19711000  0.87747000  1.0 -0.0863721654
C  C31  1  0.59943000  0.79655000  0.12253000  1.0 -0.0863721654
C  C32  1  0.19711000  0.40057000  0.37747000  1.0 -0.0863721654
C  C33  1  0.20345000  0.80289000  0.12253000  1.0 -0.0863721654
C  C34  1  0.59943000  0.79655000  0.37747000  1.0 -0.0863721654
C  C35  1  0.19711000  0.40057000  0.12253000  1.0 -0.0863721654
C  C36  1  0.20345000  0.80289000  0.37747000  1.0 -0.0863721654
C  C37  1  0.83822000  0.65662000  0.58836000  1.0 -0.150774754
C  C38  1  0.81841000  0.16178000  0.91164000  1.0 -0.150774754
C  C39  1  0.34338000  0.18159000  0.58836000  1.0 -0.150774754
C  C40  1  0.83822000  0.65662000  0.91164000  1.0 -0.150774754
C  C41  1  0.81841000  0.16178000  0.58836000  1.0 -0.150774754
C  C42  1  0.34338000  0.18159000  0.91164000  1.0 -0.150774754
C  C43  1  0.65662000  0.83822000  0.08836000  1.0 -0.150774754
C  C44  1  0.18159000  0.34338000  0.41164000  1.0 -0.150774754
C  C45  1  0.16178000  0.81841000  0.08836000  1.0 -0.150774754
C  C46  1  0.65662000  0.83822000  0.41164000  1.0 -0.150774754
C  C47  1  0.18159000  0.34338000  0.08836000  1.0 -0.150774754
C  C48  1  0.16178000  0.81841000  0.41164000  1.0 -0.150774754
C  C49  1  0.90802000  0.66874000  0.57126000  1.0 0.0663128441
C  C50  1  0.76073000  0.09198000  0.92874000  1.0 0.0663128441
C  C51  1  0.33126000  0.23927000  0.57126000  1.0 0.0663128441
C  C52  1  0.90802000  0.66874000  0.92874000  1.0 0.0663128441
C  C53  1  0.76073000  0.09198000  0.57126000  1.0 0.0663128441
C  C54  1  0.33126000  0.23927000  0.92874000  1.0 0.0663128441
C  C55  1  0.66874000  0.90802000  0.07126000  1.0 0.0663128441
C  C56  1  0.23927000  0.33126000  0.42874000  1.0 0.0663128441
C  C57  1  0.09198000  0.76073000  0.07126000  1.0 0.0663128441
C  C58  1  0.66874000  0.90802000  0.42874000  1.0 0.0663128441
C  C59  1  0.23927000  0.33126000  0.07126000  1.0 0.0663128441
C  C60  1  0.09198000  0.76073000  0.42874000  1.0 0.0663128441
C  C61  1  0.93659000  0.62325000  0.59070000  1.0 -0.150774754
C  C62  1  0.68667000  0.06341000  0.90930000  1.0 -0.150774754
C  C63  1  0.37675000  0.31333000  0.59070000  1.0 -0.1560411846
C  C64  1  0.93659000  0.62325000  0.90930000  1.0 -0.150774754
C  C65  1  0.68667000  0.06341000  0.59070000  1.0 -0.1560411846
C  C66  1  0.37675000  0.31333000  0.90930000  1.0 -0.1560411846
C  C67  1  0.62325000  0.93659000  0.09070000  1.0 -0.1560411846
C  C68  1  0.31333000  0.37675000  0.40930000  1.0 -0.1560411846
C  C69  1  0.06341000  0.68667000  0.09070000  1.0 -0.1560411846
C  C70  1  0.62325000  0.93659000  0.40930000  1.0 -0.1560411846
C  C71  1  0.31333000  0.37675000  0.09070000  1.0 -0.1560411846
C  C72  1  0.06341000  0.68667000  0.40930000  1.0 -0.1560411846
C  C73  1  0.89439000  0.56644000  0.62605000  1.0 -0.0863721654
C  C74  1  0.67206000  0.10561000  0.87395000  1.0 -0.0863721654
C  C75  1  0.43356000  0.32794000  0.62605000  1.0 -0.0863721654
C  C76  1  0.89439000  0.56644000  0.87395000  1.0 -0.0863721654
C  C77  1  0.67206000  0.10561000  0.62605000  1.0 -0.0863721654
C  C78  1  0.43356000  0.32794000  0.87395000  1.0 -0.0863721654
C  C79  1  0.56644000  0.89439000  0.12605000  1.0 -0.0863721654
C  C80  1  0.32794000  0.43356000  0.37395000  1.0 -0.0863721654
C  C81  1  0.10561000  0.67206000  0.12605000  1.0 -0.0863721654
C  C82  1  0.56644000  0.89439000  0.37395000  1.0 -0.0863721654
C  C83  1  0.32794000  0.43356000  0.12605000  1.0 -0.0863721654
C  C84  1  0.10561000  0.67206000  0.37395000  1.0 -0.0863721654
C  C85  1  0.00000000  0.71869000  0.50000000  1.0 -0.1940864552
C  C86  1  0.71869000  0.00000000  0.00000000  1.0 -0.1940864552
C  C87  1  0.28131000  0.28131000  0.50000000  1.0 -0.1940864552
C  C88  1  0.00000000  0.71869000  0.00000000  1.0 -0.1940864552
C  C89  1  0.71869000  0.00000000  0.50000000  1.0 -0.1940864552
C  C90  1  0.28131000  0.28131000  0.00000000  1.0 -0.1940864552
C  C91  1  0.95499000  0.72951000  0.53433000  1.0 0.0821033141
C  C92  1  0.77453000  0.04501000  0.96567000  1.0 0.0821033141
C  C93  1  0.27049000  0.22547000  0.53433000  1.0 0.0821033141
C  C94  1  0.95499000  0.72951000  0.96567000  1.0 0.0821033141
C  C95  1  0.77453000  0.04501000  0.53433000  1.0 0.0821033141
C  C96  1  0.27049000  0.22547000  0.96567000  1.0 0.0821033141
C  C97  1  0.72951000  0.95499000  0.03433000  1.0 0.0821033141
C  C98  1  0.22547000  0.27049000  0.46567000  1.0 0.0821033141
C  C99  1  0.04501000  0.77453000  0.03433000  1.0 0.0821033141
C  C100  1  0.72951000  0.95499000  0.46567000  1.0 0.0821033141
C  C101  1  0.22547000  0.27049000  0.03433000  1.0 0.0821033141
C  C102  1  0.04501000  0.77453000  0.46567000  1.0 0.0821033141
C  C103  1  0.95415000  0.79852000  0.53343000  1.0 -0.1976927597
C  C104  1  0.84438000  0.04585000  0.96657000  1.0 -0.1976927597
C  C105  1  0.20148000  0.15562000  0.53343000  1.0 -0.1976927597
C  C106  1  0.95415000  0.79852000  0.96657000  1.0 -0.1976927597
C  C107  1  0.84438000  0.04585000  0.53343000  1.0 -0.1976927597
C  C108  1  0.20148000  0.15562000  0.96657000  1.0 -0.1976927597
C  C109  1  0.79852000  0.95415000  0.03343000  1.0 -0.1976927597
C  C110  1  0.15562000  0.20148000  0.46657000  1.0 -0.1976927597
C  C111  1  0.04585000  0.84438000  0.03343000  1.0 -0.1976927597
C  C112  1  0.79852000  0.95415000  0.46657000  1.0 -0.1976927597
C  C113  1  0.15562000  0.20148000  0.03343000  1.0 -0.1976927597
C  C114  1  0.04585000  0.84438000  0.46657000  1.0 -0.1976927597
C  C115  1  0.00000000  0.85655000  0.50000000  1.0 0.0821033141
C  C116  1  0.85655000  0.00000000  0.00000000  1.0 0.0821033141
C  C117  1  0.14344000  0.14344000  0.50000000  1.0 0.0821033141
C  C118  1  0.00000000  0.85655000  0.00000000  1.0 0.0821033141
C  C119  1  0.85655000  0.00000000  0.50000000  1.0 0.0821033141
C  C120  1  0.14344000  0.14344000  0.00000000  1.0 0.0821033141
C  C121  1  0.00000000  0.92988000  0.50000000  1.0 0.0821033141
C  C122  1  0.92988000  0.00000000  0.00000000  1.0 0.0821033141
C  C123  1  0.07011000  0.07011000  0.50000000  1.0 0.0821033141
C  C124  1  0.00000000  0.92988000  0.00000000  1.0 0.0821033141
C  C125  1  0.92988000  0.00000000  0.50000000  1.0 0.0821033141
C  C126  1  0.07011000  0.07011000  0.00000000  1.0 0.0821033141
C  C127  1  0.06897000  0.00000000  0.50000000  1.0 -0.1976927597
C  C128  1  0.93102000  0.93102000  0.00000000  1.0 -0.1976927597
C  C129  1  0.00000000  0.06897000  0.50000000  1.0 -0.1976927597
C  C130  1  0.06897000  0.00000000  0.00000000  1.0 -0.1976927597
C  C131  1  0.93102000  0.93102000  0.50000000  1.0 -0.1976927597
C  C132  1  0.00000000  0.06897000  0.00000000  1.0 -0.1976927597
O  O1  1  0.71583000  0.48497000  0.69350000  1.0 -0.5285405893
O  O2  1  0.76915000  0.28417000  0.80650000  1.0 -0.5285405893
O  O3  1  0.51503000  0.23085000  0.69350000  1.0 -0.5285405893
O  O4  1  0.71583000  0.48497000  0.80650000  1.0 -0.5285405893
O  O5  1  0.76915000  0.28417000  0.69350000  1.0 -0.5285405893
O  O6  1  0.51503000  0.23085000  0.80650000  1.0 -0.5285405893
O  O7  1  0.48497000  0.71583000  0.19350000  1.0 -0.5285405893
O  O8  1  0.23085000  0.51503000  0.30650000  1.0 -0.5285405893
O  O9  1  0.28417000  0.76915000  0.19350000  1.0 -0.5285405893
O  O10  1  0.48497000  0.71583000  0.30650000  1.0 -0.5285405893
O  O11  1  0.23085000  0.51503000  0.19350000  1.0 -0.5285405893
O  O12  1  0.28417000  0.76915000  0.30650000  1.0 -0.5285405893
O  O13  1  0.80679000  0.45252000  0.69355000  1.0 -0.5285405893
O  O14  1  0.64574000  0.19321000  0.80645000  1.0 -0.5285405893
O  O15  1  0.54748000  0.35426000  0.69355000  1.0 -0.5285405893
O  O16  1  0.80679000  0.45252000  0.80645000  1.0 -0.5285405893
O  O17  1  0.64574000  0.19321000  0.69355000  1.0 -0.5285405893
O  O18  1  0.54748000  0.35426000  0.80645000  1.0 -0.5285405893
O  O19  1  0.45252000  0.80679000  0.19355000  1.0 -0.5285405893
O  O20  1  0.35426000  0.54748000  0.30645000  1.0 -0.5285405893
O  O21  1  0.19321000  0.64574000  0.19355000  1.0 -0.5285405893
O  O22  1  0.45252000  0.80679000  0.30645000  1.0 -0.5285405893
O  O23  1  0.35426000  0.54748000  0.19355000  1.0 -0.5285405893
O  O24  1  0.19321000  0.64574000  0.30645000  1.0 -0.5285405893
O  O25  1  0.66666667  0.33333333  0.75000000  1.0 -0.8637393344
O  O26  1  0.33333333  0.66666667  0.25000000  1.0 -0.8660581935
