# DDEC6 charges by PACMAN v1.1 (https://github.com/mtap-research/PACMAN-charge/)
data_RAZJIM_ion_pacman
_symmetry_space_group_name_H-M   'P 1'
_cell_length_a   9.86180000
_cell_length_b   11.70500000
_cell_length_c   17.55770000
_cell_angle_alpha   78.36600000
_cell_angle_beta   84.12000000
_cell_angle_gamma   84.76900000
_symmetry_Int_Tables_number   1
_chemical_formula_structural   AgH8C10S6N2(OF)3
_chemical_formula_sum   'Ag4 H32 C40 S24 N8 O12 F12'
_cell_volume   1969.46694285
_cell_formula_units_Z   4
loop_
 _symmetry_equiv_pos_site_id
 _symmetry_equiv_pos_as_xyz
  1  'x, y, z'
loop_
 _atom_site_type_symbol
 _atom_site_label
 _atom_site_symmetry_multiplicity
 _atom_site_fract_x
 _atom_site_fract_y
 _atom_site_fract_z
 _atom_site_occupancy
 _atom_site_charge
Ag  Ag1  1  0.43070000  0.11595000  0.93473000  1.0 0.3146219269
Ag  Ag2  1  0.56930000  0.88405000  0.06527000  1.0 0.3146219269
Ag  Ag3  1  0.24097000  0.09975000  0.52075000  1.0 0.5324297563
Ag  Ag4  1  0.75903000  0.90025000  0.47925000  1.0 0.5357056872
H  H1  1  0.24800000  0.28700000  0.77200000  1.0 0.1464662121
H  H2  1  0.75200000  0.71300000  0.22800000  1.0 0.1464662121
H  H3  1  0.12800000  0.29700000  0.83800000  1.0 0.1217207229
H  H4  1  0.87200000  0.70300000  0.16200000  1.0 0.1217207229
H  H5  1  0.04400000  0.37100000  0.71800000  1.0 0.1583403923
H  H6  1  0.95600000  0.62900000  0.28200000  1.0 0.1583403923
H  H7  1  0.96500000  0.26700000  0.75600000  1.0 0.1401792855
H  H8  1  0.03500000  0.73300000  0.24400000  1.0 0.1401792855
H  H9  1  0.88300000  0.83300000  0.78000000  1.0 0.1217207229
H  H10  1  0.11700000  0.16700000  0.22000000  1.0 0.1217207229
H  H11  1  0.00400000  0.75700000  0.75300000  1.0 0.1401792855
H  H12  1  0.99600000  0.24300000  0.24700000  1.0 0.1401792855
H  H13  1  0.10100000  0.92200000  0.68000000  1.0 0.1401792855
H  H14  1  0.89900000  0.07800000  0.32000000  1.0 0.1401792855
H  H15  1  0.99200000  0.00100000  0.71000000  1.0 0.1401792855
H  H16  1  0.00800000  0.99900000  0.29000000  1.0 0.1401792855
H  H17  1  0.45600000  0.92100000  0.78000000  1.0 0.133843796
H  H18  1  0.54400000  0.07900000  0.22000000  1.0 0.133843796
H  H19  1  0.37100000  0.81000000  0.79000000  1.0 0.1217207229
H  H20  1  0.62900000  0.19000000  0.21000000  1.0 0.1217207229
H  H21  1  0.51100000  0.74700000  0.68900000  1.0 0.133843796
H  H22  1  0.48900000  0.25300000  0.31100000  1.0 0.133843796
H  H23  1  0.59400000  0.85300000  0.67900000  1.0 0.1401792855
H  H24  1  0.40600000  0.14700000  0.32100000  1.0 0.1401792855
H  H25  1  0.75000000  0.39300000  0.70700000  1.0 0.1019676791
H  H26  1  0.25000000  0.60700000  0.29300000  1.0 0.1019676791
H  H27  1  0.83800000  0.49000000  0.65200000  1.0 0.1401792855
H  H28  1  0.16200000  0.51000000  0.34800000  1.0 0.1401792855
H  H29  1  0.55900000  0.51900000  0.65500000  1.0 0.1401792855
H  H30  1  0.44100000  0.48100000  0.34500000  1.0 0.1401792855
H  H31  1  0.64900000  0.46600000  0.59300000  1.0 0.1464662121
H  H32  1  0.35100000  0.53400000  0.40700000  1.0 0.1464662121
C  C1  1  0.79550000  0.06050000  0.95860000  1.0 -0.0257666747
C  C2  1  0.20450000  0.93950000  0.04140000  1.0 -0.0257666747
C  C3  1  0.02910000  0.06260000  0.87480000  1.0 -0.0896096158
C  C4  1  0.97090000  0.93740000  0.12520000  1.0 -0.0896096158
C  C5  1  0.98540000  0.95420000  0.87890000  1.0 -0.0970716833
C  C6  1  0.01460000  0.04580000  0.12110000  1.0 -0.0970716833
C  C7  1  0.15640000  0.25970000  0.79480000  1.0 -0.1702219251
C  C8  1  0.84360000  0.74030000  0.20520000  1.0 -0.1702219251
C  C9  1  0.05190000  0.29130000  0.73450000  1.0 -0.2502952463
C  C10  1  0.94810000  0.70870000  0.26550000  1.0 -0.2502952463
C  C11  1  0.08970000  0.23840000  0.66640000  1.0 0.3501461611
C  C12  1  0.91030000  0.76160000  0.33360000  1.0 0.3501461611
C  C13  1  0.97820000  0.82900000  0.76350000  1.0 -0.1702219251
C  C14  1  0.02180000  0.17100000  0.23650000  1.0 -0.1702219251
C  C15  1  0.01070000  0.92720000  0.69520000  1.0 -0.2502952463
C  C16  1  0.98930000  0.07280000  0.30480000  1.0 -0.2502952463
C  C17  1  0.93400000  0.92420000  0.62860000  1.0 0.380862476
C  C18  1  0.06600000  0.07580000  0.37140000  1.0 0.380862476
C  C19  1  0.42720000  0.42000000  0.90660000  1.0 -0.015215237
C  C20  1  0.57280000  0.58000000  0.09340000  1.0 -0.015215237
C  C21  1  0.53630000  0.61750000  0.85190000  1.0 -0.0970716833
C  C22  1  0.46370000  0.38250000  0.14810000  1.0 -0.0970716833
C  C23  1  0.61310000  0.53820000  0.81650000  1.0 -0.0896096158
C  C24  1  0.38690000  0.46180000  0.18350000  1.0 -0.0896096158
C  C25  1  0.45660000  0.83980000  0.77470000  1.0 -0.1702219251
C  C26  1  0.54340000  0.16020000  0.22530000  1.0 -0.1702219251
C  C27  1  0.50990000  0.82560000  0.69220000  1.0 -0.2449405476
C  C28  1  0.49010000  0.17440000  0.30780000  1.0 -0.2449405476
C  C29  1  0.42280000  0.89430000  0.63410000  1.0 0.3729080574
C  C30  1  0.57720000  0.10570000  0.36590000  1.0 0.3729080574
C  C31  1  0.75730000  0.48090000  0.68250000  1.0 -0.1809418439
C  C32  1  0.24270000  0.51910000  0.31750000  1.0 -0.1809418439
C  C33  1  0.64420000  0.51830000  0.62760000  1.0 -0.2558745726
C  C34  1  0.35580000  0.48170000  0.37240000  1.0 -0.2558745726
C  C35  1  0.65830000  0.63490000  0.57950000  1.0 0.3501461611
C  C36  1  0.34170000  0.36510000  0.42050000  1.0 0.3501461611
C  C37  1  0.60250000  0.18400000  0.66150000  1.0 0.4950295405
C  C38  1  0.39750000  0.81600000  0.33850000  1.0 0.4950295405
C  C39  1  0.22740000  0.62510000  0.58450000  1.0 0.4950295405
C  C40  1  0.77260000  0.37490000  0.41550000  1.0 0.494472237
S  S1  1  0.82942000  0.92743000  0.93279000  1.0 0.1583403923
S  S2  1  0.17058000  0.07257000  0.06721000  1.0 0.1583403923
S  S3  1  0.92174000  0.15501000  0.92474000  1.0 0.1936791853
S  S4  1  0.07826000  0.84499000  0.07526000  1.0 0.1957485394
S  S5  1  0.65656000  0.09632000  0.01522000  1.0 -0.2001287921
S  S6  1  0.34344000  0.90368000  0.98478000  1.0 -0.2001287921
S  S7  1  0.18892000  0.10378000  0.82984000  1.0 0.0519943663
S  S8  1  0.81108000  0.89622000  0.17016000  1.0 0.0576108151
S  S9  1  0.07723000  0.83781000  0.84374000  1.0 0.1069994585
S  S10  1  0.92277000  0.16219000  0.15626000  1.0 0.1069994585
S  S11  1  0.56559000  0.39424000  0.84337000  1.0 0.2087845222
S  S12  1  0.43441000  0.60576000  0.15663000  1.0 0.2087845222
S  S13  1  0.40018000  0.56344000  0.91645000  1.0 0.1786820904
S  S14  1  0.59982000  0.43656000  0.08355000  1.0 0.1786820904
S  S15  1  0.32999000  0.31487000  0.95657000  1.0 -0.2102928444
S  S16  1  0.67001000  0.68513000  0.04343000  1.0 -0.2102928444
S  S17  1  0.57273000  0.76378000  0.84528000  1.0 0.0708849297
S  S18  1  0.42727000  0.23622000  0.15472000  1.0 0.0708849297
S  S19  1  0.76301000  0.56997000  0.75576000  1.0 0.0708849297
S  S20  1  0.23699000  0.43003000  0.24424000  1.0 0.0708849297
S  S21  1  0.65169000  0.11405000  0.75799000  1.0 0.9841457025
S  S22  1  0.34831000  0.88595000  0.24201000  1.0 0.9866574422
S  S23  1  0.21999000  0.58665000  0.69032000  1.0 0.9866574422
S  S24  1  0.78001000  0.41335000  0.30968000  1.0 0.9841457025
N  N1  1  0.11910000  0.19390000  0.61450000  1.0 -0.3998158359
N  N2  1  0.88090000  0.80610000  0.38550000  1.0 -0.3998158359
N  N3  1  0.87520000  0.92200000  0.57690000  1.0 -0.3998158359
N  N4  1  0.12480000  0.07800000  0.42310000  1.0 -0.3998158359
N  N5  1  0.35660000  0.95110000  0.59020000  1.0 -0.3998158359
N  N6  1  0.64340000  0.04890000  0.40980000  1.0 -0.3998158359
N  N7  1  0.66760000  0.72570000  0.54260000  1.0 -0.3935293242
N  N8  1  0.33240000  0.27430000  0.45740000  1.0 -0.3935293242
O  O1  1  0.52220000  0.11270000  0.80480000  1.0 -0.54024425
O  O2  1  0.47780000  0.88730000  0.19520000  1.0 -0.54024425
O  O3  1  0.70920000  0.00090000  0.74800000  1.0 -0.5343257173
O  O4  1  0.29080000  0.99910000  0.25200000  1.0 -0.5343257173
O  O5  1  0.74500000  0.19130000  0.77510000  1.0 -0.562566547
O  O6  1  0.25500000  0.80870000  0.22490000  1.0 -0.562566547
O  O7  1  0.25810000  0.69030000  0.71170000  1.0 -0.5490107719
O  O8  1  0.07890000  0.56400000  0.71150000  1.0 -0.5490107719
O  O9  1  0.31570000  0.48700000  0.70500000  1.0 -0.5490107719
O  O10  1  0.74190000  0.30970000  0.28830000  1.0 -0.5490107719
O  O11  1  0.92110000  0.43600000  0.28850000  1.0 -0.5490107719
O  O12  1  0.68430000  0.51300000  0.29500000  1.0 -0.5490107719
F  F1  1  0.71270000  0.20980000  0.61320000  1.0 -0.1809418439
F  F2  1  0.28730000  0.79020000  0.38680000  1.0 -0.1809418439
F  F3  1  0.52780000  0.28340000  0.66430000  1.0 -0.1702219251
F  F4  1  0.47220000  0.71660000  0.33570000  1.0 -0.1702219251
F  F5  1  0.53000000  0.11560000  0.63330000  1.0 -0.185859768
F  F6  1  0.47000000  0.88440000  0.36670000  1.0 -0.185859768
F  F7  1  0.18760000  0.53930000  0.55490000  1.0 -0.1809418439
F  F8  1  0.35260000  0.64560000  0.55300000  1.0 -0.1809418439
F  F9  1  0.14670000  0.72040000  0.56120000  1.0 -0.1809418439
F  F10  1  0.81240000  0.46070000  0.44510000  1.0 -0.1809418439
F  F11  1  0.64740000  0.35440000  0.44700000  1.0 -0.1809418439
F  F12  1  0.85330000  0.27960000  0.43880000  1.0 -0.1809418439
