# DDEC6 charges by PACMAN v1.1 (https://github.com/mtap-research/PACMAN-charge/)
data_RAZXIA04_FSR_pacman
_symmetry_space_group_name_H-M   'P 1'
_cell_length_a   17.57960000
_cell_length_b   17.57960000
_cell_length_c   17.57960000
_cell_angle_alpha   137.96100000
_cell_angle_beta   137.96100000
_cell_angle_gamma   60.96290000
_symmetry_Int_Tables_number   1
_chemical_formula_structural   KCo3H8(C2O3)6
_chemical_formula_sum   'K4 Co12 H32 C48 O72'
_cell_volume   2409.45142493
_cell_formula_units_Z   4
loop_
 _symmetry_equiv_pos_site_id
 _symmetry_equiv_pos_as_xyz
  1  'x, y, z'
loop_
 _atom_site_type_symbol
 _atom_site_label
 _atom_site_symmetry_multiplicity
 _atom_site_fract_x
 _atom_site_fract_y
 _atom_site_fract_z
 _atom_site_occupancy
 _atom_site_charge
K  K1  1  0.20250000  0.12500000  0.57750000  1.0 0.7618862562
K  K2  1  0.87500000  0.45250000  0.07750000  1.0 0.7618862562
K  K3  1  0.54750000  0.62500000  0.42250000  1.0 0.7618862562
K  K4  1  0.37500000  0.79750000  0.92250000  1.0 0.7618862562
Co  Co1  1  0.40673000  0.35388000  0.84153000  1.0 0.9428982906
Co  Co2  1  0.64612000  0.48765000  0.05285000  1.0 0.9428982906
Co  Co3  1  0.51235000  0.56520000  0.15847000  1.0 0.9428982906
Co  Co4  1  0.43480000  0.59327000  0.94715000  1.0 0.9428982906
Co  Co5  1  0.23765000  0.89612000  0.55285000  1.0 0.9428982906
Co  Co6  1  0.31520000  0.76235000  0.65847000  1.0 0.9428982906
Co  Co7  1  0.34327000  0.68480000  0.44715000  1.0 0.9428982906
Co  Co8  1  0.10388000  0.65673000  0.34153000  1.0 0.9428982906
Co  Co9  1  0.30964000  0.30964000  0.00000000  1.0 0.9725126646
Co  Co10  1  0.69036000  0.69036000  0.00000000  1.0 0.9725126646
Co  Co11  1  0.44036000  0.94036000  0.50000000  1.0 0.9725126646
Co  Co12  1  0.05964000  0.55964000  0.50000000  1.0 0.9725126646
H  H1  1  0.27850000  0.64510000  0.08220000  1.0 0.1592795498
H  H2  1  0.35490000  0.43710000  0.63340000  1.0 0.1592795498
H  H3  1  0.56290000  0.19630000  0.91780000  1.0 0.1592795498
H  H4  1  0.80370000  0.72150000  0.36660000  1.0 0.1592795498
H  H5  1  0.18710000  0.60490000  0.13340000  1.0 0.1592795498
H  H6  1  0.94630000  0.81290000  0.41780000  1.0 0.1592795498
H  H7  1  0.47150000  0.05370000  0.86660000  1.0 0.1592795498
H  H8  1  0.39510000  0.52850000  0.58220000  1.0 0.1592795498
H  H9  1  0.16500000  0.55860000  0.93720000  1.0 0.1530156307
H  H10  1  0.44140000  0.37860000  0.60640000  1.0 0.1530156307
H  H11  1  0.62140000  0.22780000  0.06280000  1.0 0.1530156307
H  H12  1  0.77220000  0.83500000  0.39360000  1.0 0.1530156307
H  H13  1  0.12860000  0.69140000  0.10640000  1.0 0.1530156307
H  H14  1  0.97780000  0.87140000  0.56280000  1.0 0.1530156307
H  H15  1  0.58500000  0.02220000  0.89360000  1.0 0.1530156307
H  H16  1  0.30860000  0.41500000  0.43720000  1.0 0.1530156307
H  H17  1  0.25970000  0.69430000  0.97280000  1.0 0.1592795498
H  H18  1  0.30570000  0.27850000  0.56540000  1.0 0.1592795498
H  H19  1  0.72150000  0.28690000  0.02720000  1.0 0.1592795498
H  H20  1  0.71310000  0.74030000  0.43460000  1.0 0.1592795498
H  H21  1  0.02850000  0.55570000  0.06540000  1.0 0.1592795498
H  H22  1  0.03690000  0.97150000  0.52720000  1.0 0.1592795498
H  H23  1  0.49030000  0.96310000  0.93460000  1.0 0.1592795498
H  H24  1  0.44430000  0.50970000  0.47280000  1.0 0.1592795498
H  H25  1  0.13690000  0.63820000  0.85630000  1.0 0.1690717325
H  H26  1  0.36180000  0.21810000  0.49870000  1.0 0.1690717325
H  H27  1  0.78190000  0.28060000  0.14370000  1.0 0.1690717325
H  H28  1  0.71940000  0.86310000  0.50130000  1.0 0.1690717325
H  H29  1  0.96810000  0.61180000  0.99870000  1.0 0.1690717325
H  H30  1  0.03060000  0.03190000  0.64370000  1.0 0.1690717325
H  H31  1  0.61310000  0.96940000  0.00130000  1.0 0.1690717325
H  H32  1  0.38820000  0.38690000  0.35630000  1.0 0.1690717325
C  C1  1  0.29310000  0.48830000  0.02380000  1.0 0.6609986148
C  C2  1  0.51170000  0.53550000  0.80480000  1.0 0.6609986148
C  C3  1  0.46450000  0.26930000  0.97620000  1.0 0.6609986148
C  C4  1  0.73070000  0.70690000  0.19520000  1.0 0.6609986148
C  C5  1  0.28550000  0.76170000  0.30480000  1.0 0.6609986148
C  C6  1  0.01930000  0.71450000  0.47620000  1.0 0.6609986148
C  C7  1  0.45690000  0.98070000  0.69520000  1.0 0.6609986148
C  C8  1  0.23830000  0.54310000  0.52380000  1.0 0.6609986148
C  C9  1  0.24410000  0.56720000  0.99190000  1.0 -0.4301038511
C  C10  1  0.43280000  0.42470000  0.67690000  1.0 -0.4301038511
C  C11  1  0.57530000  0.25220000  0.00810000  1.0 -0.4301038511
C  C12  1  0.74780000  0.75590000  0.32310000  1.0 -0.4301038511
C  C13  1  0.17470000  0.68280000  0.17690000  1.0 -0.4301038511
C  C14  1  0.00220000  0.82530000  0.50810000  1.0 -0.4301038511
C  C15  1  0.50590000  0.99780000  0.82310000  1.0 -0.4301038511
C  C16  1  0.31720000  0.49410000  0.49190000  1.0 -0.4301038511
C  C17  1  0.25410000  0.53320000  0.88870000  1.0 0.2901356987
C  C18  1  0.46680000  0.35550000  0.72090000  1.0 0.2901356987
C  C19  1  0.64450000  0.36540000  0.11130000  1.0 0.2901356987
C  C20  1  0.63460000  0.74590000  0.27910000  1.0 0.2901356987
C  C21  1  0.10550000  0.71680000  0.22090000  1.0 0.2901356987
C  C22  1  0.11540000  0.89450000  0.61130000  1.0 0.2901356987
C  C23  1  0.49590000  0.88460000  0.77910000  1.0 0.2901356987
C  C24  1  0.28320000  0.50410000  0.38870000  1.0 0.2901356987
C  C25  1  0.20750000  0.62660000  0.87910000  1.0 -0.4483372398
C  C26  1  0.37340000  0.25250000  0.58090000  1.0 -0.4483372398
C  C27  1  0.74750000  0.32840000  0.12090000  1.0 -0.4483372398
C  C28  1  0.67160000  0.79250000  0.41910000  1.0 -0.4483372398
C  C29  1  0.00250000  0.62340000  0.08090000  1.0 -0.4483372398
C  C30  1  0.07840000  0.99750000  0.62090000  1.0 -0.4483372398
C  C31  1  0.54250000  0.92160000  0.91910000  1.0 -0.4483372398
C  C32  1  0.37660000  0.45750000  0.37910000  1.0 -0.4483372398
C  C33  1  0.18970000  0.60490000  0.76780000  1.0 0.6535437278
C  C34  1  0.39510000  0.16290000  0.58480000  1.0 0.6535437278
C  C35  1  0.83710000  0.42190000  0.23220000  1.0 0.6535437278
C  C36  1  0.57810000  0.81030000  0.41520000  1.0 0.6535437278
C  C37  1  0.91290000  0.64510000  0.08480000  1.0 0.6535437278
C  C38  1  0.17190000  0.08710000  0.73220000  1.0 0.6535437278
C  C39  1  0.56030000  0.82810000  0.91520000  1.0 0.6535437278
C  C40  1  0.35490000  0.43970000  0.26780000  1.0 0.6535437278
C  C41  1  0.17990000  0.41430000  0.72980000  1.0 0.5149941616
C  C42  1  0.58570000  0.31550000  0.76560000  1.0 0.5152908735
C  C43  1  0.68450000  0.45010000  0.27020000  1.0 0.5152908735
C  C44  1  0.54990000  0.82010000  0.23440000  1.0 0.5152908735
C  C45  1  0.06550000  0.83570000  0.26560000  1.0 0.5149941616
C  C46  1  0.20010000  0.93450000  0.77020000  1.0 0.5152908735
C  C47  1  0.57010000  0.79990000  0.73440000  1.0 0.5152908735
C  C48  1  0.16430000  0.42990000  0.22980000  1.0 0.5152908735
O  O1  1  0.40100000  0.50190000  0.12070000  1.0 -0.617550641
O  O2  1  0.49810000  0.61880000  0.89910000  1.0 -0.617550641
O  O3  1  0.38120000  0.28030000  0.87930000  1.0 -0.617550641
O  O4  1  0.71970000  0.59900000  0.10090000  1.0 -0.617550641
O  O5  1  0.36880000  0.74810000  0.39910000  1.0 -0.617550641
O  O6  1  0.03030000  0.63120000  0.37930000  1.0 -0.617550641
O  O7  1  0.34900000  0.96970000  0.60090000  1.0 -0.6147970982
O  O8  1  0.25190000  0.65100000  0.62070000  1.0 -0.617550641
O  O9  1  0.23030000  0.41490000  0.95980000  1.0 -0.5443042942
O  O10  1  0.58510000  0.54490000  0.81540000  1.0 -0.5443042942
O  O11  1  0.45510000  0.27050000  0.04020000  1.0 -0.5443042942
O  O12  1  0.72950000  0.76970000  0.18460000  1.0 -0.5443042942
O  O13  1  0.29490000  0.83510000  0.31540000  1.0 -0.5443042942
O  O14  1  0.02050000  0.70510000  0.54020000  1.0 -0.5443042942
O  O15  1  0.51970000  0.97950000  0.68460000  1.0 -0.5443042942
O  O16  1  0.16490000  0.48030000  0.45980000  1.0 -0.5443042942
O  O17  1  0.36940000  0.53130000  0.95770000  1.0 -0.6456258551
O  O18  1  0.46870000  0.42640000  0.83810000  1.0 -0.6456258551
O  O19  1  0.57360000  0.41170000  0.04230000  1.0 -0.6456258551
O  O20  1  0.58830000  0.63060000  0.16190000  1.0 -0.6456258551
O  O21  1  0.17640000  0.71870000  0.33810000  1.0 -0.6442494817
O  O22  1  0.16170000  0.82360000  0.54230000  1.0 -0.6456258551
O  O23  1  0.38060000  0.83830000  0.66190000  1.0 -0.6456258551
O  O24  1  0.28130000  0.61940000  0.45770000  1.0 -0.6456258551
O  O25  1  0.23070000  0.33200000  0.68610000  1.0 -0.617550641
O  O26  1  0.66800000  0.35410000  0.89870000  1.0 -0.617550641
O  O27  1  0.64590000  0.54460000  0.31390000  1.0 -0.617550641
O  O28  1  0.45540000  0.76930000  0.10130000  1.0 -0.617550641
O  O29  1  0.10410000  0.91800000  0.39870000  1.0 -0.617550641
O  O30  1  0.29460000  0.89590000  0.81390000  1.0 -0.617550641
O  O31  1  0.51930000  0.70540000  0.60130000  1.0 -0.617550641
O  O32  1  0.08200000  0.48070000  0.18610000  1.0 -0.617550641
O  O33  1  0.07730000  0.41130000  0.65480000  1.0 -0.4845769458
O  O34  1  0.58870000  0.24350000  0.66600000  1.0 -0.4845769458
O  O35  1  0.75650000  0.42250000  0.34520000  1.0 -0.4845769458
O  O36  1  0.57750000  0.92270000  0.33400000  1.0 -0.4845769458
O  O37  1  0.99350000  0.83870000  0.16600000  1.0 -0.4845769458
O  O38  1  0.17250000  0.00650000  0.84520000  1.0 -0.4845769458
O  O39  1  0.67270000  0.82750000  0.83400000  1.0 -0.4845769458
O  O40  1  0.16130000  0.32730000  0.15480000  1.0 -0.4845769458
O  O41  1  0.27640000  0.58630000  0.77810000  1.0 -0.617550641
O  O42  1  0.41370000  0.19180000  0.69010000  1.0 -0.617550641
O  O43  1  0.80820000  0.49830000  0.22190000  1.0 -0.617550641
O  O44  1  0.50170000  0.72360000  0.30990000  1.0 -0.617550641
O  O45  1  0.94180000  0.66370000  0.19010000  1.0 -0.617550641
O  O46  1  0.24830000  0.05820000  0.72190000  1.0 -0.617550641
O  O47  1  0.47360000  0.75170000  0.80990000  1.0 -0.617550641
O  O48  1  0.33630000  0.52640000  0.27810000  1.0 -0.617550641
O  O49  1  0.09120000  0.60300000  0.66360000  1.0 -0.5483089514
O  O50  1  0.39700000  0.06060000  0.48820000  1.0 -0.5483089514
O  O51  1  0.93940000  0.42760000  0.33640000  1.0 -0.5483089514
O  O52  1  0.57240000  0.90880000  0.51180000  1.0 -0.5483089514
O  O53  1  0.81060000  0.64700000  0.98820000  1.0 -0.5483089514
O  O54  1  0.17760000  0.18940000  0.83640000  1.0 -0.5483089514
O  O55  1  0.65880000  0.82240000  0.01180000  1.0 -0.5483089514
O  O56  1  0.35300000  0.34120000  0.16360000  1.0 -0.5483089514
O  O57  1  0.12350000  0.02550000  0.30800000  1.0 0.1779033135
O  O58  1  0.97450000  0.28250000  0.09800000  1.0 0.1779033135
O  O59  1  0.71750000  0.81550000  0.69200000  1.0 0.1779033135
O  O60  1  0.18450000  0.87650000  0.90200000  1.0 0.1779033135
O  O61  1  0.03250000  0.22450000  0.59800000  1.0 0.1779033135
O  O62  1  0.56550000  0.96750000  0.19200000  1.0 0.1779033135
O  O63  1  0.62650000  0.43450000  0.40200000  1.0 0.1779033135
O  O64  1  0.77550000  0.37350000  0.80800000  1.0 0.1779033135
O  O65  1  0.07410000  0.06810000  0.30600000  1.0 0.2045694612
O  O66  1  0.93190000  0.23790000  0.00600000  1.0 0.2045694612
O  O67  1  0.76210000  0.76810000  0.69400000  1.0 0.2053190492
O  O68  1  0.23190000  0.92590000  0.99400000  1.0 0.2053190492
O  O69  1  0.98790000  0.18190000  0.50600000  1.0 0.2053190492
O  O70  1  0.51810000  0.01210000  0.19400000  1.0 0.2045694612
O  O71  1  0.67590000  0.48190000  0.49400000  1.0 0.2045694612
O  O72  1  0.81810000  0.32410000  0.80600000  1.0 0.2045694612
