# DDEC6 charges by PACMAN v1.1 (https://github.com/mtap-research/PACMAN-charge/)
data_RAZXIA03_FSR_pacman
_symmetry_space_group_name_H-M   'P 1'
_cell_length_a   17.64150000
_cell_length_b   17.64150000
_cell_length_c   17.64150000
_cell_angle_alpha   137.38800000
_cell_angle_beta   137.38800000
_cell_angle_gamma   61.84190000
_symmetry_Int_Tables_number   1
_chemical_formula_structural   KCo3H8(C2O3)6
_chemical_formula_sum   'K4 Co12 H32 C48 O72'
_cell_volume   2487.36219084
_cell_formula_units_Z   4
loop_
 _symmetry_equiv_pos_site_id
 _symmetry_equiv_pos_as_xyz
  1  'x, y, z'
loop_
 _atom_site_type_symbol
 _atom_site_label
 _atom_site_symmetry_multiplicity
 _atom_site_fract_x
 _atom_site_fract_y
 _atom_site_fract_z
 _atom_site_occupancy
 _atom_site_charge
K  K1  1  0.20640000  0.12500000  0.58140000  1.0 0.7678831018
K  K2  1  0.87500000  0.45640000  0.08140000  1.0 0.7678831018
K  K3  1  0.54360000  0.62500000  0.41860000  1.0 0.7678831018
K  K4  1  0.37500000  0.79360000  0.91860000  1.0 0.7678831018
Co  Co1  1  0.40913000  0.35463000  0.84450000  1.0 0.9438238986
Co  Co2  1  0.64537000  0.48987000  0.05450000  1.0 0.9438238986
Co  Co3  1  0.51013000  0.56463000  0.15550000  1.0 0.9438238986
Co  Co4  1  0.43537000  0.59087000  0.94550000  1.0 0.9438238986
Co  Co5  1  0.23987000  0.89537000  0.55450000  1.0 0.9438238986
Co  Co6  1  0.31463000  0.76013000  0.65550000  1.0 0.9438238986
Co  Co7  1  0.34087000  0.68537000  0.44550000  1.0 0.9438238986
Co  Co8  1  0.10463000  0.65913000  0.34450000  1.0 0.9438238986
Co  Co9  1  0.30855000  0.30855000  0.00000000  1.0 0.9777693398
Co  Co10  1  0.69145000  0.69145000  0.00000000  1.0 0.9777693398
Co  Co11  1  0.44145000  0.94145000  0.50000000  1.0 0.9777693398
Co  Co12  1  0.05855000  0.55855000  0.50000000  1.0 0.9777693398
H  H1  1  0.27730000  0.63510000  0.07380000  1.0 0.1597425773
H  H2  1  0.36490000  0.43870000  0.64220000  1.0 0.1597425773
H  H3  1  0.56130000  0.20350000  0.92620000  1.0 0.1597425773
H  H4  1  0.79650000  0.72270000  0.35780000  1.0 0.1597425773
H  H5  1  0.18870000  0.61490000  0.14220000  1.0 0.1597425773
H  H6  1  0.95350000  0.81130000  0.42620000  1.0 0.1597425773
H  H7  1  0.47270000  0.04650000  0.85780000  1.0 0.1597425773
H  H8  1  0.38510000  0.52730000  0.57380000  1.0 0.1597425773
H  H9  1  0.16400000  0.55220000  0.93220000  1.0 0.1512805618
H  H10  1  0.44780000  0.38000000  0.61180000  1.0 0.1512805618
H  H11  1  0.62000000  0.23180000  0.06780000  1.0 0.1512805618
H  H12  1  0.76820000  0.83600000  0.38820000  1.0 0.1512805618
H  H13  1  0.13000000  0.69780000  0.11180000  1.0 0.1512805618
H  H14  1  0.98180000  0.87000000  0.56780000  1.0 0.1512805618
H  H15  1  0.58600000  0.01820000  0.88820000  1.0 0.1512805618
H  H16  1  0.30220000  0.41400000  0.43220000  1.0 0.1512805618
H  H17  1  0.25980000  0.69130000  0.97250000  1.0 0.1597425773
H  H18  1  0.30870000  0.28120000  0.56850000  1.0 0.1597425773
H  H19  1  0.71880000  0.28730000  0.02750000  1.0 0.1597425773
H  H20  1  0.71270000  0.74020000  0.43150000  1.0 0.1597425773
H  H21  1  0.03120000  0.55870000  0.06850000  1.0 0.1597425773
H  H22  1  0.03730000  0.96880000  0.52750000  1.0 0.1597425773
H  H23  1  0.49020000  0.96270000  0.93150000  1.0 0.1597425773
H  H24  1  0.44130000  0.50980000  0.47250000  1.0 0.1597425773
H  H25  1  0.13710000  0.63160000  0.85310000  1.0 0.1597425773
H  H26  1  0.36840000  0.22150000  0.50550000  1.0 0.1597425773
H  H27  1  0.77850000  0.28400000  0.14690000  1.0 0.1597425773
H  H28  1  0.71600000  0.86290000  0.49450000  1.0 0.1597425773
H  H29  1  0.97150000  0.61840000  0.00550000  1.0 0.1597425773
H  H30  1  0.03400000  0.02850000  0.64690000  1.0 0.1597425773
H  H31  1  0.61290000  0.96600000  0.99450000  1.0 0.1597425773
H  H32  1  0.38160000  0.38710000  0.35310000  1.0 0.1597425773
C  C1  1  0.29380000  0.48530000  0.02270000  1.0 0.667329932
C  C2  1  0.51470000  0.53740000  0.80850000  1.0 0.667329932
C  C3  1  0.46260000  0.27110000  0.97730000  1.0 0.667329932
C  C4  1  0.72890000  0.70620000  0.19150000  1.0 0.667329932
C  C5  1  0.28740000  0.76470000  0.30850000  1.0 0.667329932
C  C6  1  0.02110000  0.71260000  0.47730000  1.0 0.667329932
C  C7  1  0.45620000  0.97890000  0.69150000  1.0 0.667329932
C  C8  1  0.23530000  0.54380000  0.52270000  1.0 0.667329932
C  C9  1  0.24270000  0.55900000  0.98430000  1.0 -0.431625662
C  C10  1  0.44100000  0.42530000  0.68370000  1.0 -0.431625662
C  C11  1  0.57470000  0.25840000  0.01570000  1.0 -0.431625662
C  C12  1  0.74160000  0.75730000  0.31630000  1.0 -0.431625662
C  C13  1  0.17530000  0.69100000  0.18370000  1.0 -0.431625662
C  C14  1  0.00840000  0.82470000  0.51570000  1.0 -0.431625662
C  C15  1  0.50730000  0.99160000  0.81630000  1.0 -0.431625662
C  C16  1  0.30900000  0.49270000  0.48430000  1.0 -0.431625662
C  C17  1  0.25620000  0.53030000  0.88850000  1.0 0.283221519
C  C18  1  0.46970000  0.35820000  0.72590000  1.0 0.283221519
C  C19  1  0.64180000  0.36770000  0.11150000  1.0 0.283221519
C  C20  1  0.63230000  0.74380000  0.27410000  1.0 0.283221519
C  C21  1  0.10820000  0.71970000  0.22590000  1.0 0.283221519
C  C22  1  0.11770000  0.89180000  0.61150000  1.0 0.283221519
C  C23  1  0.49380000  0.88230000  0.77410000  1.0 0.283221519
C  C24  1  0.28030000  0.50620000  0.38850000  1.0 0.283221519
C  C25  1  0.20850000  0.62280000  0.87830000  1.0 -0.431625662
C  C26  1  0.37720000  0.25550000  0.58570000  1.0 -0.431625662
C  C27  1  0.74450000  0.33020000  0.12170000  1.0 -0.431625662
C  C28  1  0.66980000  0.79150000  0.41430000  1.0 -0.431625662
C  C29  1  0.00550000  0.62720000  0.08570000  1.0 -0.431625662
C  C30  1  0.08020000  0.99450000  0.62170000  1.0 -0.431625662
C  C31  1  0.54150000  0.91980000  0.91430000  1.0 -0.431625662
C  C32  1  0.37280000  0.45850000  0.37830000  1.0 -0.431625662
C  C33  1  0.19400000  0.59880000  0.76580000  1.0 0.6586426742
C  C34  1  0.40120000  0.16700000  0.59520000  1.0 0.6586426742
C  C35  1  0.83300000  0.42820000  0.23420000  1.0 0.6586426742
C  C36  1  0.57180000  0.80600000  0.40480000  1.0 0.6586426742
C  C37  1  0.91700000  0.65120000  0.09520000  1.0 0.6586426742
C  C38  1  0.17820000  0.08300000  0.73420000  1.0 0.6586426742
C  C39  1  0.55600000  0.82180000  0.90480000  1.0 0.6586426742
C  C40  1  0.34880000  0.44400000  0.26580000  1.0 0.6586426742
C  C41  1  0.18410000  0.41370000  0.73180000  1.0 0.524068477
C  C42  1  0.58630000  0.31810000  0.77040000  1.0 0.524068477
C  C43  1  0.68190000  0.45230000  0.26820000  1.0 0.524068477
C  C44  1  0.54770000  0.81590000  0.22960000  1.0 0.524068477
C  C45  1  0.06810000  0.83630000  0.27040000  1.0 0.524068477
C  C46  1  0.20230000  0.93190000  0.76820000  1.0 0.524068477
C  C47  1  0.56590000  0.79770000  0.72960000  1.0 0.524068477
C  C48  1  0.16370000  0.43410000  0.23180000  1.0 0.524068477
O  O1  1  0.40082000  0.50172000  0.12110000  1.0 -0.6301060669
O  O2  1  0.49828000  0.61938000  0.89910000  1.0 -0.6301060669
O  O3  1  0.38062000  0.27972000  0.87890000  1.0 -0.6301060669
O  O4  1  0.72028000  0.59918000  0.10090000  1.0 -0.6301060669
O  O5  1  0.36938000  0.74828000  0.39910000  1.0 -0.6301060669
O  O6  1  0.02972000  0.63062000  0.37890000  1.0 -0.6301060669
O  O7  1  0.34918000  0.97028000  0.60090000  1.0 -0.6301060669
O  O8  1  0.25172000  0.65082000  0.62110000  1.0 -0.6301060669
O  O9  1  0.23030000  0.41280000  0.95970000  1.0 -0.5562747471
O  O10  1  0.58720000  0.54690000  0.81750000  1.0 -0.5562747471
O  O11  1  0.45310000  0.27060000  0.04030000  1.0 -0.5562747471
O  O12  1  0.72940000  0.76970000  0.18250000  1.0 -0.5562747471
O  O13  1  0.29690000  0.83720000  0.31750000  1.0 -0.5562747471
O  O14  1  0.02060000  0.70310000  0.54030000  1.0 -0.5562747471
O  O15  1  0.51970000  0.97940000  0.68250000  1.0 -0.5562747471
O  O16  1  0.16280000  0.48030000  0.45970000  1.0 -0.5562747471
O  O17  1  0.37129000  0.52689000  0.95600000  1.0 -0.6528931313
O  O18  1  0.47311000  0.42911000  0.84440000  1.0 -0.6528931313
O  O19  1  0.57089000  0.41529000  0.04400000  1.0 -0.6528931313
O  O20  1  0.58471000  0.62871000  0.15560000  1.0 -0.6528931313
O  O21  1  0.17911000  0.72311000  0.34440000  1.0 -0.6528931313
O  O22  1  0.16529000  0.82089000  0.54400000  1.0 -0.6528931313
O  O23  1  0.37871000  0.83471000  0.65560000  1.0 -0.6528931313
O  O24  1  0.27689000  0.62129000  0.45600000  1.0 -0.6528931313
O  O25  1  0.23530000  0.33300000  0.69190000  1.0 -0.6164499872
O  O26  1  0.66700000  0.35890000  0.90230000  1.0 -0.6164499872
O  O27  1  0.64110000  0.54340000  0.30810000  1.0 -0.6164499872
O  O28  1  0.45660000  0.76470000  0.09770000  1.0 -0.6164499872
O  O29  1  0.10890000  0.91700000  0.40230000  1.0 -0.6164499872
O  O30  1  0.29340000  0.89110000  0.80810000  1.0 -0.6164499872
O  O31  1  0.51470000  0.70660000  0.59770000  1.0 -0.6164499872
O  O32  1  0.08300000  0.48530000  0.19190000  1.0 -0.6164499872
O  O33  1  0.08140000  0.40740000  0.65780000  1.0 -0.5072614901
O  O34  1  0.59260000  0.25040000  0.67400000  1.0 -0.5072614901
O  O35  1  0.74960000  0.42360000  0.34220000  1.0 -0.5072614901
O  O36  1  0.57640000  0.91860000  0.32600000  1.0 -0.5072614901
O  O37  1  0.00040000  0.84260000  0.17400000  1.0 -0.5072614901
O  O38  1  0.17360000  0.99960000  0.84220000  1.0 -0.5072614901
O  O39  1  0.66860000  0.82640000  0.82600000  1.0 -0.5072614901
O  O40  1  0.15740000  0.33140000  0.15780000  1.0 -0.5072614901
O  O41  1  0.27660000  0.58170000  0.77410000  1.0 -0.5935266517
O  O42  1  0.41830000  0.19240000  0.69490000  1.0 -0.5935266517
O  O43  1  0.80760000  0.50250000  0.22590000  1.0 -0.5935266517
O  O44  1  0.49750000  0.72340000  0.30510000  1.0 -0.5935266517
O  O45  1  0.94240000  0.66830000  0.19490000  1.0 -0.5935266517
O  O46  1  0.25250000  0.05760000  0.72590000  1.0 -0.5935266517
O  O47  1  0.47340000  0.74750000  0.80510000  1.0 -0.5935266517
O  O48  1  0.33170000  0.52660000  0.27410000  1.0 -0.5935266517
O  O49  1  0.09610000  0.59690000  0.66340000  1.0 -0.553390836
O  O50  1  0.40310000  0.06650000  0.49920000  1.0 -0.553390836
O  O51  1  0.93350000  0.43270000  0.33660000  1.0 -0.553390836
O  O52  1  0.56730000  0.90390000  0.50080000  1.0 -0.553390836
O  O53  1  0.81650000  0.65310000  0.99920000  1.0 -0.553390836
O  O54  1  0.18270000  0.18350000  0.83660000  1.0 -0.553390836
O  O55  1  0.65390000  0.81730000  0.00080000  1.0 -0.553390836
O  O56  1  0.34690000  0.34610000  0.16340000  1.0 -0.553390836
O  O57  1  0.13180000  0.02680000  0.31100000  1.0 0.1853353124
O  O58  1  0.97320000  0.28420000  0.10500000  1.0 0.1853353124
O  O59  1  0.71580000  0.82080000  0.68900000  1.0 0.1853353124
O  O60  1  0.17920000  0.86820000  0.89500000  1.0 0.1853353124
O  O61  1  0.03420000  0.22320000  0.60500000  1.0 0.1853353124
O  O62  1  0.57080000  0.96580000  0.18900000  1.0 0.1853353124
O  O63  1  0.61820000  0.42920000  0.39500000  1.0 0.1853353124
O  O64  1  0.77680000  0.38180000  0.81100000  1.0 0.1853353124
O  O65  1  0.07800000  0.06400000  0.31000000  1.0 0.2073979065
O  O66  1  0.93600000  0.24600000  0.01400000  1.0 0.2073979065
O  O67  1  0.75400000  0.76800000  0.69000000  1.0 0.2073979065
O  O68  1  0.23200000  0.92200000  0.98600000  1.0 0.2073979065
O  O69  1  0.99600000  0.18600000  0.51400000  1.0 0.2073979065
O  O70  1  0.51800000  0.00400000  0.19000000  1.0 0.2073979065
O  O71  1  0.67200000  0.48200000  0.48600000  1.0 0.2073979065
O  O72  1  0.81400000  0.32800000  0.81000000  1.0 0.2073979065
