# DDEC6 charges by PACMAN v1.1 (https://github.com/mtap-research/PACMAN-charge/)
data_REDRAX_ASR_pacman
_chemical_formula_sum              "F34 C32 H32 Nb4 O2 Ni2 N8"
_cell_length_a       9.9888
_cell_length_b       9.9888
_cell_length_c       7.9029
_cell_angle_alpha    90
_cell_angle_beta     90
_cell_angle_gamma    90

_symmetry_space_group_name_H-M    "P 1"
_symmetry_Int_Tables_number       1

loop_
  _symmetry_equiv_pos_as_xyz
  'x, y, z'

loop_
  _atom_site_type_symbol
  _atom_site_label
  _atom_site_symmetry_multiplicity
  _atom_site_fract_x
  _atom_site_fract_y
  _atom_site_fract_z
  _atom_site_occupancy
 _atom_site_charge
F   F1        1.0  0.43800  0.28420  0.50710  1.0000 -0.066464318
C   C1        1.0  0.48370  0.41920  0.13060  1.0000 -0.0227453752
H   H1        1.0  0.47520  0.36410  0.22480  1.0000 0.0093779243
C   C2        1.0  0.43100  0.47400  0.13300  1.0000 -0.0227453752
H   H2        1.0  0.38330  0.45970  0.23230  1.0000 -0.0016191085
F   F2        1.0  0.40840  0.35800  0.50580  1.0000 -0.0624543455
F   F3        1.0  0.06200  0.21580  0.50710  1.0000 -0.066464318
C   C3        1.0  0.01630  0.08080  0.13060  1.0000 -0.0227453752
H   H3        1.0  0.02480  0.13590  0.22480  1.0000 0.0093779243
C   C4        1.0  0.06900  0.02600  0.13300  1.0000 -0.0227453752
H   H4        1.0  0.11670  0.04030  0.23230  1.0000 -0.0016191085
F   F4        1.0  0.09160  0.14200  0.50580  1.0000 -0.0624543455
F   F5        1.0  0.21580  0.43800  0.50710  1.0000 -0.066464318
C   C5        1.0  0.08080  0.48370  0.13060  1.0000 -0.0227453752
H   H5        1.0  0.13590  0.47520  0.22480  1.0000 0.0093779243
C   C6        1.0  0.02600  0.43100  0.13300  1.0000 -0.0227453752
H   H6        1.0  0.04030  0.38330  0.23230  1.0000 -0.0016191085
F   F6        1.0  0.14200  0.40840  0.50580  1.0000 -0.0624543455
F   F7        1.0  0.28420  0.06200  0.50710  1.0000 -0.066464318
C   C7        1.0  0.41920  0.01630  0.13060  1.0000 -0.0227453752
H   H7        1.0  0.36410  0.02480  0.22480  1.0000 0.0093779243
C   C8        1.0  0.47400  0.06900  0.13300  1.0000 -0.0227453752
H   H8        1.0  0.45970  0.11670  0.23230  1.0000 -0.0016191085
F   F8        1.0  0.35800  0.09160  0.50580  1.0000 -0.0624543455
F   F9        1.0  0.06200  0.28420  0.49290  1.0000 -0.066464318
C   C9        1.0  0.01630  0.41920  0.86940  1.0000 -0.0227453752
H   H9        1.0  0.02480  0.36410  0.77520  1.0000 0.0093779243
C   C10       1.0  0.06900  0.47400  0.86700  1.0000 -0.0227453752
H   H10       1.0  0.11670  0.45970  0.76770  1.0000 0.0037699412
F   F10       1.0  0.09160  0.35800  0.49420  1.0000 -0.0624543455
F   F11       1.0  0.43800  0.21580  0.49290  1.0000 -0.066464318
C   C11       1.0  0.48370  0.08080  0.86940  1.0000 -0.0227453752
H   H11       1.0  0.47520  0.13590  0.77520  1.0000 0.0093779243
C   C12       1.0  0.43100  0.02600  0.86700  1.0000 -0.0227453752
H   H12       1.0  0.38330  0.04030  0.76770  1.0000 0.0037699412
F   F12       1.0  0.40840  0.14200  0.49420  1.0000 -0.0624543455
F   F13       1.0  0.28420  0.43800  0.49290  1.0000 -0.066464318
C   C13       1.0  0.41920  0.48370  0.86940  1.0000 -0.0227453752
H   H13       1.0  0.36410  0.47520  0.77520  1.0000 0.0093779243
C   C14       1.0  0.47400  0.43100  0.86700  1.0000 -0.0227453752
H   H14       1.0  0.45970  0.38330  0.76770  1.0000 0.0037699412
F   F14       1.0  0.35800  0.40840  0.49420  1.0000 -0.0624543455
F   F15       1.0  0.21580  0.06200  0.49290  1.0000 -0.0624543455
C   C15       1.0  0.08080  0.01630  0.86940  1.0000 -0.0227453752
H   H15       1.0  0.13590  0.02480  0.77520  1.0000 0.0093779243
C   C16       1.0  0.02600  0.06900  0.86700  1.0000 -0.0227453752
H   H16       1.0  0.04030  0.11670  0.76770  1.0000 0.0037699412
F   F16       1.0  0.14200  0.09160  0.49420  1.0000 -0.0624543455
F   F17       1.0  0.56200  0.71580  0.49290  1.0000 -0.066464318
C   C17       1.0  0.51630  0.58080  0.86940  1.0000 -0.0227453752
H   H17       1.0  0.52480  0.63590  0.77520  1.0000 0.0093779243
C   C18       1.0  0.56900  0.52600  0.86700  1.0000 -0.0227453752
H   H18       1.0  0.61670  0.54030  0.76770  1.0000 -0.0016191085
F   F18       1.0  0.59160  0.64200  0.49420  1.0000 -0.0624543455
F   F19       1.0  0.93800  0.78420  0.49290  1.0000 -0.066464318
C   C19       1.0  0.98370  0.91920  0.86940  1.0000 -0.0227453752
H   H19       1.0  0.97520  0.86410  0.77520  1.0000 0.0093779243
C   C20       1.0  0.93100  0.97400  0.86700  1.0000 -0.0227453752
H   H20       1.0  0.88330  0.95970  0.76770  1.0000 -0.0016191085
F   F20       1.0  0.90840  0.85800  0.49420  1.0000 -0.0624543455
F   F21       1.0  0.78420  0.56200  0.49290  1.0000 -0.066464318
C   C21       1.0  0.91920  0.51630  0.86940  1.0000 -0.0227453752
H   H21       1.0  0.86410  0.52480  0.77520  1.0000 0.0093779243
C   C22       1.0  0.97400  0.56900  0.86700  1.0000 -0.0227453752
H   H22       1.0  0.95970  0.61670  0.76770  1.0000 -0.0016191085
F   F22       1.0  0.85800  0.59160  0.49420  1.0000 -0.0624543455
F   F23       1.0  0.71580  0.93800  0.49290  1.0000 -0.066464318
C   C23       1.0  0.58080  0.98370  0.86940  1.0000 -0.0227453752
H   H23       1.0  0.63590  0.97520  0.77520  1.0000 0.0093779243
C   C24       1.0  0.52600  0.93100  0.86700  1.0000 -0.0227453752
H   H24       1.0  0.54030  0.88330  0.76770  1.0000 -0.0016191085
F   F24       1.0  0.64200  0.90840  0.49420  1.0000 -0.0624543455
F   F25       1.0  0.93800  0.71580  0.50710  1.0000 -0.066464318
C   C25       1.0  0.98370  0.58080  0.13060  1.0000 -0.0227453752
H   H25       1.0  0.97520  0.63590  0.22480  1.0000 0.0093779243
C   C26       1.0  0.93100  0.52600  0.13300  1.0000 -0.0227453752
H   H26       1.0  0.88330  0.54030  0.23230  1.0000 0.0037699412
F   F26       1.0  0.90840  0.64200  0.50580  1.0000 -0.0624543455
F   F27       1.0  0.56200  0.78420  0.50710  1.0000 -0.066464318
C   C27       1.0  0.51630  0.91920  0.13060  1.0000 -0.0227453752
H   H27       1.0  0.52480  0.86410  0.22480  1.0000 0.0093779243
C   C28       1.0  0.56900  0.97400  0.13300  1.0000 -0.0227453752
H   H28       1.0  0.61670  0.95970  0.23230  1.0000 0.0037699412
F   F28       1.0  0.59160  0.85800  0.50580  1.0000 -0.0624543455
F   F29       1.0  0.71580  0.56200  0.50710  1.0000 -0.066464318
C   C29       1.0  0.58080  0.51630  0.13060  1.0000 -0.0227453752
H   H29       1.0  0.63590  0.52480  0.22480  1.0000 0.0093779243
C   C30       1.0  0.52600  0.56900  0.13300  1.0000 -0.0227453752
H   H30       1.0  0.54030  0.61670  0.23230  1.0000 0.0037699412
F   F30       1.0  0.64200  0.59160  0.50580  1.0000 -0.0624543455
F   F31       1.0  0.78420  0.93800  0.50710  1.0000 -0.066464318
C   C31       1.0  0.91920  0.98370  0.13060  1.0000 -0.0227453752
H   H31       1.0  0.86410  0.97520  0.22480  1.0000 0.0093779243
C   C32       1.0  0.97400  0.93100  0.13300  1.0000 -0.0227453752
H   H32       1.0  0.95970  0.88330  0.23230  1.0000 0.0037699412
F   F32       1.0  0.85800  0.90840  0.50580  1.0000 -0.0624543455
Nb  Nb1       1.0  0.25000  0.25000  0.48340  1.0000 1.539426453
O   O1        1.0  0.25000  0.25000  0.25350  1.0000 -0.5537269045
F   F33       1.0  0.25000  0.25000  0.74650  1.0000 -0.6900805165
Nb  Nb2       1.0  0.25000  0.25000  0.51660  1.0000 1.539426453
Nb  Nb3       1.0  0.75000  0.75000  0.51660  1.0000 1.539426453
O   O2        1.0  0.75000  0.75000  0.74650  1.0000 -0.5537269045
F   F34       1.0  0.75000  0.75000  0.25350  1.0000 -0.6900805165
Nb  Nb4       1.0  0.75000  0.75000  0.48340  1.0000 1.539426453
Ni  Ni1       1.0  0.25000  0.25000  0.00000  1.0000 0.3177668523
Ni  Ni2       1.0  0.75000  0.75000  0.00000  1.0000 0.3177668523
N   N1        1.0  0.40130  0.40130  0.00000  1.0000 -0.2107921843
N   N2        1.0  0.09870  0.09870  0.00000  1.0000 -0.2107921843
N   N3        1.0  0.09870  0.40130  0.00000  1.0000 -0.2107921843
N   N4        1.0  0.40130  0.09870  0.00000  1.0000 -0.2107921843
N   N5        1.0  0.59870  0.59870  0.00000  1.0000 -0.2107921843
N   N6        1.0  0.90130  0.90130  0.00000  1.0000 -0.2107921843
N   N7        1.0  0.90130  0.59870  0.00000  1.0000 -0.2107921843
N   N8        1.0  0.59870  0.90130  0.00000  1.0000 -0.2107921843
  F   F35       1.0  0.25000  0.25000  0.25350  1.0000
  O   O3        1.0  0.25000  0.25000  0.74650  1.0000
  F   F36       1.0  0.75000  0.75000  0.74650  1.0000
  O   O4        1.0  0.75000  0.75000  0.25350  1.0000
