# DDEC6 charges by PACMAN v1.1 (https://github.com/mtap-research/PACMAN-charge/)
data_REFTON_FSR_pacman
_symmetry_space_group_name_H-M   'P 1'
_cell_length_a   7.30775000
_cell_length_b   18.81510000
_cell_length_c   23.34440000
_cell_angle_alpha   90.00000000
_cell_angle_beta   90.00000000
_cell_angle_gamma   90.00000000
_symmetry_Int_Tables_number   1
_chemical_formula_structural   Zn2CdH25C27O14
_chemical_formula_sum   'Zn8 Cd4 H100 C108 O56'
_cell_volume   3209.76272017
_cell_formula_units_Z   4
loop_
 _symmetry_equiv_pos_site_id
 _symmetry_equiv_pos_as_xyz
  1  'x, y, z'
loop_
 _atom_site_type_symbol
 _atom_site_label
 _atom_site_symmetry_multiplicity
 _atom_site_fract_x
 _atom_site_fract_y
 _atom_site_fract_z
 _atom_site_occupancy
 _atom_site_charge
Zn  Zn1  1  0.15034000  0.45132000  0.08679000  1.0 0.9138420129
Zn  Zn2  1  0.34966000  0.95132000  0.91321000  1.0 0.9138420129
Zn  Zn3  1  0.65034000  0.04868000  0.41321000  1.0 0.9138420129
Zn  Zn4  1  0.84966000  0.54868000  0.58679000  1.0 0.9138420129
Zn  Zn5  1  0.84966000  0.54868000  0.91321000  1.0 0.9138420129
Zn  Zn6  1  0.65034000  0.04868000  0.08679000  1.0 0.9138420129
Zn  Zn7  1  0.34966000  0.95132000  0.58679000  1.0 0.9138420129
Zn  Zn8  1  0.15034000  0.45132000  0.41321000  1.0 0.9138420129
Cd  Cd1  1  0.50000000  0.50000000  0.00000000  1.0 1.1038817296
Cd  Cd2  1  0.00000000  0.00000000  0.00000000  1.0 1.1038817296
Cd  Cd3  1  0.00000000  0.00000000  0.50000000  1.0 1.1038817296
Cd  Cd4  1  0.50000000  0.50000000  0.50000000  1.0 1.1038817296
H  H1  1  0.90030000  0.40320000  0.07910000  1.0 0.3413642773
H  H2  1  0.59970000  0.90320000  0.92090000  1.0 0.3413642773
H  H3  1  0.40030000  0.09680000  0.42090000  1.0 0.3413642773
H  H4  1  0.09970000  0.59680000  0.57910000  1.0 0.3413642773
H  H5  1  0.09970000  0.59680000  0.92090000  1.0 0.3413642773
H  H6  1  0.40030000  0.09680000  0.07910000  1.0 0.3413642773
H  H7  1  0.59970000  0.90320000  0.57910000  1.0 0.3413642773
H  H8  1  0.90030000  0.40320000  0.42090000  1.0 0.3413642773
H  H9  1  0.82830000  0.43980000  0.12460000  1.0 0.3480101096
H  H10  1  0.67170000  0.93980000  0.87540000  1.0 0.3480101096
H  H11  1  0.32830000  0.06020000  0.37540000  1.0 0.3480101096
H  H12  1  0.17170000  0.56020000  0.62460000  1.0 0.3480101096
H  H13  1  0.17170000  0.56020000  0.87540000  1.0 0.3480101096
H  H14  1  0.32830000  0.06020000  0.12460000  1.0 0.3480101096
H  H15  1  0.67170000  0.93980000  0.62460000  1.0 0.3480101096
H  H16  1  0.82830000  0.43980000  0.37540000  1.0 0.3480101096
H  H17  1  0.22830000  0.70610000  0.97430000  1.0 0.130712391
H  H18  1  0.27170000  0.20610000  0.02570000  1.0 0.130712391
H  H19  1  0.72830000  0.79390000  0.52570000  1.0 0.130712391
H  H20  1  0.77170000  0.29390000  0.47430000  1.0 0.130712391
H  H21  1  0.77170000  0.29390000  0.02570000  1.0 0.130712391
H  H22  1  0.72830000  0.79390000  0.97430000  1.0 0.130712391
H  H23  1  0.27170000  0.20610000  0.47430000  1.0 0.130712391
H  H24  1  0.22830000  0.70610000  0.52570000  1.0 0.130712391
H  H25  1  0.01130000  0.66630000  0.12890000  1.0 0.130712391
H  H26  1  0.48870000  0.16630000  0.87110000  1.0 0.130712391
H  H27  1  0.51130000  0.83370000  0.37110000  1.0 0.130712391
H  H28  1  0.98870000  0.33370000  0.62890000  1.0 0.130712391
H  H29  1  0.98870000  0.33370000  0.87110000  1.0 0.130712391
H  H30  1  0.51130000  0.83370000  0.12890000  1.0 0.130712391
H  H31  1  0.48870000  0.16630000  0.62890000  1.0 0.130712391
H  H32  1  0.01130000  0.66630000  0.37110000  1.0 0.130712391
H  H33  1  0.08810000  0.86730000  0.07860000  1.0 0.130712391
H  H34  1  0.41190000  0.36730000  0.92140000  1.0 0.130712391
H  H35  1  0.58810000  0.63270000  0.42140000  1.0 0.130712391
H  H36  1  0.91190000  0.13270000  0.57860000  1.0 0.130712391
H  H37  1  0.91190000  0.13270000  0.92140000  1.0 0.130712391
H  H38  1  0.58810000  0.63270000  0.07860000  1.0 0.130712391
H  H39  1  0.41190000  0.36730000  0.57860000  1.0 0.130712391
H  H40  1  0.08810000  0.86730000  0.42140000  1.0 0.130712391
H  H41  1  0.07390000  0.80490000  0.19550000  1.0 0.1394361655
H  H42  1  0.42610000  0.30490000  0.80450000  1.0 0.1394361655
H  H43  1  0.57390000  0.69510000  0.30450000  1.0 0.1394361655
H  H44  1  0.92610000  0.19510000  0.69550000  1.0 0.1394361655
H  H45  1  0.92610000  0.19510000  0.80450000  1.0 0.1394361655
H  H46  1  0.57390000  0.69510000  0.19550000  1.0 0.1394361655
H  H47  1  0.42610000  0.30490000  0.69550000  1.0 0.1394361655
H  H48  1  0.07390000  0.80490000  0.30450000  1.0 0.1394361655
H  H49  1  0.89240000  0.76160000  0.18730000  1.0 0.1394361655
H  H50  1  0.60760000  0.26160000  0.81270000  1.0 0.1394361655
H  H51  1  0.39240000  0.73840000  0.31270000  1.0 0.1394361655
H  H52  1  0.10760000  0.23840000  0.68730000  1.0 0.1394361655
H  H53  1  0.10760000  0.23840000  0.81270000  1.0 0.1394361655
H  H54  1  0.39240000  0.73840000  0.18730000  1.0 0.1394361655
H  H55  1  0.60760000  0.26160000  0.68730000  1.0 0.1394361655
H  H56  1  0.89240000  0.76160000  0.31270000  1.0 0.1394361655
H  H57  1  0.90470000  0.84040000  0.16580000  1.0 0.1394361655
H  H58  1  0.59530000  0.34040000  0.83420000  1.0 0.1394361655
H  H59  1  0.40470000  0.65960000  0.33420000  1.0 0.1394361655
H  H60  1  0.09530000  0.15960000  0.66580000  1.0 0.1394361655
H  H61  1  0.09530000  0.15960000  0.83420000  1.0 0.1394361655
H  H62  1  0.40470000  0.65960000  0.16580000  1.0 0.1394361655
H  H63  1  0.59530000  0.34040000  0.66580000  1.0 0.1394361655
H  H64  1  0.90470000  0.84040000  0.33420000  1.0 0.1394361655
H  H65  1  0.38270000  0.46900000  0.25000000  1.0 0.1394361655
H  H66  1  0.11730000  0.96900000  0.75000000  1.0 0.1394361655
H  H67  1  0.88270000  0.03100000  0.25000000  1.0 0.1394361655
H  H68  1  0.61730000  0.53100000  0.75000000  1.0 0.1394361655
H  H69  1  0.81000000  0.55020000  0.16420000  1.0 0.1394361655
H  H70  1  0.69000000  0.05020000  0.83580000  1.0 0.1394361655
H  H71  1  0.31000000  0.94980000  0.33580000  1.0 0.1394361655
H  H72  1  0.19000000  0.44980000  0.66420000  1.0 0.1394361655
H  H73  1  0.19000000  0.44980000  0.83580000  1.0 0.1394361655
H  H74  1  0.31000000  0.94980000  0.16420000  1.0 0.1394361655
H  H75  1  0.69000000  0.05020000  0.66420000  1.0 0.1394361655
H  H76  1  0.81000000  0.55020000  0.33580000  1.0 0.1394361655
H  H77  1  0.10950000  0.56040000  0.22470000  1.0 0.0684288223
H  H78  1  0.39050000  0.06040000  0.77530000  1.0 0.0684288223
H  H79  1  0.60950000  0.93960000  0.27530000  1.0 0.0684288223
H  H80  1  0.89050000  0.43960000  0.72470000  1.0 0.0684288223
H  H81  1  0.89050000  0.43960000  0.77530000  1.0 0.0684288223
H  H82  1  0.60950000  0.93960000  0.22470000  1.0 0.0684288223
H  H83  1  0.39050000  0.06040000  0.72470000  1.0 0.0684288223
H  H84  1  0.10950000  0.56040000  0.27530000  1.0 0.0684288223
H  H85  1  0.08150000  0.58550000  0.28810000  1.0 0.0684288223
H  H86  1  0.41850000  0.08550000  0.71190000  1.0 0.0684288223
H  H87  1  0.58150000  0.91450000  0.21190000  1.0 0.0684288223
H  H88  1  0.91850000  0.41450000  0.78810000  1.0 0.0684288223
H  H89  1  0.91850000  0.41450000  0.71190000  1.0 0.0684288223
H  H90  1  0.58150000  0.91450000  0.28810000  1.0 0.0684288223
H  H91  1  0.41850000  0.08550000  0.78810000  1.0 0.0684288223
H  H92  1  0.08150000  0.58550000  0.21190000  1.0 0.0684288223
H  H93  1  0.02560000  0.63540000  0.23730000  1.0 0.0684288223
H  H94  1  0.47440000  0.13540000  0.76270000  1.0 0.0684288223
H  H95  1  0.52560000  0.86460000  0.26270000  1.0 0.0684288223
H  H96  1  0.97440000  0.36460000  0.73730000  1.0 0.0684288223
H  H97  1  0.97440000  0.36460000  0.76270000  1.0 0.0684288223
H  H98  1  0.52560000  0.86460000  0.23730000  1.0 0.0684288223
H  H99  1  0.47440000  0.13540000  0.73730000  1.0 0.0684288223
H  H100  1  0.02560000  0.63540000  0.26270000  1.0 0.0684288223
C  C1  1  0.17960000  0.72228000  0.00869000  1.0 -0.1153235828
C  C2  1  0.32040000  0.22228000  0.99131000  1.0 -0.1153235828
C  C3  1  0.67960000  0.77772000  0.49131000  1.0 -0.1153235828
C  C4  1  0.82040000  0.27772000  0.50869000  1.0 -0.1153235828
C  C5  1  0.82040000  0.27772000  0.99131000  1.0 -0.1153235828
C  C6  1  0.67960000  0.77772000  0.00869000  1.0 -0.1153235828
C  C7  1  0.32040000  0.22228000  0.50869000  1.0 -0.1153235828
C  C8  1  0.17960000  0.72228000  0.49131000  1.0 -0.1153235828
C  C9  1  0.12680000  0.67412000  0.05034000  1.0 -0.0247381611
C  C10  1  0.37320000  0.17412000  0.94966000  1.0 -0.0247381611
C  C11  1  0.62680000  0.82588000  0.44966000  1.0 -0.0247381611
C  C12  1  0.87320000  0.32588000  0.55034000  1.0 -0.0247381611
C  C13  1  0.87320000  0.32588000  0.94966000  1.0 -0.0247381611
C  C14  1  0.62680000  0.82588000  0.05034000  1.0 -0.0247381611
C  C15  1  0.37320000  0.17412000  0.55034000  1.0 -0.0247381611
C  C16  1  0.12680000  0.67412000  0.44966000  1.0 -0.0247381611
C  C17  1  0.05230000  0.69882000  0.10180000  1.0 -0.1516691039
C  C18  1  0.44770000  0.19882000  0.89820000  1.0 -0.1516691039
C  C19  1  0.55230000  0.80118000  0.39820000  1.0 -0.1516691039
C  C20  1  0.94770000  0.30118000  0.60180000  1.0 -0.1516691039
C  C21  1  0.94770000  0.30118000  0.89820000  1.0 -0.1516691039
C  C22  1  0.55230000  0.80118000  0.10180000  1.0 -0.1516691039
C  C23  1  0.44770000  0.19882000  0.60180000  1.0 -0.1516691039
C  C24  1  0.05230000  0.69882000  0.39820000  1.0 -0.1516691039
C  C25  1  0.16530000  0.59615000  0.04252000  1.0 0.5783879774
C  C26  1  0.33470000  0.09615000  0.95748000  1.0 0.5783879774
C  C27  1  0.66530000  0.90385000  0.45748000  1.0 0.5783879774
C  C28  1  0.83470000  0.40385000  0.54252000  1.0 0.5783879774
C  C29  1  0.83470000  0.40385000  0.95748000  1.0 0.5783879774
C  C30  1  0.66530000  0.90385000  0.04252000  1.0 0.5783879774
C  C31  1  0.33470000  0.09615000  0.54252000  1.0 0.5783879774
C  C32  1  0.16530000  0.59615000  0.45748000  1.0 0.5783879774
C  C33  1  0.22020000  0.84510000  0.97315000  1.0 0.5633502135
C  C34  1  0.27980000  0.34510000  0.02685000  1.0 0.5633502135
C  C35  1  0.72020000  0.65490000  0.52685000  1.0 0.5633502135
C  C36  1  0.77980000  0.15490000  0.47315000  1.0 0.5633502135
C  C37  1  0.77980000  0.15490000  0.02685000  1.0 0.5633502135
C  C38  1  0.72020000  0.65490000  0.97315000  1.0 0.5633502135
C  C39  1  0.27980000  0.34510000  0.47315000  1.0 0.5633502135
C  C40  1  0.22020000  0.84510000  0.52685000  1.0 0.5633502135
C  C41  1  0.15950000  0.79512000  0.01835000  1.0 -0.0259769852
C  C42  1  0.34050000  0.29512000  0.98165000  1.0 -0.0259769852
C  C43  1  0.65950000  0.70488000  0.48165000  1.0 -0.0259769852
C  C44  1  0.84050000  0.20488000  0.51835000  1.0 -0.0259769852
C  C45  1  0.84050000  0.20488000  0.98165000  1.0 -0.0259769852
C  C46  1  0.65950000  0.70488000  0.01835000  1.0 -0.0259769852
C  C47  1  0.34050000  0.29512000  0.51835000  1.0 -0.0259769852
C  C48  1  0.15950000  0.79512000  0.48165000  1.0 -0.0259769852
C  C49  1  0.09430000  0.81874000  0.07128000  1.0 -0.1560852139
C  C50  1  0.40570000  0.31874000  0.92872000  1.0 -0.1560852139
C  C51  1  0.59430000  0.68126000  0.42872000  1.0 -0.1560852139
C  C52  1  0.90570000  0.18126000  0.57128000  1.0 -0.1560852139
C  C53  1  0.90570000  0.18126000  0.92872000  1.0 -0.1560852139
C  C54  1  0.59430000  0.68126000  0.07128000  1.0 -0.1560852139
C  C55  1  0.40570000  0.31874000  0.57128000  1.0 -0.1560852139
C  C56  1  0.09430000  0.81874000  0.42872000  1.0 -0.1560852139
C  C57  1  0.03860000  0.77100000  0.11308000  1.0 0.1645123789
C  C58  1  0.46140000  0.27100000  0.88692000  1.0 0.1645123789
C  C59  1  0.53860000  0.72900000  0.38692000  1.0 0.1645123789
C  C60  1  0.96140000  0.22900000  0.61308000  1.0 0.1645123789
C  C61  1  0.96140000  0.22900000  0.88692000  1.0 0.1645123789
C  C62  1  0.53860000  0.72900000  0.11308000  1.0 0.1645123789
C  C63  1  0.46140000  0.27100000  0.61308000  1.0 0.1645123789
C  C64  1  0.03860000  0.77100000  0.38692000  1.0 0.1645123789
C  C65  1  0.97120000  0.79685000  0.17067000  1.0 -0.4605272693
C  C66  1  0.52880000  0.29685000  0.82933000  1.0 -0.4605272693
C  C67  1  0.47120000  0.70315000  0.32933000  1.0 -0.4605272693
C  C68  1  0.02880000  0.20315000  0.67067000  1.0 -0.4605272693
C  C69  1  0.02880000  0.20315000  0.82933000  1.0 -0.4605272693
C  C70  1  0.47120000  0.70315000  0.17067000  1.0 -0.4605272693
C  C71  1  0.52880000  0.29685000  0.67067000  1.0 -0.4605272693
C  C72  1  0.97120000  0.79685000  0.32933000  1.0 -0.4605272693
C  C73  1  0.48400000  0.48999000  0.14344000  1.0 0.5783879774
C  C74  1  0.01600000  0.98999000  0.85656000  1.0 0.5783879774
C  C75  1  0.98400000  0.01001000  0.35656000  1.0 0.5783879774
C  C76  1  0.51600000  0.51001000  0.64344000  1.0 0.5783879774
C  C77  1  0.51600000  0.51001000  0.85656000  1.0 0.5783879774
C  C78  1  0.98400000  0.01001000  0.14344000  1.0 0.5783879774
C  C79  1  0.01600000  0.98999000  0.64344000  1.0 0.5783879774
C  C80  1  0.48400000  0.48999000  0.35656000  1.0 0.5783879774
C  C81  1  0.49650000  0.49110000  0.25000000  1.0 -0.0962177703
C  C82  1  0.00350000  0.99110000  0.75000000  1.0 -0.0962177703
C  C83  1  0.99650000  0.00890000  0.25000000  1.0 -0.0962177703
C  C84  1  0.50350000  0.50890000  0.75000000  1.0 -0.0962177703
C  C85  1  0.58070000  0.50745000  0.19849000  1.0 -0.0376284068
C  C86  1  0.91930000  0.00745000  0.80151000  1.0 -0.0376284068
C  C87  1  0.08070000  0.99255000  0.30151000  1.0 -0.0376284068
C  C88  1  0.41930000  0.49255000  0.69849000  1.0 -0.0376284068
C  C89  1  0.41930000  0.49255000  0.80151000  1.0 -0.0376284068
C  C90  1  0.08070000  0.99255000  0.19849000  1.0 -0.0376284068
C  C91  1  0.91930000  0.00745000  0.69849000  1.0 -0.0376284068
C  C92  1  0.58070000  0.50745000  0.30151000  1.0 -0.0376284068
C  C93  1  0.75330000  0.53927000  0.19878000  1.0 -0.1781398339
C  C94  1  0.74670000  0.03927000  0.80122000  1.0 -0.1781398339
C  C95  1  0.25330000  0.96073000  0.30122000  1.0 -0.1781398339
C  C96  1  0.24670000  0.46073000  0.69878000  1.0 -0.1781398339
C  C97  1  0.24670000  0.46073000  0.80122000  1.0 -0.1781398339
C  C98  1  0.25330000  0.96073000  0.19878000  1.0 -0.1781398339
C  C99  1  0.74670000  0.03927000  0.69878000  1.0 -0.1781398339
C  C100  1  0.75330000  0.53927000  0.30122000  1.0 -0.1781398339
C  C101  1  0.84130000  0.55480000  0.25000000  1.0 0.048110483
C  C102  1  0.65870000  0.05480000  0.75000000  1.0 0.048110483
C  C103  1  0.34130000  0.94520000  0.25000000  1.0 0.048110483
C  C104  1  0.15870000  0.44520000  0.75000000  1.0 0.048110483
C  C105  1  0.03200000  0.58700000  0.25000000  1.0 -0.2856409421
C  C106  1  0.46800000  0.08700000  0.75000000  1.0 -0.2845919898
C  C107  1  0.53200000  0.91300000  0.25000000  1.0 -0.2856409421
C  C108  1  0.96800000  0.41300000  0.75000000  1.0 -0.2856409421
O  O1  1  0.27290000  0.57893000  0.00305000  1.0 -0.58590238
O  O2  1  0.22710000  0.07893000  0.99695000  1.0 -0.58590238
O  O3  1  0.77290000  0.92107000  0.49695000  1.0 -0.58590238
O  O4  1  0.72710000  0.42107000  0.50305000  1.0 -0.58590238
O  O5  1  0.72710000  0.42107000  0.99695000  1.0 -0.58590238
O  O6  1  0.77290000  0.92107000  0.00305000  1.0 -0.58590238
O  O7  1  0.22710000  0.07893000  0.50305000  1.0 -0.58590238
O  O8  1  0.27290000  0.57893000  0.49695000  1.0 -0.58590238
O  O9  1  0.09280000  0.55370000  0.07735000  1.0 -0.5373198932
O  O10  1  0.40720000  0.05370000  0.92265000  1.0 -0.5373198932
O  O11  1  0.59280000  0.94630000  0.42265000  1.0 -0.5373198932
O  O12  1  0.90720000  0.44630000  0.57735000  1.0 -0.5373198932
O  O13  1  0.90720000  0.44630000  0.92265000  1.0 -0.5373198932
O  O14  1  0.59280000  0.94630000  0.07735000  1.0 -0.5373198932
O  O15  1  0.40720000  0.05370000  0.57735000  1.0 -0.5373198932
O  O16  1  0.09280000  0.55370000  0.42265000  1.0 -0.5373198932
O  O17  1  0.22660000  0.91287000  0.98437000  1.0 -0.6209527573
O  O18  1  0.27340000  0.41287000  0.01563000  1.0 -0.6209527573
O  O19  1  0.72660000  0.58713000  0.51563000  1.0 -0.6209527573
O  O20  1  0.77340000  0.08713000  0.48437000  1.0 -0.6209527573
O  O21  1  0.77340000  0.08713000  0.01563000  1.0 -0.6209527573
O  O22  1  0.72660000  0.58713000  0.98437000  1.0 -0.6209527573
O  O23  1  0.27340000  0.41287000  0.48437000  1.0 -0.6209527573
O  O24  1  0.22660000  0.91287000  0.51563000  1.0 -0.6209527573
O  O25  1  0.26950000  0.82343000  0.92568000  1.0 -0.4829688241
O  O26  1  0.23050000  0.32343000  0.07432000  1.0 -0.4829688241
O  O27  1  0.76950000  0.67657000  0.57432000  1.0 -0.4829688241
O  O28  1  0.73050000  0.17657000  0.42568000  1.0 -0.4829688241
O  O29  1  0.73050000  0.17657000  0.07432000  1.0 -0.4829688241
O  O30  1  0.76950000  0.67657000  0.92568000  1.0 -0.4829688241
O  O31  1  0.23050000  0.32343000  0.42568000  1.0 -0.4829688241
O  O32  1  0.26950000  0.82343000  0.57432000  1.0 -0.4829688241
O  O33  1  0.55980000  0.50400000  0.09706000  1.0 -0.5754430762
O  O34  1  0.94020000  0.00400000  0.90294000  1.0 -0.5754430762
O  O35  1  0.05980000  0.99600000  0.40294000  1.0 -0.5754430762
O  O36  1  0.44020000  0.49600000  0.59706000  1.0 -0.5754430762
O  O37  1  0.44020000  0.49600000  0.90294000  1.0 -0.5754430762
O  O38  1  0.05980000  0.99600000  0.09706000  1.0 -0.5754430762
O  O39  1  0.94020000  0.00400000  0.59706000  1.0 -0.5754430762
O  O40  1  0.55980000  0.50400000  0.40294000  1.0 -0.5754430762
O  O41  1  0.32700000  0.46219000  0.14916000  1.0 -0.5343750363
O  O42  1  0.17300000  0.96219000  0.85084000  1.0 -0.5343750363
O  O43  1  0.82700000  0.03781000  0.35084000  1.0 -0.5343750363
O  O44  1  0.67300000  0.53781000  0.64916000  1.0 -0.5343750363
O  O45  1  0.67300000  0.53781000  0.85084000  1.0 -0.5343750363
O  O46  1  0.82700000  0.03781000  0.14916000  1.0 -0.5343750363
O  O47  1  0.17300000  0.96219000  0.64916000  1.0 -0.5343750363
O  O48  1  0.32700000  0.46219000  0.35084000  1.0 -0.5343750363
O  O49  1  0.91480000  0.41236000  0.11449000  1.0 -0.6108886769
O  O50  1  0.58520000  0.91236000  0.88551000  1.0 -0.6108886769
O  O51  1  0.41480000  0.08764000  0.38551000  1.0 -0.6108886769
O  O52  1  0.08520000  0.58764000  0.61449000  1.0 -0.6108886769
O  O53  1  0.08520000  0.58764000  0.88551000  1.0 -0.6108886769
O  O54  1  0.41480000  0.08764000  0.11449000  1.0 -0.6108886769
O  O55  1  0.58520000  0.91236000  0.61449000  1.0 -0.6108886769
O  O56  1  0.91480000  0.41236000  0.38551000  1.0 -0.6108886769
