# DDEC6 charges by PACMAN v1.1 (https://github.com/mtap-research/PACMAN-charge/)
data_REGSUS_ASR_pacman
_symmetry_space_group_name_H-M   'P 1'
_cell_length_a   16.63500000
_cell_length_b   12.36000000
_cell_length_c   10.35900000
_cell_angle_alpha   90.00000000
_cell_angle_beta   91.92000000
_cell_angle_gamma   90.00000000
_symmetry_Int_Tables_number   1
_chemical_formula_structural   KBi2H8(C6O7)2
_chemical_formula_sum   'K4 Bi8 H32 C48 O56'
_cell_volume   2128.70372288
_cell_formula_units_Z   4
loop_
 _symmetry_equiv_pos_site_id
 _symmetry_equiv_pos_as_xyz
  1  'x, y, z'
loop_
 _atom_site_type_symbol
 _atom_site_label
 _atom_site_symmetry_multiplicity
 _atom_site_fract_x
 _atom_site_fract_y
 _atom_site_fract_z
 _atom_site_occupancy
 _atom_site_charge
K  K1  1  0.00000000  0.34655000  0.75000000  1.0 0.8754133999
K  K2  1  0.00000000  0.65345000  0.25000000  1.0 0.8754133999
K  K3  1  0.50000000  0.84655000  0.75000000  1.0 0.8754133999
K  K4  1  0.50000000  0.15345000  0.25000000  1.0 0.8754133999
Bi  Bi1  1  0.10567000  0.12747000  0.00554000  1.0 1.4771058806
Bi  Bi2  1  0.89433000  0.87253000  0.99446000  1.0 1.4746729552
Bi  Bi3  1  0.89433000  0.12747000  0.49446000  1.0 1.4771058806
Bi  Bi4  1  0.10567000  0.87253000  0.50554000  1.0 1.4771058806
Bi  Bi5  1  0.60567000  0.62746000  0.00555000  1.0 1.4771058806
Bi  Bi6  1  0.39433000  0.37254000  0.99445000  1.0 1.4771058806
Bi  Bi7  1  0.39433000  0.62746000  0.49445000  1.0 1.4771058806
Bi  Bi8  1  0.60567000  0.37254000  0.50555000  1.0 1.4771058806
H  H1  1  0.26310000  0.29098000  0.27242000  1.0 0.158594799
H  H2  1  0.73690000  0.70902000  0.72758000  1.0 0.158594799
H  H3  1  0.73690000  0.29098000  0.22758000  1.0 0.158594799
H  H4  1  0.26310000  0.70902000  0.77242000  1.0 0.158594799
H  H5  1  0.76310000  0.79098000  0.27242000  1.0 0.158594799
H  H6  1  0.23690000  0.20902000  0.72758000  1.0 0.158594799
H  H7  1  0.23690000  0.79098000  0.22758000  1.0 0.158594799
H  H8  1  0.76310000  0.20902000  0.77242000  1.0 0.158594799
H  H9  1  0.29511000  0.16304000  0.33444000  1.0 0.134629634
H  H10  1  0.70489000  0.83696000  0.66556000  1.0 0.1401678645
H  H11  1  0.70489000  0.16304000  0.16556000  1.0 0.1401678645
H  H12  1  0.29511000  0.83696000  0.83444000  1.0 0.1401678645
H  H13  1  0.79511000  0.66304000  0.33444000  1.0 0.1401678645
H  H14  1  0.20489000  0.33696000  0.66556000  1.0 0.1401678645
H  H15  1  0.20489000  0.66304000  0.16556000  1.0 0.134629634
H  H16  1  0.79511000  0.33696000  0.83444000  1.0 0.1401678645
H  H17  1  0.15257000  0.29550000  0.41876000  1.0 0.1401678645
H  H18  1  0.84743000  0.70450000  0.58124000  1.0 0.1401678645
H  H19  1  0.84743000  0.29550000  0.08124000  1.0 0.1401678645
H  H20  1  0.15257000  0.70450000  0.91876000  1.0 0.1401678645
H  H21  1  0.65257000  0.79550000  0.41875000  1.0 0.1401678645
H  H22  1  0.34743000  0.20450000  0.58125000  1.0 0.1401678645
H  H23  1  0.34743000  0.79550000  0.08125000  1.0 0.1401678645
H  H24  1  0.65257000  0.20450000  0.91875000  1.0 0.1401678645
H  H25  1  0.18612000  0.16813000  0.48467000  1.0 0.1401678645
H  H26  1  0.81388000  0.83187000  0.51533000  1.0 0.1401678645
H  H27  1  0.81388000  0.16813000  0.01533000  1.0 0.1401678645
H  H28  1  0.18612000  0.83187000  0.98467000  1.0 0.1401678645
H  H29  1  0.68612000  0.66813000  0.48467000  1.0 0.1401678645
H  H30  1  0.31388000  0.33187000  0.51533000  1.0 0.1401678645
H  H31  1  0.31388000  0.66813000  0.01533000  1.0 0.1401678645
H  H32  1  0.68612000  0.33187000  0.98467000  1.0 0.1401678645
C  C1  1  0.16299000  0.04256000  0.26700000  1.0 0.5391265869
C  C2  1  0.83701000  0.95744000  0.73300000  1.0 0.5391265869
C  C3  1  0.83701000  0.04256000  0.23300000  1.0 0.5391265869
C  C4  1  0.16299000  0.95744000  0.76700000  1.0 0.5391265869
C  C5  1  0.66299000  0.54255000  0.26700000  1.0 0.5391265869
C  C6  1  0.33701000  0.45745000  0.73300000  1.0 0.5391265869
C  C7  1  0.33701000  0.54255000  0.23300000  1.0 0.5391265869
C  C8  1  0.66299000  0.45745000  0.76700000  1.0 0.5391265869
C  C9  1  0.16820000  0.17004000  0.27542000  1.0 0.2610357821
C  C10  1  0.83180000  0.82996000  0.72458000  1.0 0.2610357821
C  C11  1  0.83180000  0.17004000  0.22458000  1.0 0.2610357821
C  C12  1  0.16820000  0.82996000  0.77542000  1.0 0.2610357821
C  C13  1  0.66820000  0.67004000  0.27542000  1.0 0.2610357821
C  C14  1  0.33180000  0.32996000  0.72458000  1.0 0.2610357821
C  C15  1  0.33180000  0.67004000  0.22458000  1.0 0.2610357821
C  C16  1  0.66820000  0.32996000  0.77542000  1.0 0.2610357821
C  C17  1  0.25712000  0.20236000  0.25821000  1.0 -0.3880253725
C  C18  1  0.74288000  0.79764000  0.74179000  1.0 -0.3880253725
C  C19  1  0.74288000  0.20236000  0.24179000  1.0 -0.3880253725
C  C20  1  0.25712000  0.79764000  0.75821000  1.0 -0.3880253725
C  C21  1  0.75712000  0.70236000  0.25822000  1.0 -0.3880253725
C  C22  1  0.24288000  0.29764000  0.74178000  1.0 -0.3880253725
C  C23  1  0.24288000  0.70236000  0.24178000  1.0 -0.3880253725
C  C24  1  0.75712000  0.29764000  0.75822000  1.0 -0.3880253725
C  C25  1  0.29368000  0.17844000  0.12870000  1.0 0.6787043705
C  C26  1  0.70632000  0.82156000  0.87130000  1.0 0.6787043705
C  C27  1  0.70632000  0.17844000  0.37130000  1.0 0.6787043705
C  C28  1  0.29368000  0.82156000  0.62870000  1.0 0.6787043705
C  C29  1  0.79368000  0.67844000  0.12870000  1.0 0.6787043705
C  C30  1  0.20632000  0.32156000  0.87130000  1.0 0.6787043705
C  C31  1  0.20632000  0.67844000  0.37130000  1.0 0.6787043705
C  C32  1  0.79368000  0.32156000  0.62870000  1.0 0.6787043705
C  C33  1  0.14538000  0.20672000  0.41163000  1.0 -0.3576816201
C  C34  1  0.85462000  0.79328000  0.58837000  1.0 -0.3576816201
C  C35  1  0.85462000  0.20672000  0.08837000  1.0 -0.3576816201
C  C36  1  0.14538000  0.79328000  0.91163000  1.0 -0.3576816201
C  C37  1  0.64538000  0.70672000  0.41163000  1.0 -0.3576816201
C  C38  1  0.35462000  0.29328000  0.58837000  1.0 -0.3576816201
C  C39  1  0.35462000  0.70672000  0.08837000  1.0 -0.3576816201
C  C40  1  0.64538000  0.29328000  0.91163000  1.0 -0.3576816201
C  C41  1  0.93930000  0.17714000  0.04960000  1.0 0.6683719575
C  C42  1  0.06070000  0.82286000  0.95040000  1.0 0.6683719575
C  C43  1  0.06070000  0.17714000  0.45040000  1.0 0.6683719575
C  C44  1  0.93930000  0.82286000  0.54960000  1.0 0.6683719575
C  C45  1  0.43930000  0.67714000  0.04960000  1.0 0.6683719575
C  C46  1  0.56070000  0.32286000  0.95040000  1.0 0.6683719575
C  C47  1  0.56070000  0.67714000  0.45040000  1.0 0.6683719575
C  C48  1  0.43930000  0.32286000  0.54960000  1.0 0.6683719575
O  O1  1  0.11661000  0.21938000  0.18340000  1.0 -0.5064711675
O  O2  1  0.88339000  0.78062000  0.81660000  1.0 -0.5064711675
O  O3  1  0.88339000  0.21938000  0.31660000  1.0 -0.5064711675
O  O4  1  0.11661000  0.78062000  0.68340000  1.0 -0.5064711675
O  O5  1  0.61661000  0.71938000  0.18340000  1.0 -0.5064711675
O  O6  1  0.38339000  0.28062000  0.81660000  1.0 -0.5064711675
O  O7  1  0.38339000  0.71938000  0.31660000  1.0 -0.5064711675
O  O8  1  0.61661000  0.28062000  0.68340000  1.0 -0.5064711675
O  O9  1  0.19479000  0.99290000  0.36149000  1.0 -0.5270350104
O  O10  1  0.80521000  0.00710000  0.63851000  1.0 -0.5270350104
O  O11  1  0.80521000  0.99290000  0.13851000  1.0 -0.5270350104
O  O12  1  0.19479000  0.00710000  0.86149000  1.0 -0.5270350104
O  O13  1  0.69480000  0.49289000  0.36149000  1.0 -0.5270350104
O  O14  1  0.30520000  0.50711000  0.63851000  1.0 -0.5270350104
O  O15  1  0.30520000  0.49289000  0.13851000  1.0 -0.5270350104
O  O16  1  0.69480000  0.50711000  0.86149000  1.0 -0.5270350104
O  O17  1  0.12961000  0.99914000  0.16625000  1.0 -0.5270350104
O  O18  1  0.87039000  0.00086000  0.83375000  1.0 -0.5243475433
O  O19  1  0.87039000  0.99914000  0.33375000  1.0 -0.5243475433
O  O20  1  0.12961000  0.00086000  0.66625000  1.0 -0.5270350104
O  O21  1  0.62961000  0.49914000  0.16625000  1.0 -0.5243475433
O  O22  1  0.37039000  0.50086000  0.83375000  1.0 -0.5243475433
O  O23  1  0.37039000  0.49914000  0.33375000  1.0 -0.5243475433
O  O24  1  0.62961000  0.50086000  0.66625000  1.0 -0.5270350104
O  O25  1  0.96930000  0.08529000  0.08262000  1.0 -0.5734368146
O  O26  1  0.03070000  0.91471000  0.91738000  1.0 -0.5734368146
O  O27  1  0.03070000  0.08529000  0.41738000  1.0 -0.5734368146
O  O28  1  0.96930000  0.91471000  0.58262000  1.0 -0.5734368146
O  O29  1  0.46930000  0.58529000  0.08263000  1.0 -0.5734368146
O  O30  1  0.53070000  0.41471000  0.91737000  1.0 -0.5734368146
O  O31  1  0.53070000  0.58529000  0.41737000  1.0 -0.5734368146
O  O32  1  0.46930000  0.41471000  0.58263000  1.0 -0.5734368146
O  O33  1  0.97735000  0.24484000  0.98121000  1.0 -0.6040716425
O  O34  1  0.02265000  0.75516000  0.01879000  1.0 -0.6040716425
O  O35  1  0.02265000  0.24484000  0.51879000  1.0 -0.6040716425
O  O36  1  0.97735000  0.75516000  0.48121000  1.0 -0.6040716425
O  O37  1  0.47735000  0.74484000  0.98121000  1.0 -0.6040716425
O  O38  1  0.52265000  0.25516000  0.01879000  1.0 -0.6040716425
O  O39  1  0.52265000  0.74484000  0.51879000  1.0 -0.6040716425
O  O40  1  0.47735000  0.25516000  0.48121000  1.0 -0.6040716425
O  O41  1  0.25459000  0.13439000  0.03584000  1.0 -0.5243475433
O  O42  1  0.74541000  0.86561000  0.96416000  1.0 -0.5243475433
O  O43  1  0.74541000  0.13439000  0.46416000  1.0 -0.5243475433
O  O44  1  0.25459000  0.86561000  0.53584000  1.0 -0.5243475433
O  O45  1  0.75459000  0.63439000  0.03584000  1.0 -0.5243475433
O  O46  1  0.24541000  0.36561000  0.96416000  1.0 -0.5243475433
O  O47  1  0.24541000  0.63439000  0.46416000  1.0 -0.5243475433
O  O48  1  0.75459000  0.36561000  0.53584000  1.0 -0.5243475433
O  O49  1  0.13186000  0.29243000  0.87882000  1.0 -0.6330364824
O  O50  1  0.86814000  0.70757000  0.12118000  1.0 -0.6330364824
O  O51  1  0.86814000  0.29243000  0.62118000  1.0 -0.6330364824
O  O52  1  0.13186000  0.70757000  0.37882000  1.0 -0.6330364824
O  O53  1  0.63186000  0.79244000  0.87882000  1.0 -0.6330364824
O  O54  1  0.36814000  0.20756000  0.12118000  1.0 -0.6330364824
O  O55  1  0.36814000  0.79244000  0.62118000  1.0 -0.6330364824
O  O56  1  0.63186000  0.20756000  0.37882000  1.0 -0.6330364824
