# DDEC6 charges by PACMAN v1.1 (https://github.com/mtap-research/PACMAN-charge/)
data_REHHIX_ASR_pacman
_symmetry_space_group_name_H-M   'P 1'
_cell_length_a   19.87390000
_cell_length_b   19.87390000
_cell_length_c   23.45200000
_cell_angle_alpha   63.47440000
_cell_angle_beta   116.52600000
_cell_angle_gamma   125.39100000
_symmetry_Int_Tables_number   1
_chemical_formula_structural   Cd3H15C33(NO7)2
_chemical_formula_sum   'Cd12 H60 C132 N8 O56'
_cell_volume   6528.22174083
_cell_formula_units_Z   4
loop_
 _symmetry_equiv_pos_site_id
 _symmetry_equiv_pos_as_xyz
  1  'x, y, z'
loop_
 _atom_site_type_symbol
 _atom_site_label
 _atom_site_symmetry_multiplicity
 _atom_site_fract_x
 _atom_site_fract_y
 _atom_site_fract_z
 _atom_site_occupancy
 _atom_site_charge
Cd  Cd1  1  0.81161000  0.39461000  0.31372000  1.0 0.9171512389
Cd  Cd2  1  0.39461000  0.81161000  0.18628000  1.0 0.9171512389
Cd  Cd3  1  0.18839000  0.60539000  0.68628000  1.0 0.9171512389
Cd  Cd4  1  0.60539000  0.18839000  0.81372000  1.0 0.9171512389
Cd  Cd5  1  0.22337000  0.86985000  0.02894000  1.0 1.0744987393
Cd  Cd6  1  0.86985000  0.22337000  0.47106000  1.0 1.0744987393
Cd  Cd7  1  0.77663000  0.13015000  0.97106000  1.0 1.0744987393
Cd  Cd8  1  0.13015000  0.77663000  0.52894000  1.0 1.0744987393
Cd  Cd9  1  0.69775000  0.06307000  0.82982000  1.0 1.006797638
Cd  Cd10  1  0.06307000  0.69775000  0.67018000  1.0 1.006797638
Cd  Cd11  1  0.30225000  0.93693000  0.17018000  1.0 1.006797638
Cd  Cd12  1  0.93693000  0.30225000  0.32982000  1.0 1.006797638
H  H1  1  0.79300000  0.64140000  0.16410000  1.0 0.1125444784
H  H2  1  0.64140000  0.79300000  0.33590000  1.0 0.1125444784
H  H3  1  0.20700000  0.35860000  0.83590000  1.0 0.1125444784
H  H4  1  0.35860000  0.20700000  0.66410000  1.0 0.1125444784
H  H5  1  0.74150000  0.73430000  0.08610000  1.0 0.1191613635
H  H6  1  0.73430000  0.74150000  0.41390000  1.0 0.1191613635
H  H7  1  0.25850000  0.26570000  0.91390000  1.0 0.1191613635
H  H8  1  0.26570000  0.25850000  0.58610000  1.0 0.1191613635
H  H9  1  0.55090000  0.59950000  0.17580000  1.0 0.1125444784
H  H10  1  0.59950000  0.55090000  0.32420000  1.0 0.1125444784
H  H11  1  0.44910000  0.40050000  0.82420000  1.0 0.1125444784
H  H12  1  0.40050000  0.44910000  0.67580000  1.0 0.1125444784
H  H13  1  0.59510000  0.49650000  0.23840000  1.0 0.1191613635
H  H14  1  0.49650000  0.59510000  0.26160000  1.0 0.1191613635
H  H15  1  0.40490000  0.50350000  0.76160000  1.0 0.1191613635
H  H16  1  0.50350000  0.40490000  0.73840000  1.0 0.1191613635
H  H17  1  0.43770000  0.95090000  0.94910000  1.0 0.1305800429
H  H18  1  0.95090000  0.43770000  0.55090000  1.0 0.1305800429
H  H19  1  0.56230000  0.04910000  0.05090000  1.0 0.1305800429
H  H20  1  0.04910000  0.56230000  0.44910000  1.0 0.1305800429
H  H21  1  0.61370000  0.88210000  0.99560000  1.0 0.1399939472
H  H22  1  0.88210000  0.61370000  0.50440000  1.0 0.1399939472
H  H23  1  0.38630000  0.11790000  0.00440000  1.0 0.1399939472
H  H24  1  0.11790000  0.38630000  0.49560000  1.0 0.1399939472
H  H25  1  0.43290000  0.74090000  0.09460000  1.0 0.1305800429
H  H26  1  0.74090000  0.43290000  0.40540000  1.0 0.1305800429
H  H27  1  0.56710000  0.25910000  0.90540000  1.0 0.1305800429
H  H28  1  0.25910000  0.56710000  0.59460000  1.0 0.1305800429
H  H29  1  0.03550000  0.94850000  0.44820000  1.0 0.1305800429
H  H30  1  0.94850000  0.03550000  0.05180000  1.0 0.1305800429
H  H31  1  0.96450000  0.05150000  0.55180000  1.0 0.1305800429
H  H32  1  0.05150000  0.96450000  0.94820000  1.0 0.1305800429
H  H33  1  0.95010000  0.01230000  0.37700000  1.0 0.1191613635
H  H34  1  0.01230000  0.95010000  0.12300000  1.0 0.1191613635
H  H35  1  0.04990000  0.98770000  0.62300000  1.0 0.1191613635
H  H36  1  0.98770000  0.04990000  0.87700000  1.0 0.1191613635
H  H37  1  0.77250000  0.83870000  0.47460000  1.0 0.1191613635
H  H38  1  0.83870000  0.77250000  0.02540000  1.0 0.1191613635
H  H39  1  0.22750000  0.16130000  0.52540000  1.0 0.1191613635
H  H40  1  0.16130000  0.22750000  0.97460000  1.0 0.1191613635
H  H41  1  0.86370000  0.78590000  0.55270000  1.0 0.1305800429
H  H42  1  0.78590000  0.86370000  0.94730000  1.0 0.1305800429
H  H43  1  0.13630000  0.21410000  0.44730000  1.0 0.1305800429
H  H44  1  0.21410000  0.13630000  0.05270000  1.0 0.1305800429
H  H45  1  0.78630000  0.10470000  0.36770000  1.0 0.1125444784
H  H46  1  0.10470000  0.78630000  0.13230000  1.0 0.1125444784
H  H47  1  0.21370000  0.89530000  0.63230000  1.0 0.1125444784
H  H48  1  0.89530000  0.21370000  0.86770000  1.0 0.1125444784
H  H49  1  0.56540000  0.90360000  0.31220000  1.0 0.1191613635
H  H50  1  0.90360000  0.56540000  0.18780000  1.0 0.1191613635
H  H51  1  0.43460000  0.09640000  0.68780000  1.0 0.1191613635
H  H52  1  0.09640000  0.43460000  0.81220000  1.0 0.1191613635
H  H53  1  0.57610000  0.13190000  0.25690000  1.0 0.1305800429
H  H54  1  0.13190000  0.57610000  0.24310000  1.0 0.1305800429
H  H55  1  0.42390000  0.86810000  0.74310000  1.0 0.1305800429
H  H56  1  0.86810000  0.42390000  0.75690000  1.0 0.1305800429
H  H57  1  0.83100000  0.03500000  0.35000000  1.0 0.0837982038
H  H58  1  0.03500000  0.83100000  0.15000000  1.0 0.0837982038
H  H59  1  0.16900000  0.96500000  0.65000000  1.0 0.0837982038
H  H60  1  0.96500000  0.16900000  0.85000000  1.0 0.0837982038
C  C1  1  0.73230000  0.49010000  0.24530000  1.0 0.3506247664
C  C2  1  0.49010000  0.73230000  0.25470000  1.0 0.3506247664
C  C3  1  0.26770000  0.50990000  0.75470000  1.0 0.3506247664
C  C4  1  0.50990000  0.26770000  0.74530000  1.0 0.3506247664
C  C5  1  0.69520000  0.55060000  0.20240000  1.0 -0.0988025496
C  C6  1  0.55060000  0.69520000  0.29760000  1.0 -0.0988025496
C  C7  1  0.30480000  0.44940000  0.79760000  1.0 -0.0988025496
C  C8  1  0.44940000  0.30480000  0.70240000  1.0 -0.0988025496
C  C9  1  0.73850000  0.62790000  0.16130000  1.0 -0.1516677615
C  C10  1  0.62790000  0.73850000  0.33870000  1.0 -0.1516677615
C  C11  1  0.26150000  0.37210000  0.83870000  1.0 -0.1516677615
C  C12  1  0.37210000  0.26150000  0.66130000  1.0 -0.1516677615
C  C13  1  0.71170000  0.68790000  0.11650000  1.0 -0.1516677615
C  C14  1  0.68790000  0.71170000  0.38350000  1.0 -0.1516677615
C  C15  1  0.28830000  0.31210000  0.88350000  1.0 -0.1516677615
C  C16  1  0.31210000  0.28830000  0.61650000  1.0 -0.1516677615
C  C17  1  0.63660000  0.67180000  0.12150000  1.0 0.0600581804
C  C18  1  0.67180000  0.63660000  0.37850000  1.0 0.0600581804
C  C19  1  0.36340000  0.32820000  0.87850000  1.0 0.0600581804
C  C20  1  0.32820000  0.36340000  0.62150000  1.0 0.0600581804
C  C21  1  0.59650000  0.60430000  0.16930000  1.0 -0.1585346049
C  C22  1  0.60430000  0.59650000  0.33070000  1.0 -0.1585346049
C  C23  1  0.40350000  0.39570000  0.83070000  1.0 -0.1585346049
C  C24  1  0.39570000  0.40350000  0.66930000  1.0 -0.1585346049
C  C25  1  0.62460000  0.54320000  0.20810000  1.0 -0.1516677615
C  C26  1  0.54320000  0.62460000  0.29190000  1.0 -0.1516677615
C  C27  1  0.37540000  0.45680000  0.79190000  1.0 -0.1516677615
C  C28  1  0.45680000  0.37540000  0.70810000  1.0 -0.1516677615
C  C29  1  0.60220000  0.73380000  0.07920000  1.0 0.0486462895
C  C30  1  0.73380000  0.60220000  0.42080000  1.0 0.0486462895
C  C31  1  0.39780000  0.26620000  0.92080000  1.0 0.0486462895
C  C32  1  0.26620000  0.39780000  0.57920000  1.0 0.0486462895
C  C33  1  0.34580000  0.82820000  0.03420000  1.0 0.5813242459
C  C34  1  0.82820000  0.34580000  0.46580000  1.0 0.5813242459
C  C35  1  0.65420000  0.17180000  0.96580000  1.0 0.5813242459
C  C36  1  0.17180000  0.65420000  0.53420000  1.0 0.5813242459
C  C37  1  0.42280000  0.84340000  0.02320000  1.0 -0.0019334295
C  C38  1  0.84340000  0.42280000  0.47680000  1.0 -0.0019334295
C  C39  1  0.57720000  0.15660000  0.97680000  1.0 -0.0019334295
C  C40  1  0.15660000  0.57720000  0.52320000  1.0 -0.0019334295
C  C41  1  0.46070000  0.91390000  0.97500000  1.0 -0.116176132
C  C42  1  0.91390000  0.46070000  0.52500000  1.0 -0.116176132
C  C43  1  0.53930000  0.08610000  0.02500000  1.0 -0.1088842773
C  C44  1  0.08610000  0.53930000  0.47500000  1.0 -0.116176132
C  C45  1  0.53250000  0.92910000  0.96550000  1.0 0.0100367944
C  C46  1  0.92910000  0.53250000  0.53450000  1.0 0.0100367944
C  C47  1  0.46750000  0.07090000  0.03450000  1.0 0.0100367944
C  C48  1  0.07090000  0.46750000  0.46550000  1.0 0.0100367944
C  C49  1  0.56580000  0.87240000  0.00250000  1.0 -0.200139515
C  C50  1  0.87240000  0.56580000  0.49750000  1.0 -0.200139515
C  C51  1  0.43420000  0.12760000  0.99750000  1.0 -0.200139515
C  C52  1  0.12760000  0.43420000  0.50250000  1.0 -0.200139515
C  C53  1  0.52630000  0.80030000  0.05030000  1.0 0.1305800429
C  C54  1  0.80030000  0.52630000  0.44970000  1.0 0.1305800429
C  C55  1  0.47370000  0.19970000  0.94970000  1.0 0.1305800429
C  C56  1  0.19970000  0.47370000  0.55030000  1.0 0.1305800429
C  C57  1  0.45720000  0.78720000  0.06150000  1.0 -0.200139515
C  C58  1  0.78720000  0.45720000  0.43850000  1.0 -0.200139515
C  C59  1  0.54280000  0.21280000  0.93850000  1.0 -0.200139515
C  C60  1  0.21280000  0.54280000  0.56150000  1.0 -0.200139515
C  C61  1  0.57750000  0.00850000  0.91760000  1.0 0.5917273426
C  C62  1  0.00850000  0.57750000  0.58240000  1.0 0.5917273426
C  C63  1  0.42250000  0.99150000  0.08240000  1.0 0.5917273426
C  C64  1  0.99150000  0.42250000  0.41760000  1.0 0.5917273426
C  C65  1  0.01540000  0.82200000  0.55720000  1.0 0.5717380086
C  C66  1  0.82200000  0.01540000  0.94280000  1.0 0.5717380086
C  C67  1  0.98460000  0.17800000  0.44280000  1.0 0.5717380086
C  C68  1  0.17800000  0.98460000  0.05720000  1.0 0.5717380086
C  C69  1  0.95800000  0.86080000  0.50690000  1.0 -0.0283874642
C  C70  1  0.86080000  0.95800000  0.99310000  1.0 -0.0283874642
C  C71  1  0.04200000  0.13920000  0.49310000  1.0 -0.0283874642
C  C72  1  0.13920000  0.04200000  0.00690000  1.0 -0.0283874642
C  C73  1  0.98320000  0.92760000  0.45490000  1.0 -0.1088842773
C  C74  1  0.92760000  0.98320000  0.04510000  1.0 -0.1088842773
C  C75  1  0.01680000  0.07240000  0.54510000  1.0 -0.1088842773
C  C76  1  0.07240000  0.01680000  0.95490000  1.0 -0.1088842773
C  C77  1  0.93110000  0.96490000  0.41150000  1.0 -0.1516677615
C  C78  1  0.96490000  0.93110000  0.08850000  1.0 -0.1516677615
C  C79  1  0.06890000  0.03510000  0.58850000  1.0 -0.1516677615
C  C80  1  0.03510000  0.06890000  0.91150000  1.0 -0.1516677615
C  C81  1  0.85220000  0.93280000  0.41890000  1.0 0.0689128304
C  C82  1  0.93280000  0.85220000  0.08110000  1.0 0.0689128304
C  C83  1  0.14780000  0.06720000  0.58110000  1.0 0.0689128304
C  C84  1  0.06720000  0.14780000  0.91890000  1.0 0.0689128304
C  C85  1  0.82710000  0.86370000  0.47030000  1.0 -0.13036108
C  C86  1  0.86370000  0.82710000  0.02970000  1.0 -0.13036108
C  C87  1  0.17290000  0.13630000  0.52970000  1.0 -0.13036108
C  C88  1  0.13630000  0.17290000  0.97030000  1.0 -0.13036108
C  C89  1  0.88030000  0.82990000  0.51580000  1.0 -0.1088842773
C  C90  1  0.82990000  0.88030000  0.98420000  1.0 -0.1088842773
C  C91  1  0.11970000  0.17010000  0.48420000  1.0 -0.1088842773
C  C92  1  0.17010000  0.11970000  0.01580000  1.0 -0.1088842773
C  C93  1  0.79950000  0.97550000  0.37540000  1.0 0.0486462895
C  C94  1  0.97550000  0.79950000  0.12460000  1.0 0.0486462895
C  C95  1  0.20050000  0.02450000  0.62460000  1.0 0.0486462895
C  C96  1  0.02450000  0.20050000  0.87540000  1.0 0.0486462895
C  C97  1  0.73700000  0.22320000  0.31440000  1.0 0.5813242459
C  C98  1  0.22320000  0.73700000  0.18560000  1.0 0.5813242459
C  C99  1  0.26300000  0.77680000  0.68560000  1.0 0.5813242459
C  C100  1  0.77680000  0.26300000  0.81440000  1.0 0.5813242459
C  C101  1  0.68910000  0.13250000  0.31220000  1.0 -0.0283874642
C  C102  1  0.13250000  0.68910000  0.18780000  1.0 -0.0283874642
C  C103  1  0.31090000  0.86750000  0.68780000  1.0 -0.0283874642
C  C104  1  0.86750000  0.31090000  0.81220000  1.0 -0.0283874642
C  C105  1  0.72900000  0.08160000  0.34480000  1.0 -0.200139515
C  C106  1  0.08160000  0.72900000  0.15520000  1.0 -0.200139515
C  C107  1  0.27100000  0.91840000  0.65520000  1.0 -0.200139515
C  C108  1  0.91840000  0.27100000  0.84480000  1.0 -0.200139515
C  C109  1  0.68410000  0.99670000  0.34330000  1.0 0.2051520759
C  C110  1  0.99670000  0.68410000  0.15670000  1.0 0.2051520759
C  C111  1  0.31590000  0.00330000  0.65670000  1.0 0.2044733131
C  C112  1  0.00330000  0.31590000  0.84330000  1.0 0.2051520759
C  C113  1  0.59690000  0.96130000  0.31130000  1.0 -0.1780388689
C  C114  1  0.96130000  0.59690000  0.18870000  1.0 -0.1780388689
C  C115  1  0.40310000  0.03870000  0.68870000  1.0 -0.1780388689
C  C116  1  0.03870000  0.40310000  0.81130000  1.0 -0.1780388689
C  C117  1  0.55750000  0.01270000  0.27810000  1.0 -0.017104965
C  C118  1  0.01270000  0.55750000  0.22190000  1.0 -0.017104965
C  C119  1  0.44250000  0.98730000  0.72190000  1.0 -0.017104965
C  C120  1  0.98730000  0.44250000  0.77810000  1.0 -0.017104965
C  C121  1  0.60300000  0.09800000  0.27870000  1.0 -0.1088842773
C  C122  1  0.09800000  0.60300000  0.22130000  1.0 -0.1088842773
C  C123  1  0.39700000  0.90200000  0.72130000  1.0 -0.1088842773
C  C124  1  0.90200000  0.39700000  0.77870000  1.0 -0.1088842773
C  C125  1  0.46500000  0.97780000  0.24220000  1.0 0.5717380086
C  C126  1  0.97780000  0.46500000  0.25780000  1.0 0.5717380086
C  C127  1  0.53500000  0.02220000  0.75780000  1.0 0.5717380086
C  C128  1  0.02220000  0.53500000  0.74220000  1.0 0.5717380086
C  C129  1  0.54680000  0.68100000  0.11730000  1.0 0.0100367944
C  C130  1  0.68100000  0.54680000  0.38270000  1.0 0.0100367944
C  C131  1  0.45320000  0.31900000  0.88270000  1.0 0.0100367944
C  C132  1  0.31900000  0.45320000  0.61730000  1.0 0.0100367944
N  N1  1  0.55830000  0.74070000  0.09000000  1.0 -0.0667544415
N  N2  1  0.74070000  0.55830000  0.41000000  1.0 -0.0667544415
N  N3  1  0.44170000  0.25930000  0.91000000  1.0 -0.0667544415
N  N4  1  0.25930000  0.44170000  0.59000000  1.0 -0.0667544415
N  N5  1  0.72370000  0.94450000  0.37820000  1.0 -0.2921722194
N  N6  1  0.94450000  0.72370000  0.12180000  1.0 -0.2921722194
N  N7  1  0.27630000  0.05550000  0.62180000  1.0 -0.2921722194
N  N8  1  0.05550000  0.27630000  0.87820000  1.0 -0.2921722194
O  O1  1  0.79960000  0.51040000  0.24370000  1.0 0.0016005066
O  O2  1  0.51040000  0.79960000  0.25630000  1.0 0.0016005066
O  O3  1  0.20040000  0.48960000  0.75630000  1.0 0.0016005066
O  O4  1  0.48960000  0.20040000  0.74370000  1.0 0.0016005066
O  O5  1  0.69010000  0.41970000  0.28590000  1.0 -0.1868728212
O  O6  1  0.41970000  0.69010000  0.21410000  1.0 -0.1868728212
O  O7  1  0.30990000  0.58030000  0.71410000  1.0 -0.1868728212
O  O8  1  0.58030000  0.30990000  0.78590000  1.0 -0.1868728212
O  O9  1  0.30814000  0.87046000  0.99050000  1.0 -0.5720670557
O  O10  1  0.87046000  0.30814000  0.50950000  1.0 -0.5720670557
O  O11  1  0.69186000  0.12954000  0.00950000  1.0 -0.5720670557
O  O12  1  0.12954000  0.69186000  0.49050000  1.0 -0.5720670557
O  O13  1  0.32336000  0.77584000  0.08680000  1.0 -0.5928074455
O  O14  1  0.77584000  0.32336000  0.41320000  1.0 -0.5928074455
O  O15  1  0.67664000  0.22416000  0.91320000  1.0 -0.5928074455
O  O16  1  0.22416000  0.67664000  0.58680000  1.0 -0.5928074455
O  O17  1  0.65187000  0.02613000  0.92070000  1.0 -0.6217720097
O  O18  1  0.02613000  0.65187000  0.57930000  1.0 -0.6217720097
O  O19  1  0.34813000  0.97387000  0.07930000  1.0 -0.6217720097
O  O20  1  0.97387000  0.34813000  0.42070000  1.0 -0.6217720097
O  O21  1  0.54196000  0.05324000  0.88000000  1.0 -0.5424928104
O  O22  1  0.05324000  0.54196000  0.62000000  1.0 -0.5424928104
O  O23  1  0.45804000  0.94676000  0.12000000  1.0 -0.5424928104
O  O24  1  0.94676000  0.45804000  0.38000000  1.0 -0.5424928104
O  O25  1  0.08273000  0.84607000  0.54630000  1.0 -0.5789646244
O  O26  1  0.84607000  0.08273000  0.95370000  1.0 -0.5789646244
O  O27  1  0.91727000  0.15393000  0.45370000  1.0 -0.5789646244
O  O28  1  0.15393000  0.91727000  0.04630000  1.0 -0.5789646244
O  O29  1  0.99023000  0.76657000  0.60760000  1.0 -0.5279522872
O  O30  1  0.76657000  0.99023000  0.89240000  1.0 -0.5279522872
O  O31  1  0.00977000  0.23343000  0.39240000  1.0 -0.5279522872
O  O32  1  0.23343000  0.00977000  0.10760000  1.0 -0.5279522872
O  O33  1  0.81213000  0.24907000  0.35480000  1.0 -0.6592688894
O  O34  1  0.24907000  0.81213000  0.14520000  1.0 -0.6592688894
O  O35  1  0.18787000  0.75093000  0.64520000  1.0 -0.6592688894
O  O36  1  0.75093000  0.18787000  0.85480000  1.0 -0.6592688894
O  O37  1  0.70802000  0.27338000  0.27730000  1.0 -0.4821649527
O  O38  1  0.27338000  0.70802000  0.22270000  1.0 -0.4821649527
O  O39  1  0.29198000  0.72662000  0.72270000  1.0 -0.4821649527
O  O40  1  0.72662000  0.29198000  0.77730000  1.0 -0.4821649527
O  O41  1  0.43481000  0.02819000  0.21030000  1.0 -0.5214762276
O  O42  1  0.02819000  0.43481000  0.28970000  1.0 -0.5214762276
O  O43  1  0.56519000  0.97181000  0.78970000  1.0 -0.5214762276
O  O44  1  0.97181000  0.56519000  0.71030000  1.0 -0.5214762276
O  O45  1  0.41968000  0.89772000  0.24690000  1.0 -0.6053361928
O  O46  1  0.89772000  0.41968000  0.25310000  1.0 -0.6053361928
O  O47  1  0.58032000  0.10228000  0.75310000  1.0 -0.6053361928
O  O48  1  0.10228000  0.58032000  0.74690000  1.0 -0.6053361928
O  O49  1  0.75950000  0.47850000  0.29110000  1.0 -0.017104965
O  O50  1  0.47850000  0.75950000  0.20890000  1.0 -0.017104965
O  O51  1  0.24050000  0.52150000  0.70890000  1.0 -0.017104965
O  O52  1  0.52150000  0.24050000  0.79110000  1.0 -0.017104965
O  O53  1  0.77080000  0.48060000  0.20670000  1.0 -0.0837040058
O  O54  1  0.48060000  0.77080000  0.29330000  1.0 -0.0837040058
O  O55  1  0.22920000  0.51940000  0.79330000  1.0 -0.0837040058
O  O56  1  0.51940000  0.22920000  0.70670000  1.0 -0.0837040058
