# DDEC6 charges by PACMAN v1.1 (https://github.com/mtap-research/PACMAN-charge/)
data_REHHOD_FSR_pacman
_symmetry_space_group_name_H-M   'P 1'
_cell_length_a   19.69760000
_cell_length_b   19.69760000
_cell_length_c   23.03100000
_cell_angle_alpha   64.82580000
_cell_angle_beta   115.17400000
_cell_angle_gamma   124.09300000
_symmetry_Int_Tables_number   1
_chemical_formula_structural   Cd3H32C41N5O17
_chemical_formula_sum   'Cd12 H128 C164 N20 O68'
_cell_volume   6485.56546161
_cell_formula_units_Z   4
loop_
 _symmetry_equiv_pos_site_id
 _symmetry_equiv_pos_as_xyz
  1  'x, y, z'
loop_
 _atom_site_type_symbol
 _atom_site_label
 _atom_site_symmetry_multiplicity
 _atom_site_fract_x
 _atom_site_fract_y
 _atom_site_fract_z
 _atom_site_occupancy
 _atom_site_charge
Cd  Cd1  1  0.09959000  0.67925000  0.30573000  1.0 0.9198250009
Cd  Cd2  1  0.67925000  0.09959000  0.19427000  1.0 0.9198250009
Cd  Cd3  1  0.90041000  0.32075000  0.69427000  1.0 0.9198250009
Cd  Cd4  1  0.32075000  0.90041000  0.80573000  1.0 0.9198250009
Cd  Cd5  1  0.62178000  0.26896000  0.03547000  1.0 1.0865662826
Cd  Cd6  1  0.26896000  0.62178000  0.46453000  1.0 1.0865662826
Cd  Cd7  1  0.37822000  0.73104000  0.96453000  1.0 1.0865662826
Cd  Cd8  1  0.73104000  0.37822000  0.53547000  1.0 1.0865662826
Cd  Cd9  1  0.44278000  0.80114000  0.82219000  1.0 1.0288884176
Cd  Cd10  1  0.80114000  0.44278000  0.67781000  1.0 1.0288884176
Cd  Cd11  1  0.55722000  0.19886000  0.17781000  1.0 1.0288884176
Cd  Cd12  1  0.19886000  0.55722000  0.32219000  1.0 1.0288884176
H  H1  1  0.92450000  0.77870000  0.09160000  1.0 0.1296475005
H  H2  1  0.77870000  0.92450000  0.40840000  1.0 0.1296475005
H  H3  1  0.07550000  0.22130000  0.90840000  1.0 0.1296475005
H  H4  1  0.22130000  0.07550000  0.59160000  1.0 0.1296475005
H  H5  1  0.83750000  0.84370000  0.02710000  1.0 0.1296475005
H  H6  1  0.84370000  0.83750000  0.47290000  1.0 0.1296475005
H  H7  1  0.16250000  0.15630000  0.97290000  1.0 0.1296475005
H  H8  1  0.15630000  0.16250000  0.52710000  1.0 0.1296475005
H  H9  1  0.86180000  0.89100000  0.19090000  1.0 0.1133784062
H  H10  1  0.89100000  0.86180000  0.30910000  1.0 0.1133784062
H  H11  1  0.13820000  0.10900000  0.80910000  1.0 0.1133784062
H  H12  1  0.10900000  0.13820000  0.69090000  1.0 0.1133784062
H  H13  1  0.94520000  0.82420000  0.25330000  1.0 0.1133784062
H  H14  1  0.82420000  0.94520000  0.24670000  1.0 0.1133784062
H  H15  1  0.05480000  0.17580000  0.74670000  1.0 0.1133784062
H  H16  1  0.17580000  0.05480000  0.75330000  1.0 0.1133784062
H  H17  1  0.54900000  0.05980000  0.95010000  1.0 0.1296475005
H  H18  1  0.05980000  0.54900000  0.54990000  1.0 0.1296475005
H  H19  1  0.45100000  0.94020000  0.04990000  1.0 0.1296475005
H  H20  1  0.94020000  0.45100000  0.45010000  1.0 0.1296475005
H  H21  1  0.62200000  0.88740000  0.98930000  1.0 0.1394898697
H  H22  1  0.88740000  0.62200000  0.51070000  1.0 0.1394898697
H  H23  1  0.37800000  0.11260000  0.01070000  1.0 0.1394898697
H  H24  1  0.11260000  0.37800000  0.48930000  1.0 0.1394898697
H  H25  1  0.75260000  0.05700000  0.09870000  1.0 0.1222673931
H  H26  1  0.05700000  0.75260000  0.40130000  1.0 0.1222673931
H  H27  1  0.24740000  0.94300000  0.90130000  1.0 0.1222673931
H  H28  1  0.94300000  0.24740000  0.59870000  1.0 0.1222673931
H  H29  1  0.55570000  0.46850000  0.45890000  1.0 0.1296475005
H  H30  1  0.46850000  0.55570000  0.04110000  1.0 0.1296475005
H  H31  1  0.44430000  0.53150000  0.54110000  1.0 0.1296475005
H  H32  1  0.53150000  0.44430000  0.95890000  1.0 0.1296475005
H  H33  1  0.49440000  0.55460000  0.38310000  1.0 0.1222673931
H  H34  1  0.55460000  0.49440000  0.11690000  1.0 0.1222673931
H  H35  1  0.50560000  0.44540000  0.61690000  1.0 0.1222673931
H  H36  1  0.44540000  0.50560000  0.88310000  1.0 0.1222673931
H  H37  1  0.67170000  0.74110000  0.47220000  1.0 0.1133784062
H  H38  1  0.74110000  0.67170000  0.02780000  1.0 0.1133784062
H  H39  1  0.32830000  0.25890000  0.52780000  1.0 0.1133784062
H  H40  1  0.25890000  0.32830000  0.97220000  1.0 0.1133784062
H  H41  1  0.73160000  0.65580000  0.54630000  1.0 0.1296475005
H  H42  1  0.65580000  0.73160000  0.95370000  1.0 0.1296475005
H  H43  1  0.26840000  0.34420000  0.45370000  1.0 0.1296475005
H  H44  1  0.34420000  0.26840000  0.04630000  1.0 0.1296475005
H  H45  1  0.36350000  0.92290000  0.26290000  1.0 0.1394898697
H  H46  1  0.92290000  0.36350000  0.23710000  1.0 0.1394898697
H  H47  1  0.63650000  0.07710000  0.73710000  1.0 0.1394898697
H  H48  1  0.07710000  0.63650000  0.76290000  1.0 0.1394898697
H  H49  1  0.59540000  0.93920000  0.31730000  1.0 0.1296475005
H  H50  1  0.93920000  0.59540000  0.18270000  1.0 0.1296475005
H  H51  1  0.40460000  0.06080000  0.68270000  1.0 0.1296475005
H  H52  1  0.06080000  0.40460000  0.81730000  1.0 0.1296475005
H  H53  1  0.39530000  0.71490000  0.36510000  1.0 0.1394898697
H  H54  1  0.71490000  0.39530000  0.13490000  1.0 0.1394898697
H  H55  1  0.60470000  0.28510000  0.63490000  1.0 0.1394898697
H  H56  1  0.28510000  0.60470000  0.86510000  1.0 0.1394898697
H  H57  1  0.34320000  0.27100000  0.78510000  1.0 0.1296475005
H  H58  1  0.27100000  0.34320000  0.71490000  1.0 0.1296475005
H  H59  1  0.65680000  0.72900000  0.21490000  1.0 0.1296475005
H  H60  1  0.72900000  0.65680000  0.28510000  1.0 0.1296475005
H  H61  1  0.36420000  0.27200000  0.85870000  1.0 0.150806105
H  H62  1  0.27200000  0.36420000  0.64130000  1.0 0.150806105
H  H63  1  0.63580000  0.72800000  0.14130000  1.0 0.150806105
H  H64  1  0.72800000  0.63580000  0.35870000  1.0 0.150806105
H  H65  1  0.43020000  0.33980000  0.81610000  1.0 0.150806105
H  H66  1  0.33980000  0.43020000  0.68390000  1.0 0.150806105
H  H67  1  0.56980000  0.66020000  0.18390000  1.0 0.150806105
H  H68  1  0.66020000  0.56980000  0.31610000  1.0 0.150806105
H  H69  1  0.34330000  0.16810000  0.77520000  1.0 0.1296475005
H  H70  1  0.16810000  0.34330000  0.72480000  1.0 0.1296475005
H  H71  1  0.65670000  0.83190000  0.22480000  1.0 0.1296475005
H  H72  1  0.83190000  0.65670000  0.27520000  1.0 0.1296475005
H  H73  1  0.43070000  0.16830000  0.79870000  1.0 0.1394898697
H  H74  1  0.16830000  0.43070000  0.70130000  1.0 0.1394898697
H  H75  1  0.56930000  0.83170000  0.20130000  1.0 0.1394898697
H  H76  1  0.83170000  0.56930000  0.29870000  1.0 0.1394898697
H  H77  1  0.36530000  0.10710000  0.84250000  1.0 0.1296475005
H  H78  1  0.10710000  0.36530000  0.65750000  1.0 0.1296475005
H  H79  1  0.63470000  0.89290000  0.15750000  1.0 0.1296475005
H  H80  1  0.89290000  0.63470000  0.34250000  1.0 0.1296475005
H  H81  1  0.86870000  0.66290000  0.96730000  1.0 0.1394898697
H  H82  1  0.66290000  0.86870000  0.53270000  1.0 0.1394898697
H  H83  1  0.13130000  0.33710000  0.03270000  1.0 0.1394898697
H  H84  1  0.33710000  0.13130000  0.46730000  1.0 0.1394898697
H  H85  1  0.77430000  0.62150000  0.92700000  1.0 0.1394898697
H  H86  1  0.62150000  0.77430000  0.57300000  1.0 0.1394898697
H  H87  1  0.22570000  0.37850000  0.07300000  1.0 0.1394898697
H  H88  1  0.37850000  0.22570000  0.42700000  1.0 0.1394898697
H  H89  1  0.79500000  0.61620000  0.00220000  1.0 0.1222673931
H  H90  1  0.61620000  0.79500000  0.49780000  1.0 0.1222673931
H  H91  1  0.20500000  0.38380000  0.99780000  1.0 0.1222673931
H  H92  1  0.38380000  0.20500000  0.50220000  1.0 0.1222673931
H  H93  1  0.87380000  0.46700000  0.01900000  1.0 0.150806105
H  H94  1  0.46700000  0.87380000  0.48100000  1.0 0.150806105
H  H95  1  0.12620000  0.53300000  0.98100000  1.0 0.150806105
H  H96  1  0.53300000  0.12620000  0.51900000  1.0 0.150806105
H  H97  1  0.92570000  0.56070000  0.98230000  1.0 0.1296475005
H  H98  1  0.56070000  0.92570000  0.51770000  1.0 0.1296475005
H  H99  1  0.07430000  0.43930000  0.01770000  1.0 0.1296475005
H  H100  1  0.43930000  0.07430000  0.48230000  1.0 0.1296475005
H  H101  1  0.92220000  0.53980000  0.05510000  1.0 0.1394898697
H  H102  1  0.53980000  0.92220000  0.44490000  1.0 0.1394898697
H  H103  1  0.07780000  0.46020000  0.94490000  1.0 0.1394898697
H  H104  1  0.46020000  0.07780000  0.55510000  1.0 0.1394898697
H  H105  1  0.16620000  0.58820000  0.63960000  1.0 0.1394898697
H  H106  1  0.58820000  0.16620000  0.86040000  1.0 0.1394898697
H  H107  1  0.83380000  0.41180000  0.36040000  1.0 0.1394898697
H  H108  1  0.41180000  0.83380000  0.13960000  1.0 0.1394898697
H  H109  1  0.22190000  0.58210000  0.71280000  1.0 0.1394898697
H  H110  1  0.58210000  0.22190000  0.78720000  1.0 0.1394898697
H  H111  1  0.77810000  0.41790000  0.28720000  1.0 0.1394898697
H  H112  1  0.41790000  0.77810000  0.21280000  1.0 0.1394898697
H  H113  1  0.26490000  0.62970000  0.65350000  1.0 0.1553383974
H  H114  1  0.62970000  0.26490000  0.84650000  1.0 0.1553383974
H  H115  1  0.73510000  0.37030000  0.34650000  1.0 0.1553383974
H  H116  1  0.37030000  0.73510000  0.15350000  1.0 0.1553383974
H  H117  1  0.11480000  0.68140000  0.60480000  1.0 0.1296475005
H  H118  1  0.68140000  0.11480000  0.89520000  1.0 0.1296475005
H  H119  1  0.88520000  0.31860000  0.39520000  1.0 0.1296475005
H  H120  1  0.31860000  0.88520000  0.10480000  1.0 0.1296475005
H  H121  1  0.18440000  0.77620000  0.59880000  1.0 0.150806105
H  H122  1  0.77620000  0.18440000  0.90120000  1.0 0.150806105
H  H123  1  0.81560000  0.22380000  0.40120000  1.0 0.150806105
H  H124  1  0.22380000  0.81560000  0.09880000  1.0 0.150806105
H  H125  1  0.14270000  0.72670000  0.65890000  1.0 0.150806105
H  H126  1  0.72670000  0.14270000  0.84110000  1.0 0.150806105
H  H127  1  0.85730000  0.27330000  0.34110000  1.0 0.150806105
H  H128  1  0.27330000  0.85730000  0.15890000  1.0 0.150806105
C  C1  1  0.99980000  0.75340000  0.22140000  1.0 0.373672275
C  C2  1  0.75340000  0.99980000  0.27860000  1.0 0.373672275
C  C3  1  0.00020000  0.24660000  0.77860000  1.0 0.373672275
C  C4  1  0.24660000  0.00020000  0.72140000  1.0 0.373672275
C  C5  1  0.94270000  0.79470000  0.17820000  1.0 -0.0609543471
C  C6  1  0.79470000  0.94270000  0.32180000  1.0 -0.0609543471
C  C7  1  0.05730000  0.20530000  0.82180000  1.0 -0.0609543471
C  C8  1  0.20530000  0.05730000  0.67820000  1.0 -0.0609543471
C  C9  1  0.91080000  0.80040000  0.11150000  1.0 -0.0992472803
C  C10  1  0.80040000  0.91080000  0.38850000  1.0 -0.0992472803
C  C11  1  0.08920000  0.19960000  0.88850000  1.0 -0.0992472803
C  C12  1  0.19960000  0.08920000  0.61150000  1.0 -0.0992472803
C  C13  1  0.85760000  0.83840000  0.07270000  1.0 -0.1387333328
C  C14  1  0.83840000  0.85760000  0.42730000  1.0 -0.1387333328
C  C15  1  0.14240000  0.16160000  0.92730000  1.0 -0.1387333328
C  C16  1  0.16160000  0.14240000  0.57270000  1.0 -0.1387333328
C  C17  1  0.83550000  0.86830000  0.10380000  1.0 0.0796067083
C  C18  1  0.86830000  0.83550000  0.39620000  1.0 0.0796067083
C  C19  1  0.16450000  0.13170000  0.89620000  1.0 0.0796067083
C  C20  1  0.13170000  0.16450000  0.60380000  1.0 0.0796067083
C  C21  1  0.87210000  0.86630000  0.17100000  1.0 -0.1203134133
C  C22  1  0.86630000  0.87210000  0.32900000  1.0 -0.1203134133
C  C23  1  0.12790000  0.13370000  0.82900000  1.0 -0.1203134133
C  C24  1  0.13370000  0.12790000  0.67100000  1.0 -0.1203134133
C  C25  1  0.92330000  0.82790000  0.20790000  1.0 -0.1387333328
C  C26  1  0.82790000  0.92330000  0.29210000  1.0 -0.1387333328
C  C27  1  0.07670000  0.17210000  0.79210000  1.0 -0.1387333328
C  C28  1  0.17210000  0.07670000  0.70790000  1.0 -0.1387333328
C  C29  1  0.77910000  0.90750000  0.06300000  1.0 0.0566894414
C  C30  1  0.90750000  0.77910000  0.43700000  1.0 0.0566894414
C  C31  1  0.22090000  0.09250000  0.93700000  1.0 0.0566894414
C  C32  1  0.09250000  0.22090000  0.56300000  1.0 0.0566894414
C  C33  1  0.66626000  0.14474000  0.04120000  1.0 0.5820173455
C  C34  1  0.14474000  0.66626000  0.45880000  1.0 0.5820173455
C  C35  1  0.33374000  0.85526000  0.95880000  1.0 0.5820173455
C  C36  1  0.85526000  0.33374000  0.54120000  1.0 0.5820173455
C  C37  1  0.65349000  0.07151000  0.02570000  1.0 -0.0185570432
C  C38  1  0.07151000  0.65349000  0.47430000  1.0 -0.0185570432
C  C39  1  0.34651000  0.92849000  0.97430000  1.0 -0.0185570432
C  C40  1  0.92849000  0.34651000  0.52570000  1.0 -0.0185570432
C  C41  1  0.58610000  0.03670000  0.97510000  1.0 -0.1299049238
C  C42  1  0.03670000  0.58610000  0.52490000  1.0 -0.1299049238
C  C43  1  0.41390000  0.96330000  0.02490000  1.0 -0.1299049238
C  C44  1  0.96330000  0.41390000  0.47510000  1.0 -0.1299049238
C  C45  1  0.57351000  0.96749000  0.96170000  1.0 -0.0083186671
C  C46  1  0.96749000  0.57351000  0.53830000  1.0 -0.0083186671
C  C47  1  0.42649000  0.03251000  0.03830000  1.0 -0.0083186671
C  C48  1  0.03251000  0.42649000  0.46170000  1.0 -0.0083186671
C  C49  1  0.63011000  0.93349000  0.99830000  1.0 -0.2012245821
C  C50  1  0.93349000  0.63011000  0.50170000  1.0 -0.2012245821
C  C51  1  0.36989000  0.06651000  0.00170000  1.0 -0.2012245821
C  C52  1  0.06651000  0.36989000  0.49830000  1.0 -0.2012245821
C  C53  1  0.69790000  0.96850000  0.04790000  1.0 0.2094977555
C  C54  1  0.96850000  0.69790000  0.45210000  1.0 0.2094977555
C  C55  1  0.30210000  0.03150000  0.95210000  1.0 0.2094977555
C  C56  1  0.03150000  0.30210000  0.54790000  1.0 0.2094977555
C  C57  1  0.70877000  0.03583000  0.06340000  1.0 -0.2012245821
C  C58  1  0.03583000  0.70877000  0.43660000  1.0 -0.2012245821
C  C59  1  0.29123000  0.96417000  0.93660000  1.0 -0.2012245821
C  C60  1  0.96417000  0.29123000  0.56340000  1.0 -0.2012245821
C  C61  1  0.49671000  0.92609000  0.91030000  1.0 0.5872527791
C  C62  1  0.92609000  0.49671000  0.58970000  1.0 0.5872527791
C  C63  1  0.50329000  0.07391000  0.08970000  1.0 0.5872527791
C  C64  1  0.07391000  0.50329000  0.41030000  1.0 0.5872527791
C  C65  1  0.68580000  0.49660000  0.56310000  1.0 0.5872527791
C  C66  1  0.49660000  0.68580000  0.93690000  1.0 0.5872527791
C  C67  1  0.31420000  0.50340000  0.43690000  1.0 0.5872527791
C  C68  1  0.50340000  0.31420000  0.06310000  1.0 0.5872527791
C  C69  1  0.64860000  0.55260000  0.51100000  1.0 -0.0185570432
C  C70  1  0.55260000  0.64860000  0.98900000  1.0 -0.0185570432
C  C71  1  0.35140000  0.44740000  0.48900000  1.0 -0.0185570432
C  C72  1  0.44740000  0.35140000  0.01100000  1.0 -0.0185570432
C  C73  1  0.57900000  0.52340000  0.46210000  1.0 -0.0904563645
C  C74  1  0.52340000  0.57900000  0.03790000  1.0 -0.0904563645
C  C75  1  0.42100000  0.47660000  0.53790000  1.0 -0.0904563645
C  C76  1  0.47660000  0.42100000  0.96210000  1.0 -0.0904563645
C  C77  1  0.54210000  0.57510000  0.41670000  1.0 -0.1299049238
C  C78  1  0.57510000  0.54210000  0.08330000  1.0 -0.1299049238
C  C79  1  0.45790000  0.42490000  0.58330000  1.0 -0.1299049238
C  C80  1  0.42490000  0.45790000  0.91670000  1.0 -0.1299049238
C  C81  1  0.57540000  0.65620000  0.42090000  1.0 0.0796067083
C  C82  1  0.65620000  0.57540000  0.07910000  1.0 0.0796067083
C  C83  1  0.42460000  0.34380000  0.57910000  1.0 0.0796067083
C  C84  1  0.34380000  0.42460000  0.92090000  1.0 0.0796067083
C  C85  1  0.64720000  0.68600000  0.46940000  1.0 -0.1203134133
C  C86  1  0.68600000  0.64720000  0.03060000  1.0 -0.1203134133
C  C87  1  0.35280000  0.31400000  0.53060000  1.0 -0.1203134133
C  C88  1  0.31400000  0.35280000  0.96940000  1.0 -0.1203134133
C  C89  1  0.68290000  0.63470000  0.51360000  1.0 -0.0992472803
C  C90  1  0.63470000  0.68290000  0.98640000  1.0 -0.0992472803
C  C91  1  0.31710000  0.36530000  0.48640000  1.0 -0.0992472803
C  C92  1  0.36530000  0.31710000  0.01360000  1.0 -0.0992472803
C  C93  1  0.52980000  0.70680000  0.37630000  1.0 -0.053709084
C  C94  1  0.70680000  0.52980000  0.12370000  1.0 -0.053709084
C  C95  1  0.47020000  0.29320000  0.62370000  1.0 -0.053709084
C  C96  1  0.29320000  0.47020000  0.87630000  1.0 -0.053709084
C  C97  1  0.27368000  0.76012000  0.31380000  1.0 0.5820173455
C  C98  1  0.76012000  0.27368000  0.18620000  1.0 0.5820173455
C  C99  1  0.72632000  0.23988000  0.68620000  1.0 0.5820173455
C  C100  1  0.23988000  0.72632000  0.81380000  1.0 0.5820173455
C  C101  1  0.36525000  0.81015000  0.31420000  1.0 -0.0185570432
C  C102  1  0.81015000  0.36525000  0.18580000  1.0 -0.0185570432
C  C103  1  0.63475000  0.18985000  0.68580000  1.0 -0.0185570432
C  C104  1  0.18985000  0.63475000  0.81420000  1.0 -0.0185570432
C  C105  1  0.39842000  0.89718000  0.28360000  1.0 -0.1299049238
C  C106  1  0.89718000  0.39842000  0.21640000  1.0 -0.1299049238
C  C107  1  0.60158000  0.10282000  0.71640000  1.0 -0.1299049238
C  C108  1  0.10282000  0.60158000  0.78360000  1.0 -0.1299049238
C  C109  1  0.48475000  0.94485000  0.28460000  1.0 -0.0083186671
C  C110  1  0.94485000  0.48475000  0.21540000  1.0 -0.0083186671
C  C111  1  0.51525000  0.05515000  0.71540000  1.0 -0.0083186671
C  C112  1  0.05515000  0.51525000  0.78460000  1.0 -0.0083186671
C  C113  1  0.53798000  0.90722000  0.31610000  1.0 -0.2012245821
C  C114  1  0.90722000  0.53798000  0.18390000  1.0 -0.2012245821
C  C115  1  0.46202000  0.09278000  0.68390000  1.0 -0.2012245821
C  C116  1  0.09278000  0.46202000  0.81610000  1.0 -0.2012245821
C  C117  1  0.50310000  0.81950000  0.34610000  1.0 0.2094977555
C  C118  1  0.81950000  0.50310000  0.15390000  1.0 0.2094977555
C  C119  1  0.49690000  0.18050000  0.65390000  1.0 0.2094977555
C  C120  1  0.18050000  0.49690000  0.84610000  1.0 0.2094977555
C  C121  1  0.41761000  0.77259000  0.34490000  1.0 -0.1843573766
C  C122  1  0.77259000  0.41761000  0.15510000  1.0 -0.1850656735
C  C123  1  0.58239000  0.22741000  0.65510000  1.0 -0.1850656735
C  C124  1  0.22741000  0.58239000  0.84490000  1.0 -0.1850656735
C  C125  1  0.51817000  0.03783000  0.25140000  1.0 0.5738901032
C  C126  1  0.03783000  0.51817000  0.24860000  1.0 0.5738901032
C  C127  1  0.48183000  0.96217000  0.74860000  1.0 0.5738901032
C  C128  1  0.96217000  0.48183000  0.75140000  1.0 0.5738901032
C  C129  1  0.49070000  0.22850000  0.90570000  1.0 0.2326038463
C  C130  1  0.22850000  0.49070000  0.59430000  1.0 0.2326038463
C  C131  1  0.50930000  0.77150000  0.09430000  1.0 0.23557858
C  C132  1  0.77150000  0.50930000  0.40570000  1.0 0.2326038463
C  C133  1  0.38740000  0.28200000  0.82500000  1.0 -0.3235963103
C  C134  1  0.28200000  0.38740000  0.67500000  1.0 -0.3235963103
C  C135  1  0.61260000  0.71800000  0.17500000  1.0 -0.3235963103
C  C136  1  0.71800000  0.61260000  0.32500000  1.0 -0.3235963103
C  C137  1  0.38790000  0.16210000  0.81310000  1.0 -0.3450429307
C  C138  1  0.16210000  0.38790000  0.68690000  1.0 -0.3450429307
C  C139  1  0.61210000  0.83790000  0.18690000  1.0 -0.3450429307
C  C140  1  0.83790000  0.61210000  0.31310000  1.0 -0.3450429307
C  C141  1  0.73680000  0.46100000  0.99270000  1.0 0.177785611
C  C142  1  0.46100000  0.73680000  0.50730000  1.0 0.177785611
C  C143  1  0.26320000  0.53900000  0.00730000  1.0 0.177785611
C  C144  1  0.53900000  0.26320000  0.49270000  1.0 0.177785611
C  C145  1  0.81330000  0.61610000  0.96950000  1.0 -0.3264149593
C  C146  1  0.61610000  0.81330000  0.53050000  1.0 -0.3264149593
C  C147  1  0.18670000  0.38390000  0.03050000  1.0 -0.3264149593
C  C148  1  0.38390000  0.18670000  0.46950000  1.0 -0.3264149593
C  C149  1  0.89080000  0.52520000  0.01320000  1.0 -0.3078090863
C  C150  1  0.52520000  0.89080000  0.48680000  1.0 -0.3078090863
C  C151  1  0.10920000  0.47480000  0.98680000  1.0 -0.3078090863
C  C152  1  0.47480000  0.10920000  0.51320000  1.0 -0.3078090863
C  C153  1  0.30240000  0.74960000  0.70550000  1.0 0.2468070073
C  C154  1  0.74960000  0.30240000  0.79450000  1.0 0.2468070073
C  C155  1  0.69760000  0.25040000  0.29450000  1.0 0.2468070073
C  C156  1  0.25040000  0.69760000  0.20550000  1.0 0.2468070073
C  C157  1  0.21930000  0.61730000  0.66830000  1.0 -0.3078090863
C  C158  1  0.61730000  0.21930000  0.83170000  1.0 -0.3078090863
C  C159  1  0.78070000  0.38270000  0.33170000  1.0 -0.3078090863
C  C160  1  0.38270000  0.78070000  0.16830000  1.0 -0.3078090863
C  C161  1  0.16170000  0.72210000  0.62920000  1.0 -0.3235963103
C  C162  1  0.72210000  0.16170000  0.87080000  1.0 -0.3235963103
C  C163  1  0.83830000  0.27790000  0.37080000  1.0 -0.3235963103
C  C164  1  0.27790000  0.83830000  0.12920000  1.0 -0.3235963103
N  N1  1  0.75643000  0.93597000  0.08920000  1.0 -0.3078090863
N  N2  1  0.93597000  0.75643000  0.41080000  1.0 -0.3078090863
N  N3  1  0.24357000  0.06403000  0.91080000  1.0 -0.3078090863
N  N4  1  0.06403000  0.24357000  0.58920000  1.0 -0.3078090863
N  N5  1  0.55773000  0.78227000  0.38040000  1.0 -0.3235963103
N  N6  1  0.78227000  0.55773000  0.11960000  1.0 -0.3235963103
N  N7  1  0.44227000  0.21773000  0.61960000  1.0 -0.3235963103
N  N8  1  0.21773000  0.44227000  0.88040000  1.0 -0.3235963103
N  N9  1  0.42450000  0.22650000  0.84740000  1.0 0.0264085962
N  N10  1  0.22650000  0.42450000  0.65260000  1.0 0.0264085962
N  N11  1  0.57550000  0.77350000  0.15260000  1.0 0.0264085962
N  N12  1  0.77350000  0.57550000  0.34740000  1.0 0.0264085962
N  N13  1  0.81620000  0.53760000  0.98790000  1.0 0.0475114213
N  N14  1  0.53760000  0.81620000  0.51210000  1.0 0.0475114213
N  N15  1  0.18380000  0.46240000  0.01210000  1.0 0.0475114213
N  N16  1  0.46240000  0.18380000  0.48790000  1.0 0.0475114213
N  N17  1  0.22680000  0.69500000  0.66700000  1.0 0.0475114213
N  N18  1  0.69500000  0.22680000  0.83300000  1.0 0.0475114213
N  N19  1  0.77320000  0.30500000  0.33300000  1.0 0.0475114213
N  N20  1  0.30500000  0.77320000  0.16700000  1.0 0.0475114213
O  O1  1  0.02945000  0.73755000  0.19180000  1.0 -0.291551696
O  O2  1  0.73755000  0.02945000  0.30820000  1.0 -0.291551696
O  O3  1  0.97055000  0.26245000  0.80820000  1.0 -0.291551696
O  O4  1  0.26245000  0.97055000  0.69180000  1.0 -0.291551696
O  O5  1  0.01158000  0.73242000  0.28100000  1.0 0.1133784062
O  O6  1  0.73242000  0.01158000  0.21900000  1.0 0.1222673931
O  O7  1  0.98842000  0.26758000  0.71900000  1.0 0.1222673931
O  O8  1  0.26758000  0.98842000  0.78100000  1.0 0.1222673931
O  O9  1  0.62271000  0.18289000  0.99780000  1.0 -0.585290538
O  O10  1  0.18289000  0.62271000  0.50220000  1.0 -0.585290538
O  O11  1  0.37729000  0.81711000  0.00220000  1.0 -0.585290538
O  O12  1  0.81711000  0.37729000  0.49780000  1.0 -0.585290538
O  O13  1  0.71613000  0.16567000  0.09430000  1.0 -0.5623631345
O  O14  1  0.16567000  0.71613000  0.40570000  1.0 -0.5623631345
O  O15  1  0.28387000  0.83433000  0.90570000  1.0 -0.5623631345
O  O16  1  0.83433000  0.28387000  0.59430000  1.0 -0.5623631345
O  O17  1  0.48021000  0.85315000  0.91060000  1.0 -0.6161628233
O  O18  1  0.85315000  0.48021000  0.58940000  1.0 -0.6161628233
O  O19  1  0.51979000  0.14685000  0.08940000  1.0 -0.6161628233
O  O20  1  0.14685000  0.51979000  0.41060000  1.0 -0.6161628233
O  O21  1  0.45362000  0.96398000  0.87190000  1.0 -0.5497737991
O  O22  1  0.96398000  0.45362000  0.62810000  1.0 -0.5497737991
O  O23  1  0.54638000  0.03602000  0.12810000  1.0 -0.5497737991
O  O24  1  0.03602000  0.54638000  0.37190000  1.0 -0.5497737991
O  O25  1  0.73937000  0.52163000  0.61370000  1.0 -0.5087523328
O  O26  1  0.52163000  0.73937000  0.88630000  1.0 -0.5087523328
O  O27  1  0.26063000  0.47837000  0.38630000  1.0 -0.5087523328
O  O28  1  0.47837000  0.26063000  0.11370000  1.0 -0.5087523328
O  O29  1  0.66215000  0.42565000  0.55650000  1.0 -0.5765021758
O  O30  1  0.42565000  0.66215000  0.94350000  1.0 -0.5765021758
O  O31  1  0.33785000  0.57435000  0.44350000  1.0 -0.5765021758
O  O32  1  0.57435000  0.33785000  0.05650000  1.0 -0.5765021758
O  O33  1  0.24767000  0.68213000  0.34830000  1.0 -0.635987805
O  O34  1  0.68213000  0.24767000  0.15170000  1.0 -0.635987805
O  O35  1  0.75233000  0.31787000  0.65170000  1.0 -0.635987805
O  O36  1  0.31787000  0.75233000  0.84830000  1.0 -0.635987805
O  O37  1  0.22455000  0.79045000  0.27890000  1.0 -0.4848492609
O  O38  1  0.79045000  0.22455000  0.22110000  1.0 -0.4848492609
O  O39  1  0.77545000  0.20955000  0.72110000  1.0 -0.4848492609
O  O40  1  0.20955000  0.77545000  0.77890000  1.0 -0.4848492609
O  O41  1  0.46659000  0.06741000  0.22420000  1.0 -0.5262998806
O  O42  1  0.06741000  0.46659000  0.27580000  1.0 -0.5262998806
O  O43  1  0.53341000  0.93259000  0.77580000  1.0 -0.5262998806
O  O44  1  0.93259000  0.53341000  0.72420000  1.0 -0.5262998806
O  O45  1  0.59597000  0.08263000  0.25240000  1.0 -0.5967132168
O  O46  1  0.08263000  0.59597000  0.24760000  1.0 -0.5967132168
O  O47  1  0.40403000  0.91737000  0.74760000  1.0 -0.5967132168
O  O48  1  0.91737000  0.40403000  0.75240000  1.0 -0.5967132168
O  O49  1  0.52259000  0.28081000  0.93790000  1.0 -0.4360051619
O  O50  1  0.28081000  0.52259000  0.56210000  1.0 -0.4360051619
O  O51  1  0.47741000  0.71919000  0.06210000  1.0 -0.4360051619
O  O52  1  0.71919000  0.47741000  0.43790000  1.0 -0.4332327412
O  O53  1  0.73380000  0.39000000  0.00970000  1.0 -0.493527496
O  O54  1  0.39000000  0.73380000  0.49030000  1.0 -0.493527496
O  O55  1  0.26620000  0.61000000  0.99030000  1.0 -0.493527496
O  O56  1  0.61000000  0.26620000  0.50970000  1.0 -0.493527496
O  O57  1  0.36115000  0.73165000  0.74250000  1.0 -0.4700878577
O  O58  1  0.73165000  0.36115000  0.75750000  1.0 -0.4700878577
O  O59  1  0.63885000  0.26835000  0.25750000  1.0 -0.4700878577
O  O60  1  0.26835000  0.63885000  0.24250000  1.0 -0.4700878577
O  O61  1  0.98760000  0.69640000  0.24010000  1.0 0.0475114213
O  O62  1  0.69640000  0.98760000  0.25990000  1.0 0.0475114213
O  O63  1  0.01240000  0.30360000  0.75990000  1.0 0.0475114213
O  O64  1  0.30360000  0.01240000  0.74010000  1.0 0.0475114213
O  O65  1  0.07260000  0.79940000  0.28440000  1.0 -0.1299049238
O  O66  1  0.79940000  0.07260000  0.21560000  1.0 -0.1299049238
O  O67  1  0.92740000  0.20060000  0.71560000  1.0 -0.1299049238
O  O68  1  0.20060000  0.92740000  0.78440000  1.0 -0.1299049238
