# DDEC6 charges by PACMAN v1.1 (https://github.com/mtap-research/PACMAN-charge/)
data_REHHET_ASR_pacman
_symmetry_space_group_name_H-M   'P 1'
_cell_length_a   19.56480000
_cell_length_b   19.56480000
_cell_length_c   23.13570000
_cell_angle_alpha   65.10470000
_cell_angle_beta   114.89500000
_cell_angle_gamma   124.49200000
_symmetry_Int_Tables_number   1
_chemical_formula_structural   Cd3H18C39N3O14
_chemical_formula_sum   'Cd12 H72 C156 N12 O56'
_cell_volume   6420.39995740
_cell_formula_units_Z   4
loop_
 _symmetry_equiv_pos_site_id
 _symmetry_equiv_pos_as_xyz
  1  'x, y, z'
loop_
 _atom_site_type_symbol
 _atom_site_label
 _atom_site_symmetry_multiplicity
 _atom_site_fract_x
 _atom_site_fract_y
 _atom_site_fract_z
 _atom_site_occupancy
 _atom_site_charge
Cd  Cd1  1  0.18419000  0.60419000  0.19087000  1.0 0.9184416364
Cd  Cd2  1  0.60419000  0.18419000  0.30913000  1.0 0.9184416364
Cd  Cd3  1  0.81581000  0.39581000  0.80913000  1.0 0.9184416364
Cd  Cd4  1  0.39581000  0.81581000  0.69087000  1.0 0.9184416364
Cd  Cd5  1  0.29663000  0.93943000  0.67600000  1.0 1.0132087896
Cd  Cd6  1  0.93943000  0.29663000  0.82400000  1.0 1.0132087896
Cd  Cd7  1  0.70337000  0.06057000  0.32400000  1.0 1.0132087896
Cd  Cd8  1  0.06057000  0.70337000  0.17600000  1.0 1.0132087896
Cd  Cd9  1  0.22804000  0.87328000  0.53658000  1.0 1.0566019247
Cd  Cd10  1  0.87328000  0.22804000  0.96342000  1.0 1.0566019247
Cd  Cd11  1  0.77196000  0.12672000  0.46342000  1.0 1.0566019247
Cd  Cd12  1  0.12672000  0.77196000  0.03658000  1.0 1.0566019247
H  H1  1  0.23170000  0.36730000  0.31930000  1.0 0.0912746991
H  H2  1  0.36730000  0.23170000  0.18070000  1.0 0.0912746991
H  H3  1  0.76830000  0.63270000  0.68070000  1.0 0.0912746991
H  H4  1  0.63270000  0.76830000  0.81930000  1.0 0.0912746991
H  H5  1  0.29620000  0.28360000  0.38110000  1.0 0.1106405317
H  H6  1  0.28360000  0.29620000  0.11890000  1.0 0.1106405317
H  H7  1  0.70380000  0.71640000  0.61890000  1.0 0.1106405317
H  H8  1  0.71640000  0.70380000  0.88110000  1.0 0.1106405317
H  H9  1  0.50420000  0.47480000  0.31640000  1.0 0.096489959
H  H10  1  0.47480000  0.50420000  0.18360000  1.0 0.096489959
H  H11  1  0.49580000  0.52520000  0.68360000  1.0 0.096489959
H  H12  1  0.52520000  0.49580000  0.81640000  1.0 0.096489959
H  H13  1  0.43210000  0.55190000  0.25640000  1.0 0.1106405317
H  H14  1  0.55190000  0.43210000  0.24360000  1.0 0.1106405317
H  H15  1  0.56790000  0.44810000  0.74360000  1.0 0.1106405317
H  H16  1  0.44810000  0.56790000  0.75640000  1.0 0.1106405317
H  H17  1  0.38380000  0.11760000  0.50890000  1.0 0.1382224689
H  H18  1  0.11760000  0.38380000  0.99110000  1.0 0.1382224689
H  H19  1  0.61620000  0.88240000  0.49110000  1.0 0.1382224689
H  H20  1  0.88240000  0.61620000  0.00890000  1.0 0.1382224689
H  H21  1  0.55930000  0.25230000  0.40420000  1.0 0.1212989072
H  H22  1  0.25230000  0.55930000  0.09580000  1.0 0.1212989072
H  H23  1  0.44070000  0.74770000  0.59580000  1.0 0.1212989072
H  H24  1  0.74770000  0.44070000  0.90420000  1.0 0.1212989072
H  H25  1  0.56240000  0.05060000  0.55180000  1.0 0.1299464609
H  H26  1  0.05060000  0.56240000  0.94820000  1.0 0.1299464609
H  H27  1  0.43760000  0.94940000  0.44820000  1.0 0.1299464609
H  H28  1  0.94940000  0.43760000  0.05180000  1.0 0.1299464609
H  H29  1  0.14870000  0.22110000  0.93830000  1.0 0.1299464609
H  H30  1  0.22110000  0.14870000  0.56170000  1.0 0.1299464609
H  H31  1  0.85130000  0.77890000  0.06170000  1.0 0.1299464609
H  H32  1  0.77890000  0.85130000  0.43830000  1.0 0.1299464609
H  H33  1  0.23980000  0.17200000  0.01460000  1.0 0.1106405317
H  H34  1  0.17200000  0.23980000  0.48540000  1.0 0.1106405317
H  H35  1  0.76020000  0.82800000  0.98540000  1.0 0.1106405317
H  H36  1  0.82800000  0.76020000  0.51460000  1.0 0.1106405317
H  H37  1  0.06110000  0.00410000  0.11440000  1.0 0.1212989072
H  H38  1  0.00410000  0.06110000  0.38560000  1.0 0.1212989072
H  H39  1  0.93890000  0.99590000  0.88560000  1.0 0.1212989072
H  H40  1  0.99590000  0.93890000  0.61440000  1.0 0.1212989072
H  H41  1  0.97240000  0.05580000  0.03930000  1.0 0.1299464609
H  H42  1  0.05580000  0.97240000  0.46070000  1.0 0.1299464609
H  H43  1  0.02760000  0.94420000  0.96070000  1.0 0.1299464609
H  H44  1  0.94420000  0.02760000  0.53930000  1.0 0.1299464609
H  H45  1  0.42630000  0.87090000  0.23780000  1.0 0.1382224689
H  H46  1  0.87090000  0.42630000  0.26220000  1.0 0.1382224689
H  H47  1  0.57370000  0.12910000  0.76220000  1.0 0.1382224689
H  H48  1  0.12910000  0.57370000  0.73780000  1.0 0.1382224689
H  H49  1  0.44170000  0.10450000  0.17920000  1.0 0.1106405317
H  H50  1  0.10450000  0.44170000  0.32080000  1.0 0.1106405317
H  H51  1  0.55830000  0.89550000  0.82080000  1.0 0.1106405317
H  H52  1  0.89550000  0.55830000  0.67920000  1.0 0.1106405317
H  H53  1  0.21700000  0.90020000  0.13730000  1.0 0.1106405317
H  H54  1  0.90020000  0.21700000  0.36270000  1.0 0.1106405317
H  H55  1  0.78300000  0.09980000  0.86270000  1.0 0.1106405317
H  H56  1  0.09980000  0.78300000  0.63730000  1.0 0.1106405317
H  H57  1  0.41710000  0.26410000  0.10100000  1.0 0.096489959
H  H58  1  0.26410000  0.41710000  0.39900000  1.0 0.096489959
H  H59  1  0.58290000  0.73590000  0.89900000  1.0 0.096489959
H  H60  1  0.73590000  0.58290000  0.60100000  1.0 0.096489959
H  H61  1  0.34360000  0.34200000  0.46330000  1.0 0.0912746991
H  H62  1  0.34200000  0.34360000  0.03670000  1.0 0.0912746991
H  H63  1  0.65640000  0.65800000  0.53670000  1.0 0.0912746991
H  H64  1  0.65800000  0.65640000  0.96330000  1.0 0.0912746991
H  H65  1  0.38260000  0.34360000  0.30780000  1.0 0.0822009723
H  H66  1  0.34360000  0.38260000  0.19220000  1.0 0.0822009723
H  H67  1  0.61740000  0.65640000  0.69220000  1.0 0.0822009723
H  H68  1  0.65640000  0.61740000  0.80780000  1.0 0.0822009723
H  H69  1  0.43600000  0.31880000  0.26380000  1.0 0.096489959
H  H70  1  0.31880000  0.43600000  0.23620000  1.0 0.096489959
H  H71  1  0.56400000  0.68120000  0.73620000  1.0 0.096489959
H  H72  1  0.68120000  0.56400000  0.76380000  1.0 0.096489959
C  C1  1  0.26980000  0.51200000  0.25410000  1.0 0.3657662302
C  C2  1  0.51200000  0.26980000  0.24590000  1.0 0.3641028236
C  C3  1  0.73020000  0.48800000  0.74590000  1.0 0.3657662302
C  C4  1  0.48800000  0.73020000  0.75410000  1.0 0.3657662302
C  C5  1  0.32410000  0.46670000  0.28220000  1.0 -0.0084646664
C  C6  1  0.46670000  0.32410000  0.21780000  1.0 -0.0084646664
C  C7  1  0.67590000  0.53330000  0.71780000  1.0 -0.0084646664
C  C8  1  0.53330000  0.67590000  0.78220000  1.0 -0.0084646664
C  C9  1  0.28790000  0.38910000  0.31890000  1.0 -0.0213311951
C  C10  1  0.38910000  0.28790000  0.18110000  1.0 -0.0213311951
C  C11  1  0.71210000  0.61090000  0.68110000  1.0 -0.0213311951
C  C12  1  0.61090000  0.71210000  0.81890000  1.0 -0.0213311951
C  C13  1  0.32500000  0.33820000  0.35610000  1.0 -0.0275767342
C  C14  1  0.33820000  0.32500000  0.14390000  1.0 -0.0275767342
C  C15  1  0.67500000  0.66180000  0.64390000  1.0 -0.0275767342
C  C16  1  0.66180000  0.67500000  0.85610000  1.0 -0.0275767342
C  C17  1  0.41260000  0.37460000  0.35420000  1.0 0.0093376801
C  C18  1  0.37460000  0.41260000  0.14580000  1.0 0.0093376801
C  C19  1  0.58740000  0.62540000  0.64580000  1.0 0.0093376801
C  C20  1  0.62540000  0.58740000  0.85420000  1.0 0.0093376801
C  C21  1  0.44800000  0.45080000  0.31800000  1.0 -0.1635195857
C  C22  1  0.45080000  0.44800000  0.18200000  1.0 -0.1635195857
C  C23  1  0.55200000  0.54920000  0.68200000  1.0 -0.1635195857
C  C24  1  0.54920000  0.55200000  0.81800000  1.0 -0.1635195857
C  C25  1  0.40450000  0.49730000  0.28190000  1.0 -0.1415884341
C  C26  1  0.49730000  0.40450000  0.21810000  1.0 -0.1415884341
C  C27  1  0.59550000  0.50270000  0.71810000  1.0 -0.1415884341
C  C28  1  0.50270000  0.59550000  0.78190000  1.0 -0.1415884341
C  C29  1  0.45440000  0.32040000  0.38840000  1.0 -0.0213311951
C  C30  1  0.32040000  0.45440000  0.11160000  1.0 -0.0213311951
C  C31  1  0.54560000  0.67960000  0.61160000  1.0 -0.0213311951
C  C32  1  0.67960000  0.54560000  0.88840000  1.0 -0.0213311951
C  C33  1  0.42360000  0.99440000  0.58960000  1.0 0.5850788782
C  C34  1  0.99440000  0.42360000  0.91040000  1.0 0.5850788782
C  C35  1  0.57640000  0.00560000  0.41040000  1.0 0.5850788782
C  C36  1  0.00560000  0.57640000  0.08960000  1.0 0.5850788782
C  C37  1  0.46610000  0.07170000  0.53900000  1.0 -0.0084646664
C  C38  1  0.07170000  0.46610000  0.96100000  1.0 -0.0084646664
C  C39  1  0.53390000  0.92830000  0.46100000  1.0 -0.0084646664
C  C40  1  0.92830000  0.53390000  0.03900000  1.0 -0.0084646664
C  C41  1  0.43200000  0.12760000  0.50090000  1.0 -0.2005172765
C  C42  1  0.12760000  0.43200000  0.99910000  1.0 -0.2005172765
C  C43  1  0.56800000  0.87240000  0.49910000  1.0 -0.2005172765
C  C44  1  0.87240000  0.56800000  0.00090000  1.0 -0.2005172765
C  C45  1  0.46600000  0.19640000  0.45230000  1.0 0.1299464609
C  C46  1  0.19640000  0.46600000  0.04770000  1.0 0.1299464609
C  C47  1  0.53400000  0.80360000  0.54770000  1.0 0.1299464609
C  C48  1  0.80360000  0.53400000  0.95230000  1.0 0.1299464609
C  C49  1  0.53660000  0.20820000  0.43880000  1.0 -0.1898093783
C  C50  1  0.20820000  0.53660000  0.06120000  1.0 -0.1898093783
C  C51  1  0.46340000  0.79180000  0.56120000  1.0 -0.1898093783
C  C52  1  0.79180000  0.46340000  0.93880000  1.0 -0.1898093783
C  C53  1  0.57170000  0.15370000  0.47730000  1.0 -0.0084646664
C  C54  1  0.15370000  0.57170000  0.02270000  1.0 -0.0084646664
C  C55  1  0.42830000  0.84630000  0.52270000  1.0 -0.0084646664
C  C56  1  0.84630000  0.42830000  0.97730000  1.0 -0.0084646664
C  C57  1  0.53770000  0.08650000  0.52660000  1.0 -0.125880981
C  C58  1  0.08650000  0.53770000  0.97340000  1.0 -0.125880981
C  C59  1  0.46230000  0.91350000  0.47340000  1.0 -0.125880981
C  C60  1  0.91350000  0.46230000  0.02660000  1.0 -0.125880981
C  C61  1  0.64750000  0.16850000  0.46070000  1.0 0.5850788782
C  C62  1  0.16850000  0.64750000  0.03930000  1.0 0.5850788782
C  C63  1  0.35250000  0.83150000  0.53930000  1.0 0.5850788782
C  C64  1  0.83150000  0.35250000  0.96070000  1.0 0.5850788782
C  C65  1  0.99160000  0.18340000  0.93620000  1.0 0.5441251228
C  C66  1  0.18340000  0.99160000  0.56380000  1.0 0.5441251228
C  C67  1  0.00840000  0.81660000  0.06380000  1.0 0.5441251228
C  C68  1  0.81660000  0.00840000  0.43620000  1.0 0.5441251228
C  C69  1  0.04950000  0.14550000  0.98500000  1.0 -0.0084646664
C  C70  1  0.14550000  0.04950000  0.51500000  1.0 -0.0084646664
C  C71  1  0.95050000  0.85450000  0.01500000  1.0 -0.0084646664
C  C72  1  0.85450000  0.95050000  0.48500000  1.0 -0.0084646664
C  C73  1  0.13230000  0.17830000  0.97540000  1.0 -0.1179313319
C  C74  1  0.17830000  0.13230000  0.52460000  1.0 -0.1179313319
C  C75  1  0.86770000  0.82170000  0.02460000  1.0 -0.1179313319
C  C76  1  0.82170000  0.86770000  0.47540000  1.0 -0.1179313319
C  C77  1  0.18490000  0.14790000  0.01910000  1.0 -0.1495485512
C  C78  1  0.14790000  0.18490000  0.48090000  1.0 -0.1495485512
C  C79  1  0.81510000  0.85210000  0.98090000  1.0 -0.1495485512
C  C80  1  0.85210000  0.81510000  0.51910000  1.0 -0.1495485512
C  C81  1  0.15810000  0.08150000  0.07020000  1.0 -0.0213311951
C  C82  1  0.08150000  0.15810000  0.42980000  1.0 -0.0275767342
C  C83  1  0.84190000  0.91850000  0.92980000  1.0 -0.0275767342
C  C84  1  0.91850000  0.84190000  0.57020000  1.0 -0.0275767342
C  C85  1  0.07880000  0.04860000  0.07840000  1.0 -0.1415884341
C  C86  1  0.04860000  0.07880000  0.42160000  1.0 -0.1415884341
C  C87  1  0.92120000  0.95140000  0.92160000  1.0 -0.1415884341
C  C88  1  0.95140000  0.92120000  0.57840000  1.0 -0.1415884341
C  C89  1  0.02720000  0.08100000  0.03430000  1.0 -0.1008763594
C  C90  1  0.08100000  0.02720000  0.46570000  1.0 -0.1008763594
C  C91  1  0.97280000  0.91900000  0.96570000  1.0 -0.1008763594
C  C92  1  0.91900000  0.97280000  0.53430000  1.0 -0.1008763594
C  C93  1  0.21000000  0.03860000  0.11310000  1.0 0.2200454454
C  C94  1  0.03860000  0.21000000  0.38690000  1.0 0.2200454454
C  C95  1  0.79000000  0.96140000  0.88690000  1.0 0.2200454454
C  C96  1  0.96140000  0.79000000  0.61310000  1.0 0.2200454454
C  C97  1  0.26310000  0.77810000  0.18600000  1.0 0.5829412768
C  C98  1  0.77810000  0.26310000  0.31400000  1.0 0.5829412768
C  C99  1  0.73690000  0.22190000  0.81400000  1.0 0.5829412768
C  C100  1  0.22190000  0.73690000  0.68600000  1.0 0.5829412768
C  C101  1  0.31270000  0.87170000  0.18580000  1.0 -0.0084646664
C  C102  1  0.87170000  0.31270000  0.31420000  1.0 -0.0084646664
C  C103  1  0.68730000  0.12830000  0.81420000  1.0 -0.0084646664
C  C104  1  0.12830000  0.68730000  0.68580000  1.0 -0.0084646664
C  C105  1  0.40060000  0.90600000  0.21580000  1.0 -0.1179313319
C  C106  1  0.90600000  0.40060000  0.28420000  1.0 -0.1179313319
C  C107  1  0.59940000  0.09400000  0.78420000  1.0 -0.1179313319
C  C108  1  0.09400000  0.59940000  0.71580000  1.0 -0.1179313319
C  C109  1  0.44920000  0.99400000  0.21210000  1.0 0.0031456123
C  C110  1  0.99400000  0.44920000  0.28790000  1.0 0.0031456123
C  C111  1  0.55080000  0.00600000  0.78790000  1.0 0.0031456123
C  C112  1  0.00600000  0.55080000  0.71210000  1.0 0.0093376801
C  C113  1  0.40950000  0.04630000  0.18070000  1.0 -0.2081931998
C  C114  1  0.04630000  0.40950000  0.31930000  1.0 -0.2081931998
C  C115  1  0.59050000  0.95370000  0.81930000  1.0 -0.2081931998
C  C116  1  0.95370000  0.59050000  0.68070000  1.0 -0.2081931998
C  C117  1  0.32350000  0.01210000  0.15210000  1.0 0.1957136149
C  C118  1  0.01210000  0.32350000  0.34790000  1.0 0.1957136149
C  C119  1  0.67650000  0.98790000  0.84790000  1.0 0.1957136149
C  C120  1  0.98790000  0.67650000  0.65210000  1.0 0.1957136149
C  C121  1  0.27550000  0.92370000  0.15580000  1.0 -0.2250745763
C  C122  1  0.92370000  0.27550000  0.34420000  1.0 -0.2250745763
C  C123  1  0.72450000  0.07630000  0.84420000  1.0 -0.2250745763
C  C124  1  0.07630000  0.72450000  0.65580000  1.0 -0.2250745763
C  C125  1  0.54370000  0.03110000  0.24440000  1.0 0.5704983006
C  C126  1  0.03110000  0.54370000  0.25560000  1.0 0.5704983006
C  C127  1  0.45630000  0.96890000  0.75560000  1.0 0.5704983006
C  C128  1  0.96890000  0.45630000  0.74440000  1.0 0.5704983006
C  C129  1  0.44190000  0.29410000  0.19180000  1.0 0.0031456123
C  C130  1  0.29410000  0.44190000  0.30820000  1.0 0.0031456123
C  C131  1  0.55810000  0.70590000  0.80820000  1.0 0.0031456123
C  C132  1  0.70590000  0.55810000  0.69180000  1.0 0.0031456123
C  C133  1  0.40660000  0.29100000  0.11860000  1.0 -0.1898093783
C  C134  1  0.29100000  0.40660000  0.38140000  1.0 -0.1898093783
C  C135  1  0.59340000  0.70900000  0.88140000  1.0 -0.1898093783
C  C136  1  0.70900000  0.59340000  0.61860000  1.0 -0.1898093783
C  C137  1  0.35750000  0.33270000  0.08230000  1.0 -0.1415884341
C  C138  1  0.33270000  0.35750000  0.41770000  1.0 -0.1415884341
C  C139  1  0.64250000  0.66730000  0.91770000  1.0 -0.1415884341
C  C140  1  0.66730000  0.64250000  0.58230000  1.0 -0.1415884341
C  C141  1  0.36020000  0.32920000  0.38480000  1.0 -0.0084646664
C  C142  1  0.32920000  0.36020000  0.11520000  1.0 -0.0084646664
C  C143  1  0.63980000  0.67080000  0.61520000  1.0 -0.0084646664
C  C144  1  0.67080000  0.63980000  0.88480000  1.0 -0.0084646664
C  C145  1  0.35930000  0.35870000  0.32530000  1.0 -0.0213311951
C  C146  1  0.35870000  0.35930000  0.17470000  1.0 -0.0213311951
C  C147  1  0.64070000  0.64130000  0.67470000  1.0 -0.0213311951
C  C148  1  0.64130000  0.64070000  0.82530000  1.0 -0.0213311951
C  C149  1  0.41760000  0.32240000  0.21900000  1.0 -0.0213311951
C  C150  1  0.32240000  0.41760000  0.28100000  1.0 -0.0213311951
C  C151  1  0.58240000  0.67760000  0.78100000  1.0 -0.0213311951
C  C152  1  0.67760000  0.58240000  0.71900000  1.0 -0.0213311951
C  C153  1  0.39520000  0.26700000  0.42540000  1.0 0.0484285223
C  C154  1  0.26700000  0.39520000  0.07460000  1.0 0.0484285223
C  C155  1  0.60480000  0.73300000  0.57460000  1.0 0.0484285223
C  C156  1  0.73300000  0.60480000  0.92540000  1.0 0.0484285223
N  N1  1  0.42900000  0.25020000  0.41210000  1.0 -0.0566900709
N  N2  1  0.25020000  0.42900000  0.08790000  1.0 -0.0566900709
N  N3  1  0.57100000  0.74980000  0.58790000  1.0 -0.0566900709
N  N4  1  0.74980000  0.57100000  0.91210000  1.0 -0.0566900709
N  N5  1  0.28650000  0.06430000  0.11160000  1.0 -0.1179313319
N  N6  1  0.06430000  0.28650000  0.38840000  1.0 -0.1179313319
N  N7  1  0.71350000  0.93570000  0.88840000  1.0 -0.1179313319
N  N8  1  0.93570000  0.71350000  0.61160000  1.0 -0.1179313319
N  N9  1  0.26730000  0.05750000  0.13930000  1.0 0.0093376801
N  N10  1  0.05750000  0.26730000  0.36070000  1.0 0.0093376801
N  N11  1  0.73270000  0.94250000  0.86070000  1.0 0.0093376801
N  N12  1  0.94250000  0.73270000  0.63930000  1.0 0.0093376801
O  O1  1  0.24100000  0.53320000  0.29800000  1.0 -0.252227204
O  O2  1  0.53320000  0.24100000  0.20200000  1.0 -0.252227204
O  O3  1  0.75900000  0.46680000  0.70200000  1.0 -0.252227204
O  O4  1  0.46680000  0.75900000  0.79800000  1.0 -0.252227204
O  O5  1  0.32120000  0.59160000  0.21780000  1.0 -0.5573464106
O  O6  1  0.59160000  0.32120000  0.28220000  1.0 -0.5573464106
O  O7  1  0.67880000  0.40840000  0.78220000  1.0 -0.5573464106
O  O8  1  0.40840000  0.67880000  0.71780000  1.0 -0.5573464106
O  O9  1  0.46168000  0.95172000  0.62640000  1.0 -0.5364355391
O  O10  1  0.95172000  0.46168000  0.87360000  1.0 -0.5364355391
O  O11  1  0.53832000  0.04828000  0.37360000  1.0 -0.5364355391
O  O12  1  0.04828000  0.53832000  0.12640000  1.0 -0.5364355391
O  O13  1  0.35024000  0.97816000  0.58900000  1.0 -0.619698452
O  O14  1  0.97816000  0.35024000  0.91100000  1.0 -0.619698452
O  O15  1  0.64976000  0.02184000  0.41100000  1.0 -0.619698452
O  O16  1  0.02184000  0.64976000  0.08900000  1.0 -0.619698452
O  O17  1  0.66940000  0.21940000  0.40850000  1.0 -0.5573464106
O  O18  1  0.21940000  0.66940000  0.09150000  1.0 -0.5573464106
O  O19  1  0.33060000  0.78060000  0.59150000  1.0 -0.5573464106
O  O20  1  0.78060000  0.33060000  0.90850000  1.0 -0.5573464106
O  O21  1  0.68391000  0.12529000  0.50230000  1.0 -0.5573464106
O  O22  1  0.12529000  0.68391000  0.99770000  1.0 -0.5573464106
O  O23  1  0.31609000  0.87471000  0.49770000  1.0 -0.5573464106
O  O24  1  0.87471000  0.31609000  0.00230000  1.0 -0.5573464106
O  O25  1  0.92490000  0.16330000  0.94080000  1.0 -0.5095095506
O  O26  1  0.16330000  0.92490000  0.55920000  1.0 -0.5095095506
O  O27  1  0.07510000  0.83670000  0.05920000  1.0 -0.5095095506
O  O28  1  0.83670000  0.07510000  0.44080000  1.0 -0.5095095506
O  O29  1  0.01500000  0.23520000  0.88030000  1.0 -0.5364355391
O  O30  1  0.23520000  0.01500000  0.61970000  1.0 -0.5364355391
O  O31  1  0.98500000  0.76480000  0.11970000  1.0 -0.5364355391
O  O32  1  0.76480000  0.98500000  0.38030000  1.0 -0.5364355391
O  O33  1  0.29414000  0.73026000  0.22060000  1.0 -0.4498368968
O  O34  1  0.73026000  0.29414000  0.27940000  1.0 -0.4498368968
O  O35  1  0.70586000  0.26974000  0.77940000  1.0 -0.4498368968
O  O36  1  0.26974000  0.70586000  0.72060000  1.0 -0.4498368968
O  O37  1  0.18637000  0.75143000  0.15010000  1.0 -0.6469010879
O  O38  1  0.75143000  0.18637000  0.34990000  1.0 -0.6469010879
O  O39  1  0.81363000  0.24857000  0.84990000  1.0 -0.6469010879
O  O40  1  0.24857000  0.81363000  0.65010000  1.0 -0.6469010879
O  O41  1  0.58600000  0.10740000  0.24440000  1.0 -0.5539747646
O  O42  1  0.10740000  0.58600000  0.25560000  1.0 -0.5539747646
O  O43  1  0.41400000  0.89260000  0.75560000  1.0 -0.5539747646
O  O44  1  0.89260000  0.41400000  0.74440000  1.0 -0.5539747646
O  O45  1  0.57470000  0.98050000  0.27190000  1.0 -0.5307544788
O  O46  1  0.98050000  0.57470000  0.22810000  1.0 -0.5307544788
O  O47  1  0.42530000  0.01950000  0.72810000  1.0 -0.5307544788
O  O48  1  0.01950000  0.42530000  0.77190000  1.0 -0.5307544788
O  O49  1  0.48740000  0.20420000  0.24590000  1.0 0.062453376
O  O50  1  0.20420000  0.48740000  0.25410000  1.0 0.062453376
O  O51  1  0.51260000  0.79580000  0.75410000  1.0 0.062453376
O  O52  1  0.79580000  0.51260000  0.74590000  1.0 0.062453376
O  O53  1  0.49190000  0.20670000  0.27650000  1.0 -0.0371224031
O  O54  1  0.20670000  0.49190000  0.22350000  1.0 -0.0371224031
O  O55  1  0.50810000  0.79330000  0.72350000  1.0 -0.0275767342
O  O56  1  0.79330000  0.50810000  0.77650000  1.0 -0.0371224031
