# DDEC6 charges by PACMAN v1.1 (https://github.com/mtap-research/PACMAN-charge/)
data_REHHUJ_FSR_pacman
_symmetry_space_group_name_H-M   'P 1'
_cell_length_a   19.43110000
_cell_length_b   19.43110000
_cell_length_c   22.36660000
_cell_angle_alpha   67.05850000
_cell_angle_beta   112.94100000
_cell_angle_gamma   122.27000000
_symmetry_Int_Tables_number   1
_chemical_formula_structural   Cd3H38C45N5O17
_chemical_formula_sum   'Cd12 H152 C180 N20 O68'
_cell_volume   6394.25148767
_cell_formula_units_Z   4
loop_
 _symmetry_equiv_pos_site_id
 _symmetry_equiv_pos_as_xyz
  1  'x, y, z'
loop_
 _atom_site_type_symbol
 _atom_site_label
 _atom_site_symmetry_multiplicity
 _atom_site_fract_x
 _atom_site_fract_y
 _atom_site_fract_z
 _atom_site_occupancy
 _atom_site_charge
Cd  Cd1  1  0.58809000  0.16349000  0.29885000  1.0 0.9246807358
Cd  Cd2  1  0.16349000  0.58809000  0.20115000  1.0 0.9246807358
Cd  Cd3  1  0.41191000  0.83651000  0.70115000  1.0 0.9246807358
Cd  Cd4  1  0.83651000  0.41191000  0.79885000  1.0 0.9246807358
Cd  Cd5  1  0.11276000  0.76232000  0.04820000  1.0 1.0909951589
Cd  Cd6  1  0.76232000  0.11276000  0.45180000  1.0 1.0909951589
Cd  Cd7  1  0.88724000  0.23768000  0.95180000  1.0 1.0909951589
Cd  Cd8  1  0.23768000  0.88724000  0.54820000  1.0 1.0909951589
Cd  Cd9  1  0.96751000  0.31843000  0.81158000  1.0 1.0130346677
Cd  Cd10  1  0.31843000  0.96751000  0.68842000  1.0 1.0130346677
Cd  Cd11  1  0.03249000  0.68157000  0.18842000  1.0 1.0130346677
Cd  Cd12  1  0.68157000  0.03249000  0.31158000  1.0 1.0130346677
H  H1  1  0.43260000  0.30720000  0.25630000  1.0 0.1073601689
H  H2  1  0.30720000  0.43260000  0.24370000  1.0 0.1073601689
H  H3  1  0.56740000  0.69280000  0.74370000  1.0 0.1073601689
H  H4  1  0.69280000  0.56740000  0.75630000  1.0 0.1073601689
H  H5  1  0.34720000  0.37040000  0.19720000  1.0 0.0752029158
H  H6  1  0.37040000  0.34720000  0.30280000  1.0 0.0752029158
H  H7  1  0.65280000  0.62960000  0.80280000  1.0 0.0752029158
H  H8  1  0.62960000  0.65280000  0.69720000  1.0 0.0752029158
H  H9  1  0.33650000  0.33590000  0.02800000  1.0 0.1073601689
H  H10  1  0.33590000  0.33650000  0.47200000  1.0 0.1073601689
H  H11  1  0.66350000  0.66410000  0.97200000  1.0 0.1073601689
H  H12  1  0.66410000  0.66350000  0.52800000  1.0 0.1073601689
H  H13  1  0.41700000  0.26340000  0.08930000  1.0 0.1207438818
H  H14  1  0.26340000  0.41700000  0.41070000  1.0 0.1207438818
H  H15  1  0.58300000  0.73660000  0.91070000  1.0 0.1207438818
H  H16  1  0.73660000  0.58300000  0.58930000  1.0 0.1207438818
H  H17  1  0.05490000  0.56530000  0.95150000  1.0 0.1207438818
H  H18  1  0.56530000  0.05490000  0.54850000  1.0 0.1207438818
H  H19  1  0.94510000  0.43470000  0.04850000  1.0 0.1207438818
H  H20  1  0.43470000  0.94510000  0.45150000  1.0 0.1207438818
H  H21  1  0.12670000  0.38970000  0.98740000  1.0 0.1303523162
H  H22  1  0.38970000  0.12670000  0.51260000  1.0 0.1303523162
H  H23  1  0.87330000  0.61030000  0.01260000  1.0 0.1303523162
H  H24  1  0.61030000  0.87330000  0.48740000  1.0 0.1303523162
H  H25  1  0.24920000  0.55380000  0.10390000  1.0 0.1207438818
H  H26  1  0.55380000  0.24920000  0.39610000  1.0 0.1207438818
H  H27  1  0.75080000  0.44620000  0.89610000  1.0 0.1207438818
H  H28  1  0.44620000  0.75080000  0.60390000  1.0 0.1207438818
H  H29  1  0.08350000  0.97870000  0.47450000  1.0 0.1303523162
H  H30  1  0.97870000  0.08350000  0.02550000  1.0 0.1303523162
H  H31  1  0.91650000  0.02130000  0.52550000  1.0 0.1303523162
H  H32  1  0.02130000  0.91650000  0.97450000  1.0 0.1303523162
H  H33  1  0.01120000  0.05120000  0.39000000  1.0 0.1207438818
H  H34  1  0.05120000  0.01120000  0.11000000  1.0 0.1207438818
H  H35  1  0.98880000  0.94880000  0.61000000  1.0 0.1207438818
H  H36  1  0.94880000  0.98880000  0.89000000  1.0 0.1207438818
H  H37  1  0.15310000  0.23970000  0.48180000  1.0 0.1207438818
H  H38  1  0.23970000  0.15310000  0.01820000  1.0 0.1207438818
H  H39  1  0.84690000  0.76030000  0.51820000  1.0 0.1207438818
H  H40  1  0.76030000  0.84690000  0.98180000  1.0 0.1207438818
H  H41  1  0.22640000  0.16820000  0.56070000  1.0 0.1207438818
H  H42  1  0.16820000  0.22640000  0.93930000  1.0 0.1207438818
H  H43  1  0.77360000  0.83180000  0.43930000  1.0 0.1207438818
H  H44  1  0.83180000  0.77360000  0.06070000  1.0 0.1207438818
H  H45  1  0.84240000  0.39820000  0.24930000  1.0 0.1303523162
H  H46  1  0.39820000  0.84240000  0.25070000  1.0 0.1303523162
H  H47  1  0.15760000  0.60180000  0.75070000  1.0 0.1303523162
H  H48  1  0.60180000  0.15760000  0.74930000  1.0 0.1303523162
H  H49  1  0.07670000  0.42590000  0.31780000  1.0 0.1303523162
H  H50  1  0.42590000  0.07670000  0.18220000  1.0 0.1303523162
H  H51  1  0.92330000  0.57410000  0.68220000  1.0 0.1303523162
H  H52  1  0.57410000  0.92330000  0.81780000  1.0 0.1303523162
H  H53  1  0.88140000  0.19780000  0.34870000  1.0 0.1388953613
H  H54  1  0.19780000  0.88140000  0.15130000  1.0 0.1388953613
H  H55  1  0.11860000  0.80220000  0.65130000  1.0 0.1388953613
H  H56  1  0.80220000  0.11860000  0.84870000  1.0 0.1388953613
H  H57  1  0.86210000  0.78530000  0.78330000  1.0 0.1207438818
H  H58  1  0.78530000  0.86210000  0.71670000  1.0 0.1207438818
H  H59  1  0.13790000  0.21470000  0.21670000  1.0 0.1207438818
H  H60  1  0.21470000  0.13790000  0.28330000  1.0 0.1207438818
H  H61  1  0.87190000  0.78450000  0.85650000  1.0 0.1303523162
H  H62  1  0.78450000  0.87190000  0.64350000  1.0 0.1303523162
H  H63  1  0.12810000  0.21550000  0.14350000  1.0 0.1303523162
H  H64  1  0.21550000  0.12810000  0.35650000  1.0 0.1303523162
H  H65  1  0.94480000  0.85020000  0.82000000  1.0 0.1388953613
H  H66  1  0.85020000  0.94480000  0.68000000  1.0 0.1388953613
H  H67  1  0.05520000  0.14980000  0.18000000  1.0 0.1388953613
H  H68  1  0.14980000  0.05520000  0.32000000  1.0 0.1388953613
H  H69  1  0.86590000  0.68910000  0.77010000  1.0 0.1073601689
H  H70  1  0.68910000  0.86590000  0.72990000  1.0 0.1073601689
H  H71  1  0.13410000  0.31090000  0.22990000  1.0 0.1073601689
H  H72  1  0.31090000  0.13410000  0.27010000  1.0 0.1073601689
H  H73  1  0.95170000  0.68550000  0.79670000  1.0 0.1303523162
H  H74  1  0.68550000  0.95170000  0.70330000  1.0 0.1303523162
H  H75  1  0.04830000  0.31450000  0.20330000  1.0 0.1303523162
H  H76  1  0.31450000  0.04830000  0.29670000  1.0 0.1303523162
H  H77  1  0.87920000  0.62100000  0.83380000  1.0 0.1207438818
H  H78  1  0.62100000  0.87920000  0.66620000  1.0 0.1207438818
H  H79  1  0.12080000  0.37900000  0.16620000  1.0 0.1207438818
H  H80  1  0.37900000  0.12080000  0.33380000  1.0 0.1207438818
H  H81  1  0.38580000  0.10760000  0.99550000  1.0 0.1303523162
H  H82  1  0.10760000  0.38580000  0.50450000  1.0 0.1303523162
H  H83  1  0.61420000  0.89240000  0.00450000  1.0 0.1303523162
H  H84  1  0.89240000  0.61420000  0.49550000  1.0 0.1303523162
H  H85  1  0.30130000  0.04670000  0.95700000  1.0 0.1467484962
H  H86  1  0.04670000  0.30130000  0.54300000  1.0 0.1467484962
H  H87  1  0.69870000  0.95330000  0.04300000  1.0 0.1467484962
H  H88  1  0.95330000  0.69870000  0.45700000  1.0 0.1467484962
H  H89  1  0.30890000  0.04970000  0.02850000  1.0 0.1303523162
H  H90  1  0.04970000  0.30890000  0.47150000  1.0 0.1303523162
H  H91  1  0.69110000  0.95030000  0.97150000  1.0 0.1303523162
H  H92  1  0.95030000  0.69110000  0.52850000  1.0 0.1303523162
H  H93  1  0.43970000  0.93250000  0.07950000  1.0 0.1303523162
H  H94  1  0.93250000  0.43970000  0.42050000  1.0 0.1303523162
H  H95  1  0.56030000  0.06750000  0.92050000  1.0 0.1303523162
H  H96  1  0.06750000  0.56030000  0.57950000  1.0 0.1303523162
H  H97  1  0.47690000  0.01250000  0.02450000  1.0 0.1303523162
H  H98  1  0.01250000  0.47690000  0.47550000  1.0 0.1303523162
H  H99  1  0.52310000  0.98750000  0.97550000  1.0 0.1303523162
H  H100  1  0.98750000  0.52310000  0.52450000  1.0 0.1303523162
H  H101  1  0.47880000  0.02160000  0.09180000  1.0 0.1388953613
H  H102  1  0.02160000  0.47880000  0.40820000  1.0 0.1388953613
H  H103  1  0.52120000  0.97840000  0.90820000  1.0 0.1388953613
H  H104  1  0.97840000  0.52120000  0.59180000  1.0 0.1388953613
H  H105  1  0.69980000  0.11700000  0.62270000  1.0 0.1388953613
H  H106  1  0.11700000  0.69980000  0.87730000  1.0 0.1388953613
H  H107  1  0.30020000  0.88300000  0.37730000  1.0 0.1388953613
H  H108  1  0.88300000  0.30020000  0.12270000  1.0 0.1388953613
H  H109  1  0.73990000  0.11470000  0.69890000  1.0 0.1388953613
H  H110  1  0.11470000  0.73990000  0.80110000  1.0 0.1388953613
H  H111  1  0.26010000  0.88530000  0.30110000  1.0 0.1388953613
H  H112  1  0.88530000  0.26010000  0.19890000  1.0 0.1388953613
H  H113  1  0.79250000  0.13010000  0.65270000  1.0 0.1467484962
H  H114  1  0.13010000  0.79250000  0.84730000  1.0 0.1467484962
H  H115  1  0.20750000  0.86990000  0.34730000  1.0 0.1467484962
H  H116  1  0.86990000  0.20750000  0.15270000  1.0 0.1467484962
H  H117  1  0.66910000  0.20930000  0.57910000  1.0 0.1388953613
H  H118  1  0.20930000  0.66910000  0.92090000  1.0 0.1388953613
H  H119  1  0.33090000  0.79070000  0.42090000  1.0 0.1388953613
H  H120  1  0.79070000  0.33090000  0.07910000  1.0 0.1388953613
H  H121  1  0.72990000  0.30530000  0.56910000  1.0 0.1467484962
H  H122  1  0.30530000  0.72990000  0.93090000  1.0 0.1467484962
H  H123  1  0.27010000  0.69470000  0.43090000  1.0 0.1467484962
H  H124  1  0.69470000  0.27010000  0.06910000  1.0 0.1467484962
H  H125  1  0.68900000  0.25740000  0.63060000  1.0 0.1467484962
H  H126  1  0.25740000  0.68900000  0.86940000  1.0 0.1467484962
H  H127  1  0.31100000  0.74260000  0.36940000  1.0 0.1467484962
H  H128  1  0.74260000  0.31100000  0.13060000  1.0 0.1467484962
H  H129  1  0.25200000  0.39200000  0.02700000  1.0 0.1025234485
H  H130  1  0.39200000  0.25200000  0.47300000  1.0 0.1025234485
H  H131  1  0.74800000  0.60800000  0.97300000  1.0 0.1025234485
H  H132  1  0.60800000  0.74800000  0.52700000  1.0 0.1025234485
H  H133  1  0.05700000  0.17700000  0.37200000  1.0 0.1025234485
H  H134  1  0.17700000  0.05700000  0.12800000  1.0 0.1025234485
H  H135  1  0.94300000  0.82300000  0.62800000  1.0 0.1025234485
H  H136  1  0.82300000  0.94300000  0.87200000  1.0 0.1025234485
H  H137  1  0.51170000  0.40550000  0.22350000  1.0 0.1073601689
H  H138  1  0.40550000  0.51170000  0.27650000  1.0 0.1073601689
H  H139  1  0.48830000  0.59450000  0.77650000  1.0 0.1073601689
H  H140  1  0.59450000  0.48830000  0.72350000  1.0 0.1073601689
H  H141  1  0.43940000  0.38840000  0.32640000  1.0 0.0724362559
H  H142  1  0.38840000  0.43940000  0.17360000  1.0 0.0724362559
H  H143  1  0.56060000  0.61160000  0.67360000  1.0 0.0724362559
H  H144  1  0.61160000  0.56060000  0.82640000  1.0 0.0724362559
H  H145  1  0.23920000  0.23840000  0.11490000  1.0 0.1073601689
H  H146  1  0.23840000  0.23920000  0.38510000  1.0 0.1073601689
H  H147  1  0.76080000  0.76160000  0.88510000  1.0 0.1073601689
H  H148  1  0.76160000  0.76080000  0.61490000  1.0 0.1073601689
H  H149  1  0.33590000  0.18650000  0.17710000  1.0 0.1025234485
H  H150  1  0.18650000  0.33590000  0.32290000  1.0 0.1025234485
H  H151  1  0.66410000  0.81350000  0.82290000  1.0 0.1025234485
H  H152  1  0.81350000  0.66410000  0.67710000  1.0 0.1025234485
C  C1  1  0.49070000  0.23970000  0.22450000  1.0 0.3925782404
C  C2  1  0.23970000  0.49070000  0.27550000  1.0 0.3925782404
C  C3  1  0.50930000  0.76030000  0.77550000  1.0 0.3925782404
C  C4  1  0.76030000  0.50930000  0.72450000  1.0 0.3925782404
C  C5  1  0.41320000  0.31140000  0.21050000  1.0 -0.0452975147
C  C6  1  0.31140000  0.41320000  0.28950000  1.0 -0.0452975147
C  C7  1  0.58680000  0.68860000  0.78950000  1.0 -0.0452975147
C  C8  1  0.68860000  0.58680000  0.71050000  1.0 -0.0452975147
C  C9  1  0.43550000  0.28330000  0.18440000  1.0 -0.0189412576
C  C10  1  0.28330000  0.43550000  0.31560000  1.0 -0.0189412576
C  C11  1  0.56450000  0.71670000  0.81560000  1.0 -0.0189412576
C  C12  1  0.71670000  0.56450000  0.68440000  1.0 -0.0189412576
C  C13  1  0.36010000  0.34930000  0.17430000  1.0 -0.0189412576
C  C14  1  0.34930000  0.36010000  0.32570000  1.0 -0.0189412576
C  C15  1  0.63990000  0.65070000  0.82570000  1.0 -0.0189412576
C  C16  1  0.65070000  0.63990000  0.67430000  1.0 -0.0189412576
C  C17  1  0.32790000  0.35670000  0.11060000  1.0 0.0578016563
C  C18  1  0.35670000  0.32790000  0.38940000  1.0 0.0578016563
C  C19  1  0.67210000  0.64330000  0.88940000  1.0 0.0578016563
C  C20  1  0.64330000  0.67210000  0.61060000  1.0 0.0578016563
C  C21  1  0.35380000  0.32720000  0.07430000  1.0 -0.0931091309
C  C22  1  0.32720000  0.35380000  0.42570000  1.0 -0.0931091309
C  C23  1  0.64620000  0.67280000  0.92570000  1.0 -0.0931091309
C  C24  1  0.67280000  0.64620000  0.57430000  1.0 -0.0931091309
C  C25  1  0.26980000  0.39420000  0.07260000  1.0 0.0373288778
C  C26  1  0.39420000  0.26980000  0.42740000  1.0 0.0373288778
C  C27  1  0.73020000  0.60580000  0.92740000  1.0 0.0373288778
C  C28  1  0.60580000  0.73020000  0.57260000  1.0 0.0373288778
C  C29  1  0.40370000  0.28690000  0.10970000  1.0 -0.128656082
C  C30  1  0.28690000  0.40370000  0.39030000  1.0 -0.128656082
C  C31  1  0.59630000  0.71310000  0.89030000  1.0 -0.128656082
C  C32  1  0.71310000  0.59630000  0.60970000  1.0 -0.128656082
C  C33  1  0.16350000  0.64250000  0.04790000  1.0 0.5714026204
C  C34  1  0.64250000  0.16350000  0.45210000  1.0 0.5714026204
C  C35  1  0.83650000  0.35750000  0.95210000  1.0 0.5714026204
C  C36  1  0.35750000  0.83650000  0.54790000  1.0 0.5714026204
C  C37  1  0.15420000  0.57160000  0.02970000  1.0 -0.0189412576
C  C38  1  0.57160000  0.15420000  0.47030000  1.0 -0.0189412576
C  C39  1  0.84580000  0.42840000  0.97030000  1.0 -0.0189412576
C  C40  1  0.42840000  0.84580000  0.52970000  1.0 -0.0189412576
C  C41  1  0.09010000  0.54030000  0.97680000  1.0 -0.1414560565
C  C42  1  0.54030000  0.09010000  0.52320000  1.0 -0.1414560565
C  C43  1  0.90990000  0.45970000  0.02320000  1.0 -0.1414560565
C  C44  1  0.45970000  0.90990000  0.47680000  1.0 -0.1414560565
C  C45  1  0.07850000  0.47090000  0.96140000  1.0 -0.0111806142
C  C46  1  0.47090000  0.07850000  0.53860000  1.0 -0.0111806142
C  C47  1  0.92150000  0.52910000  0.03860000  1.0 -0.0111806142
C  C48  1  0.52910000  0.92150000  0.46140000  1.0 -0.0111806142
C  C49  1  0.13350000  0.43490000  0.99820000  1.0 -0.2150432804
C  C50  1  0.43490000  0.13350000  0.50180000  1.0 -0.2150432804
C  C51  1  0.86650000  0.56510000  0.00180000  1.0 -0.2150432804
C  C52  1  0.56510000  0.86650000  0.49820000  1.0 -0.2150432804
C  C53  1  0.19940000  0.46760000  0.05190000  1.0 0.1843956968
C  C54  1  0.46760000  0.19940000  0.44810000  1.0 0.1843956968
C  C55  1  0.80060000  0.53240000  0.94810000  1.0 0.1843956968
C  C56  1  0.53240000  0.80060000  0.55190000  1.0 0.1843956968
C  C57  1  0.20750000  0.53370000  0.06750000  1.0 -0.1991470271
C  C58  1  0.53370000  0.20750000  0.43250000  1.0 -0.1991470271
C  C59  1  0.79250000  0.46630000  0.93250000  1.0 -0.1991470271
C  C60  1  0.46630000  0.79250000  0.56750000  1.0 -0.1991470271
C  C61  1  0.00590000  0.43290000  0.90820000  1.0 0.5903261564
C  C62  1  0.43290000  0.00590000  0.59180000  1.0 0.5903261564
C  C63  1  0.99410000  0.56710000  0.09180000  1.0 0.5903261564
C  C64  1  0.56710000  0.99410000  0.40820000  1.0 0.5903261564
C  C65  1  0.20510000  0.01610000  0.58110000  1.0 0.5802961699
C  C66  1  0.01610000  0.20510000  0.91890000  1.0 0.5802961699
C  C67  1  0.79490000  0.98390000  0.41890000  1.0 0.5802961699
C  C68  1  0.98390000  0.79490000  0.08110000  1.0 0.5802961699
C  C69  1  0.16000000  0.06500000  0.52670000  1.0 -0.0189412576
C  C70  1  0.06500000  0.16000000  0.97330000  1.0 -0.0189412576
C  C71  1  0.84000000  0.93500000  0.47330000  1.0 -0.0189412576
C  C72  1  0.93500000  0.84000000  0.02670000  1.0 -0.0189412576
C  C73  1  0.09790000  0.03210000  0.47590000  1.0 -0.0972695165
C  C74  1  0.03210000  0.09790000  0.02410000  1.0 -0.0972695165
C  C75  1  0.90210000  0.96790000  0.52410000  1.0 -0.0972695165
C  C76  1  0.96790000  0.90210000  0.97590000  1.0 -0.0972695165
C  C77  1  0.05350000  0.07530000  0.42440000  1.0 -0.1534348988
C  C78  1  0.07530000  0.05350000  0.07560000  1.0 -0.1534348988
C  C79  1  0.94650000  0.92470000  0.57560000  1.0 -0.1534348988
C  C80  1  0.92470000  0.94650000  0.92440000  1.0 -0.1534348988
C  C81  1  0.07570000  0.15450000  0.42750000  1.0 0.0123773966
C  C82  1  0.15450000  0.07570000  0.07250000  1.0 0.0123773966
C  C83  1  0.92430000  0.84550000  0.57250000  1.0 0.0123773966
C  C84  1  0.84550000  0.92430000  0.92750000  1.0 0.0123773966
C  C85  1  0.13870000  0.18690000  0.47900000  1.0 -0.128656082
C  C86  1  0.18690000  0.13870000  0.02100000  1.0 -0.128656082
C  C87  1  0.86130000  0.81310000  0.52100000  1.0 -0.128656082
C  C88  1  0.81310000  0.86130000  0.97900000  1.0 -0.128656082
C  C89  1  0.18200000  0.14320000  0.52760000  1.0 -0.1093213159
C  C90  1  0.14320000  0.18200000  0.97240000  1.0 -0.1093213159
C  C91  1  0.81800000  0.85680000  0.47240000  1.0 -0.1093213159
C  C92  1  0.85680000  0.81800000  0.02760000  1.0 -0.1093213159
C  C93  1  0.02710000  0.19930000  0.37700000  1.0 0.0324098863
C  C94  1  0.19930000  0.02710000  0.12300000  1.0 0.0324098863
C  C95  1  0.97290000  0.80070000  0.62300000  1.0 0.0324098863
C  C96  1  0.80070000  0.97290000  0.87700000  1.0 0.0324098863
C  C97  1  0.75770000  0.23830000  0.29680000  1.0 0.5802961699
C  C98  1  0.23830000  0.75770000  0.20320000  1.0 0.5802961699
C  C99  1  0.24230000  0.76170000  0.70320000  1.0 0.5802961699
C  C100  1  0.76170000  0.24230000  0.79680000  1.0 0.5802961699
C  C101  1  0.84780000  0.29040000  0.29840000  1.0 -0.0283230754
C  C102  1  0.29040000  0.84780000  0.20160000  1.0 -0.0283230754
C  C103  1  0.15220000  0.70960000  0.70160000  1.0 -0.0283230754
C  C104  1  0.70960000  0.15220000  0.79840000  1.0 -0.0283230754
C  C105  1  0.87920000  0.37480000  0.27220000  1.0 -0.1200402268
C  C106  1  0.37480000  0.87920000  0.22780000  1.0 -0.1200402268
C  C107  1  0.12080000  0.62520000  0.72780000  1.0 -0.1200402268
C  C108  1  0.62520000  0.12080000  0.77220000  1.0 -0.1200402268
C  C109  1  0.96410000  0.42630000  0.27860000  1.0 -0.0111806142
C  C110  1  0.42630000  0.96410000  0.22140000  1.0 -0.0111806142
C  C111  1  0.03590000  0.57370000  0.72140000  1.0 -0.0111806142
C  C112  1  0.57370000  0.03590000  0.77860000  1.0 -0.0111806142
C  C113  1  0.01930000  0.39170000  0.31240000  1.0 -0.1991470271
C  C114  1  0.39170000  0.01930000  0.18760000  1.0 -0.1991470271
C  C115  1  0.98070000  0.60830000  0.68760000  1.0 -0.1991470271
C  C116  1  0.60830000  0.98070000  0.81240000  1.0 -0.1991470271
C  C117  1  0.98850000  0.30530000  0.33820000  1.0 0.1924354545
C  C118  1  0.30530000  0.98850000  0.16180000  1.0 0.1924354545
C  C119  1  0.01150000  0.69470000  0.66180000  1.0 0.1924354545
C  C120  1  0.69470000  0.01150000  0.83820000  1.0 0.1924354545
C  C121  1  0.90220000  0.25540000  0.33110000  1.0 -0.1777057984
C  C122  1  0.25540000  0.90220000  0.16890000  1.0 -0.1777057984
C  C123  1  0.09780000  0.74460000  0.66890000  1.0 -0.1777057984
C  C124  1  0.74460000  0.09780000  0.83110000  1.0 -0.1777057984
C  C125  1  0.99460000  0.51880000  0.25290000  1.0 0.563324537
C  C126  1  0.51880000  0.99460000  0.24710000  1.0 0.563324537
C  C127  1  0.00540000  0.48120000  0.74710000  1.0 0.563324537
C  C128  1  0.48120000  0.00540000  0.75290000  1.0 0.563324537
C  C129  1  0.99230000  0.73210000  0.90980000  1.0 0.2694391123
C  C130  1  0.73210000  0.99230000  0.59020000  1.0 0.2694391123
C  C131  1  0.00770000  0.26790000  0.09020000  1.0 0.2694391123
C  C132  1  0.26790000  0.00770000  0.40980000  1.0 0.2694391123
C  C133  1  0.90070000  0.79390000  0.82560000  1.0 -0.3228781559
C  C134  1  0.79390000  0.90070000  0.67440000  1.0 -0.3228781559
C  C135  1  0.09930000  0.20610000  0.17440000  1.0 -0.3228781559
C  C136  1  0.20610000  0.09930000  0.32560000  1.0 -0.3228781559
C  C137  1  0.90570000  0.67770000  0.80940000  1.0 -0.3691172085
C  C138  1  0.67770000  0.90570000  0.69060000  1.0 -0.3691172085
C  C139  1  0.09430000  0.32230000  0.19060000  1.0 -0.3691172085
C  C140  1  0.32230000  0.09430000  0.30940000  1.0 -0.3691172085
C  C141  1  0.29830000  0.90450000  0.04360000  1.0 0.1691430657
C  C142  1  0.90450000  0.29830000  0.45640000  1.0 0.1691430657
C  C143  1  0.70170000  0.09550000  0.95640000  1.0 0.1691430657
C  C144  1  0.09550000  0.70170000  0.54360000  1.0 0.1691430657
C  C145  1  0.33800000  0.05360000  0.00020000  1.0 -0.3105990552
C  C146  1  0.05360000  0.33800000  0.49980000  1.0 -0.3105990552
C  C147  1  0.66200000  0.94640000  0.99980000  1.0 -0.3105990552
C  C148  1  0.94640000  0.66200000  0.50020000  1.0 -0.3105990552
C  C149  1  0.44720000  0.98880000  0.05890000  1.0 -0.3326042482
C  C150  1  0.98880000  0.44720000  0.44110000  1.0 -0.3326042482
C  C151  1  0.55280000  0.01120000  0.94110000  1.0 -0.3326042482
C  C152  1  0.01120000  0.55280000  0.55890000  1.0 -0.3326042482
C  C153  1  0.85240000  0.28220000  0.68090000  1.0 0.1303523162
C  C154  1  0.28220000  0.85240000  0.81910000  1.0 0.1303523162
C  C155  1  0.14760000  0.71780000  0.31910000  1.0 0.1303523162
C  C156  1  0.71780000  0.14760000  0.18090000  1.0 0.1303523162
C  C157  1  0.75050000  0.14030000  0.65500000  1.0 -0.3105990552
C  C158  1  0.14030000  0.75050000  0.84500000  1.0 -0.3105990552
C  C159  1  0.24950000  0.85970000  0.34500000  1.0 -0.3105990552
C  C160  1  0.85970000  0.24950000  0.15500000  1.0 -0.3105990552
C  C161  1  0.71150000  0.25330000  0.60150000  1.0 -0.3105990552
C  C162  1  0.25330000  0.71150000  0.89850000  1.0 -0.3105990552
C  C163  1  0.28850000  0.74670000  0.39850000  1.0 -0.3105990552
C  C164  1  0.74670000  0.28850000  0.10150000  1.0 -0.3105990552
C  C165  1  0.46080000  0.37440000  0.19770000  1.0 -0.0283230754
C  C166  1  0.37440000  0.46080000  0.30230000  1.0 -0.0283230754
C  C167  1  0.53920000  0.62560000  0.80230000  1.0 -0.0283230754
C  C168  1  0.62560000  0.53920000  0.69770000  1.0 -0.0189412576
C  C169  1  0.39940000  0.39100000  0.33740000  1.0 -0.0762417578
C  C170  1  0.39100000  0.39940000  0.16260000  1.0 -0.0762417578
C  C171  1  0.60060000  0.60900000  0.66260000  1.0 -0.0762417578
C  C172  1  0.60900000  0.60060000  0.83740000  1.0 -0.0762417578
C  C173  1  0.29590000  0.27370000  0.12700000  1.0 -0.1093213159
C  C174  1  0.27370000  0.29590000  0.37300000  1.0 -0.1093213159
C  C175  1  0.70410000  0.72630000  0.87300000  1.0 -0.1093213159
C  C176  1  0.72630000  0.70410000  0.62700000  1.0 -0.1093213159
C  C177  1  0.35730000  0.24450000  0.16480000  1.0 -0.0575256088
C  C178  1  0.24450000  0.35730000  0.33520000  1.0 -0.0575256088
C  C179  1  0.64270000  0.75550000  0.83520000  1.0 -0.0575256088
C  C180  1  0.75550000  0.64270000  0.66480000  1.0 -0.0575256088
N  N1  1  0.25550000  0.43330000  0.09050000  1.0 -0.2412953378
N  N2  1  0.43330000  0.25550000  0.40950000  1.0 -0.2412953378
N  N3  1  0.74450000  0.56670000  0.90950000  1.0 -0.2412953378
N  N4  1  0.56670000  0.74450000  0.59050000  1.0 -0.2412953378
N  N5  1  0.04561000  0.27139000  0.37850000  1.0 -0.2681077459
N  N6  1  0.27139000  0.04561000  0.12150000  1.0 -0.2681077459
N  N7  1  0.95439000  0.72861000  0.62150000  1.0 -0.2681077459
N  N8  1  0.72861000  0.95439000  0.87850000  1.0 -0.2681077459
N  N9  1  0.93670000  0.73490000  0.85160000  1.0 0.0123773966
N  N10  1  0.73490000  0.93670000  0.64840000  1.0 0.0123773966
N  N11  1  0.06330000  0.26510000  0.14840000  1.0 0.0123773966
N  N12  1  0.26510000  0.06330000  0.35160000  1.0 0.0123773966
N  N13  1  0.36560000  0.98860000  0.02970000  1.0 0.0461897104
N  N14  1  0.98860000  0.36560000  0.47030000  1.0 0.0461897104
N  N15  1  0.63440000  0.01140000  0.97030000  1.0 0.0461897104
N  N16  1  0.01140000  0.63440000  0.52970000  1.0 0.0461897104
N  N17  1  0.78130000  0.23490000  0.64020000  1.0 0.0373288778
N  N18  1  0.23490000  0.78130000  0.85980000  1.0 0.0373288778
N  N19  1  0.21870000  0.76510000  0.35980000  1.0 0.0373288778
N  N20  1  0.76510000  0.21870000  0.14020000  1.0 0.0373288778
O  O1  1  0.49970000  0.21370000  0.27930000  1.0 0.0724362559
O  O2  1  0.21370000  0.49970000  0.22070000  1.0 0.0752029158
O  O3  1  0.50030000  0.78630000  0.72070000  1.0 0.0752029158
O  O4  1  0.78630000  0.50030000  0.77930000  1.0 0.0752029158
O  O5  1  0.51760000  0.21820000  0.18780000  1.0 -0.3691172085
O  O6  1  0.21820000  0.51760000  0.31220000  1.0 -0.3649631479
O  O7  1  0.48240000  0.78180000  0.81220000  1.0 -0.3691172085
O  O8  1  0.78180000  0.48240000  0.68780000  1.0 -0.3691172085
O  O9  1  0.12259000  0.68161000  0.00630000  1.0 -0.5713623353
O  O10  1  0.68161000  0.12259000  0.49370000  1.0 -0.5713623353
O  O11  1  0.87741000  0.31839000  0.99370000  1.0 -0.5713623353
O  O12  1  0.31839000  0.87741000  0.50630000  1.0 -0.5713623353
O  O13  1  0.21141000  0.66099000  0.10320000  1.0 -0.5821703487
O  O14  1  0.66099000  0.21141000  0.39680000  1.0 -0.5821703487
O  O15  1  0.78859000  0.33901000  0.89680000  1.0 -0.5821703487
O  O16  1  0.33901000  0.78859000  0.60320000  1.0 -0.5821703487
O  O17  1  0.99183000  0.36177000  0.90510000  1.0 -0.6183217952
O  O18  1  0.36177000  0.99183000  0.59490000  1.0 -0.6183217952
O  O19  1  0.00817000  0.63823000  0.09490000  1.0 -0.6183217952
O  O20  1  0.63823000  0.00817000  0.40510000  1.0 -0.6183217952
O  O21  1  0.96283000  0.47057000  0.87100000  1.0 -0.5480525234
O  O22  1  0.47057000  0.96283000  0.62900000  1.0 -0.5480525234
O  O23  1  0.03717000  0.52943000  0.12900000  1.0 -0.5480525234
O  O24  1  0.52943000  0.03717000  0.37100000  1.0 -0.5480525234
O  O25  1  0.17950000  0.94230000  0.57600000  1.0 -0.5821703487
O  O26  1  0.94230000  0.17950000  0.92400000  1.0 -0.5821703487
O  O27  1  0.82050000  0.05770000  0.42400000  1.0 -0.5821703487
O  O28  1  0.05770000  0.82050000  0.07600000  1.0 -0.5821703487
O  O29  1  0.26350000  0.05310000  0.62540000  1.0 -0.5265810975
O  O30  1  0.05310000  0.26350000  0.87460000  1.0 -0.5265810975
O  O31  1  0.73650000  0.94690000  0.37460000  1.0 -0.5265810975
O  O32  1  0.94690000  0.73650000  0.12540000  1.0 -0.5265810975
O  O33  1  0.73375000  0.16405000  0.33510000  1.0 -0.6283554771
O  O34  1  0.16405000  0.73375000  0.16490000  1.0 -0.6283554771
O  O35  1  0.26625000  0.83595000  0.66490000  1.0 -0.6283554771
O  O36  1  0.83595000  0.26625000  0.83510000  1.0 -0.6283554771
O  O37  1  0.70675000  0.26645000  0.26040000  1.0 -0.4792022232
O  O38  1  0.26645000  0.70675000  0.23960000  1.0 -0.4792022232
O  O39  1  0.29325000  0.73355000  0.73960000  1.0 -0.4792022232
O  O40  1  0.73355000  0.29325000  0.76040000  1.0 -0.4792022232
O  O41  1  0.94342000  0.54798000  0.22510000  1.0 -0.5044260787
O  O42  1  0.54798000  0.94342000  0.27490000  1.0 -0.5044260787
O  O43  1  0.05658000  0.45202000  0.77490000  1.0 -0.5044260787
O  O44  1  0.45202000  0.05658000  0.72510000  1.0 -0.5044260787
O  O45  1  0.07331000  0.56609000  0.25860000  1.0 -0.5997138956
O  O46  1  0.56609000  0.07331000  0.24140000  1.0 -0.5997138956
O  O47  1  0.92669000  0.43391000  0.74140000  1.0 -0.5997138956
O  O48  1  0.43391000  0.92669000  0.75860000  1.0 -0.5997138956
O  O49  1  0.02031000  0.77829000  0.94830000  1.0 -0.4792022232
O  O50  1  0.77829000  0.02031000  0.55170000  1.0 -0.4792022232
O  O51  1  0.97969000  0.22171000  0.05170000  1.0 -0.4730353394
O  O52  1  0.22171000  0.97969000  0.44830000  1.0 -0.4792022232
O  O53  1  0.22200000  0.88260000  0.02030000  1.0 -0.5061152318
O  O54  1  0.88260000  0.22200000  0.47970000  1.0 -0.5044260787
O  O55  1  0.77800000  0.11740000  0.97970000  1.0 -0.5044260787
O  O56  1  0.11740000  0.77800000  0.52030000  1.0 -0.5044260787
O  O57  1  0.88970000  0.25350000  0.72910000  1.0 -0.3810938561
O  O58  1  0.25350000  0.88970000  0.77090000  1.0 -0.3810938561
O  O59  1  0.11030000  0.74650000  0.27090000  1.0 -0.3810938561
O  O60  1  0.74650000  0.11030000  0.22910000  1.0 -0.3810938561
O  O61  1  0.56470000  0.29470000  0.26290000  1.0 -0.3105990552
O  O62  1  0.29470000  0.56470000  0.23710000  1.0 -0.3105990552
O  O63  1  0.43530000  0.70530000  0.73710000  1.0 -0.3105990552
O  O64  1  0.70530000  0.43530000  0.76290000  1.0 -0.3105990552
O  O65  1  0.47040000  0.17840000  0.24050000  1.0 0.1073601689
O  O66  1  0.17840000  0.47040000  0.25950000  1.0 0.1073601689
O  O67  1  0.52960000  0.82160000  0.75950000  1.0 0.1073601689
O  O68  1  0.82160000  0.52960000  0.74050000  1.0 0.1073601689
