# DDEC6 charges by PACMAN v1.1 (https://github.com/mtap-research/PACMAN-charge/)
data_REHYIP_ASR_pacman
_symmetry_space_group_name_H-M   'P 1'
_cell_length_a   12.36200000
_cell_length_b   15.86000000
_cell_length_c   16.12900000
_cell_angle_alpha   101.72000000
_cell_angle_beta   108.09000000
_cell_angle_gamma   112.68000000
_symmetry_Int_Tables_number   1
_chemical_formula_structural   CoH24C36(NO)4
_chemical_formula_sum   'Co3 H72 C108 N12 O12'
_cell_volume   2578.76789113
_cell_formula_units_Z   3
loop_
 _symmetry_equiv_pos_site_id
 _symmetry_equiv_pos_as_xyz
  1  'x, y, z'
loop_
 _atom_site_type_symbol
 _atom_site_label
 _atom_site_symmetry_multiplicity
 _atom_site_fract_x
 _atom_site_fract_y
 _atom_site_fract_z
 _atom_site_occupancy
 _atom_site_charge
Co  Co1  1  0.20332000  0.83500000  0.65314000  1.0 0.8595435736
Co  Co2  1  0.79668000  0.16500000  0.34686000  1.0 0.8595435736
Co  Co3  1  0.50000000  0.00000000  0.50000000  1.0 0.4535039184
H  H1  1  0.90090000  0.73720000  0.61490000  1.0 0.1301838955
H  H2  1  0.81410000  0.63100000  0.69740000  1.0 0.1301838955
H  H3  1  0.19320000  0.74940000  0.80620000  1.0 0.1189480208
H  H4  1  0.18460000  0.70850000  0.92920000  1.0 0.1301838955
H  H5  1  0.18500000  0.63380000  0.03780000  1.0 0.1105909878
H  H6  1  0.81460000  0.43540000  0.86730000  1.0 0.1189480208
H  H7  1  0.82250000  0.51600000  0.76730000  1.0 0.1301838955
H  H8  1  0.41370000  0.15120000  0.70640000  1.0 0.1189480208
H  H9  1  0.52480000  0.32080000  0.77030000  1.0 0.1189480208
H  H10  1  0.56510000  0.30560000  0.02420000  1.0 0.1105909878
H  H11  1  0.46700000  0.13920000  0.96060000  1.0 0.1189480208
H  H12  1  0.50740000  0.45690000  0.82790000  1.0 0.1105909878
H  H13  1  0.73020000  0.71050000  0.04600000  1.0 0.1105909878
H  H14  1  0.72260000  0.46520000  0.07920000  1.0 0.1105909878
H  H15  1  0.37900000  0.52590000  0.78950000  1.0 0.1105909878
H  H16  1  0.30440000  0.61730000  0.71240000  1.0 0.1189480208
H  H17  1  0.64750000  0.84970000  0.84620000  1.0 0.1189480208
H  H18  1  0.71800000  0.76860000  0.93510000  1.0 0.1105909878
H  H19  1  0.73790000  0.73350000  0.19890000  1.0 0.1105909878
H  H20  1  0.86670000  0.81970000  0.35530000  1.0 0.1189480208
H  H21  1  0.04840000  0.65830000  0.35390000  1.0 0.1189480208
H  H22  1  0.92660000  0.57810000  0.19570000  1.0 0.1105909878
H  H23  1  0.09910000  0.26280000  0.38510000  1.0 0.1301838955
H  H24  1  0.18590000  0.36900000  0.30260000  1.0 0.1301838955
H  H25  1  0.80680000  0.25060000  0.19380000  1.0 0.1189480208
H  H26  1  0.81540000  0.29150000  0.07080000  1.0 0.1301838955
H  H27  1  0.81500000  0.36620000  0.96220000  1.0 0.1105909878
H  H28  1  0.18540000  0.56460000  0.13270000  1.0 0.1189480208
H  H29  1  0.17750000  0.48400000  0.23270000  1.0 0.1301838955
H  H30  1  0.58630000  0.84880000  0.29360000  1.0 0.1189480208
H  H31  1  0.47520000  0.67920000  0.22970000  1.0 0.1189480208
H  H32  1  0.43490000  0.69440000  0.97580000  1.0 0.1105909878
H  H33  1  0.53300000  0.86080000  0.03940000  1.0 0.1189480208
H  H34  1  0.49260000  0.54310000  0.17210000  1.0 0.1105909878
H  H35  1  0.26980000  0.28950000  0.95400000  1.0 0.1105909878
H  H36  1  0.27740000  0.53480000  0.92080000  1.0 0.1105909878
H  H37  1  0.62100000  0.47410000  0.21050000  1.0 0.1105909878
H  H38  1  0.69560000  0.38270000  0.28760000  1.0 0.1189480208
H  H39  1  0.35250000  0.15030000  0.15380000  1.0 0.1189480208
H  H40  1  0.28200000  0.23140000  0.06490000  1.0 0.1105909878
H  H41  1  0.26210000  0.26650000  0.80110000  1.0 0.1105909878
H  H42  1  0.13330000  0.18030000  0.64470000  1.0 0.1189480208
H  H43  1  0.95160000  0.34170000  0.64610000  1.0 0.1189480208
H  H44  1  0.07340000  0.42190000  0.80430000  1.0 0.1105909878
H  H45  1  0.54720000  0.01030000  0.71880000  1.0 0.1189480208
H  H46  1  0.71190000  0.22600000  0.64370000  1.0 0.1301838955
H  H47  1  0.85580000  0.26770000  0.80680000  1.0 0.1189480208
H  H48  1  0.94940000  0.16850000  0.87440000  1.0 0.1301838955
H  H49  1  0.05160000  0.14210000  0.00720000  1.0 0.1105909878
H  H50  1  0.72370000  0.03720000  0.03630000  1.0 0.1189480208
H  H51  1  0.61940000  0.06150000  0.89970000  1.0 0.1387404283
H  H52  1  0.14490000  0.17250000  0.14890000  1.0 0.102690311
H  H53  1  0.25740000  0.15210000  0.27680000  1.0 0.1301838955
H  H54  1  0.92860000  0.96550000  0.26960000  1.0 0.1301838955
H  H55  1  0.81420000  0.98210000  0.13310000  1.0 0.1189480208
H  H56  1  0.07340000  0.02190000  0.44480000  1.0 0.1387404283
H  H57  1  0.25190000  0.00560000  0.55050000  1.0 0.1301838955
H  H58  1  0.32900000  0.05000000  0.34060000  1.0 0.102690311
H  H59  1  0.45280000  0.98970000  0.28120000  1.0 0.1189480208
H  H60  1  0.28810000  0.77400000  0.35630000  1.0 0.1301838955
H  H61  1  0.14420000  0.73230000  0.19320000  1.0 0.1189480208
H  H62  1  0.05060000  0.83150000  0.12560000  1.0 0.1301838955
H  H63  1  0.94840000  0.85790000  0.99280000  1.0 0.1105909878
H  H64  1  0.27630000  0.96280000  0.96370000  1.0 0.1189480208
H  H65  1  0.38060000  0.93850000  0.10030000  1.0 0.1387404283
H  H66  1  0.85510000  0.82750000  0.85110000  1.0 0.102690311
H  H67  1  0.74260000  0.84790000  0.72320000  1.0 0.1301838955
H  H68  1  0.07140000  0.03450000  0.73040000  1.0 0.1301838955
H  H69  1  0.18580000  0.01790000  0.86690000  1.0 0.1189480208
H  H70  1  0.92660000  0.97810000  0.55520000  1.0 0.1387404283
H  H71  1  0.74810000  0.99440000  0.44950000  1.0 0.1301838955
H  H72  1  0.67100000  0.95000000  0.65940000  1.0 0.102690311
C  C1  1  0.95000000  0.72510000  0.66300000  1.0 0.0102791241
C  C2  1  0.90080000  0.66680000  0.70950000  1.0 -0.1009315256
C  C3  1  0.10820000  0.73130000  0.76720000  1.0 0.1189480208
C  C4  1  0.99920000  0.62350000  0.84030000  1.0 0.1387404283
C  C5  1  0.10840000  0.65470000  0.91860000  1.0 -0.1821226211
C  C6  1  0.11030000  0.60940000  0.98280000  1.0 -0.1194097506
C  C7  1  0.99480000  0.52450000  0.96270000  1.0 0.0704166509
C  C8  1  0.89070000  0.49190000  0.88250000  1.0 -0.1194097506
C  C9  1  0.89600000  0.54130000  0.82340000  1.0 -0.1821226211
C  C10  1  0.35640000  0.01700000  0.78300000  1.0 0.523708236
C  C11  1  0.42490000  0.12490000  0.82560000  1.0 -0.0473242099
C  C12  1  0.44500000  0.18270000  0.77070000  1.0 -0.1009315256
C  C13  1  0.50940000  0.28460000  0.80800000  1.0 -0.1622802163
C  C14  1  0.55090000  0.33170000  0.90470000  1.0 0.0612627786
C  C15  1  0.53450000  0.27470000  0.95990000  1.0 -0.1505143957
C  C16  1  0.47480000  0.17490000  0.92170000  1.0 -0.1009315256
C  C17  1  0.60440000  0.43710000  0.94360000  1.0 0.0704166509
C  C18  1  0.56690000  0.49130000  0.89060000  1.0 -0.1891428066
C  C19  1  0.61250000  0.58920000  0.92560000  1.0 0.0791291091
C  C20  1  0.69950000  0.64310000  0.02120000  1.0 -0.1891428066
C  C21  1  0.73980000  0.59630000  0.07890000  1.0 0.0791291091
C  C22  1  0.69410000  0.49590000  0.04070000  1.0 -0.1891428066
C  C23  1  0.56340000  0.63790000  0.86910000  1.0 0.0704166509
C  C24  1  0.43500000  0.59120000  0.80230000  1.0 -0.1505143957
C  C25  1  0.39160000  0.64620000  0.75370000  1.0 -0.1194097506
C  C26  1  0.47210000  0.73810000  0.76540000  1.0 -0.013083897
C  C27  1  0.59230000  0.78430000  0.83350000  1.0 -0.1096164132
C  C28  1  0.63520000  0.73390000  0.88590000  1.0 -0.1622802163
C  C29  1  0.41650000  0.79080000  0.71180000  1.0 0.5723767994
C  C30  1  0.82020000  0.64700000  0.17750000  1.0 0.0612627786
C  C31  1  0.80240000  0.71940000  0.22960000  1.0 -0.1505143957
C  C32  1  0.87750000  0.76960000  0.32390000  1.0 -0.1009315256
C  C33  1  0.97020000  0.74690000  0.37420000  1.0 -0.013083897
C  C34  1  0.98660000  0.67450000  0.32300000  1.0 -0.1096164132
C  C35  1  0.91310000  0.62620000  0.22750000  1.0 -0.1622802163
C  C36  1  0.04200000  0.79590000  0.47950000  1.0 0.5319352863
C  C37  1  0.05000000  0.27490000  0.33700000  1.0 0.0102791241
C  C38  1  0.09920000  0.33320000  0.29050000  1.0 -0.1009315256
C  C39  1  0.89180000  0.26870000  0.23280000  1.0 0.1189480208
C  C40  1  0.00080000  0.37650000  0.15970000  1.0 0.1387404283
C  C41  1  0.89160000  0.34530000  0.08140000  1.0 -0.1821226211
C  C42  1  0.88970000  0.39060000  0.01720000  1.0 -0.1194097506
C  C43  1  0.00520000  0.47550000  0.03730000  1.0 0.0704166509
C  C44  1  0.10930000  0.50810000  0.11750000  1.0 -0.1194097506
C  C45  1  0.10400000  0.45870000  0.17660000  1.0 -0.1821226211
C  C46  1  0.64360000  0.98300000  0.21700000  1.0 0.523708236
C  C47  1  0.57510000  0.87510000  0.17440000  1.0 -0.0473242099
C  C48  1  0.55500000  0.81730000  0.22930000  1.0 -0.1009315256
C  C49  1  0.49060000  0.71540000  0.19200000  1.0 -0.1622802163
C  C50  1  0.44910000  0.66830000  0.09530000  1.0 0.0612627786
C  C51  1  0.46550000  0.72530000  0.04010000  1.0 -0.1505143957
C  C52  1  0.52520000  0.82510000  0.07830000  1.0 -0.1009315256
C  C53  1  0.39560000  0.56290000  0.05640000  1.0 0.0704166509
C  C54  1  0.43310000  0.50870000  0.10940000  1.0 -0.1891428066
C  C55  1  0.38750000  0.41080000  0.07440000  1.0 0.0791291091
C  C56  1  0.30050000  0.35690000  0.97880000  1.0 -0.1891428066
C  C57  1  0.26020000  0.40370000  0.92110000  1.0 0.0791291091
C  C58  1  0.30590000  0.50410000  0.95930000  1.0 -0.1891428066
C  C59  1  0.43660000  0.36210000  0.13090000  1.0 0.0704166509
C  C60  1  0.56500000  0.40880000  0.19770000  1.0 -0.1505143957
C  C61  1  0.60840000  0.35380000  0.24630000  1.0 -0.1194097506
C  C62  1  0.52790000  0.26190000  0.23460000  1.0 -0.013083897
C  C63  1  0.40770000  0.21570000  0.16650000  1.0 -0.1096164132
C  C64  1  0.36480000  0.26610000  0.11410000  1.0 -0.1622802163
C  C65  1  0.58350000  0.20920000  0.28820000  1.0 0.5723767994
C  C66  1  0.17980000  0.35300000  0.82250000  1.0 0.0612627786
C  C67  1  0.19760000  0.28060000  0.77040000  1.0 -0.1505143957
C  C68  1  0.12250000  0.23040000  0.67610000  1.0 -0.1009315256
C  C69  1  0.02980000  0.25310000  0.62580000  1.0 -0.013083897
C  C70  1  0.01340000  0.32550000  0.67700000  1.0 -0.1096164132
C  C71  1  0.08690000  0.37380000  0.77250000  1.0 -0.1622802163
C  C72  1  0.95800000  0.20410000  0.52050000  1.0 0.5319352863
C  C73  1  0.60640000  0.06910000  0.71990000  1.0 0.0791291091
C  C74  1  0.69610000  0.18680000  0.67880000  1.0 -0.0206389757
C  C75  1  0.77680000  0.21070000  0.76970000  1.0 -0.1096164132
C  C76  1  0.77740000  0.11960000  0.87800000  1.0 0.1387404283
C  C77  1  0.90330000  0.14230000  0.90700000  1.0 -0.165527265
C  C78  1  0.96460000  0.12590000  0.98710000  1.0 -0.144434038
C  C79  1  0.89730000  0.08580000  0.03730000  1.0 0.0612627786
C  C80  1  0.77110000  0.06350000  0.00460000  1.0 -0.1277387882
C  C81  1  0.70710000  0.07910000  0.92190000  1.0 -0.1505143957
C  C82  1  0.96650000  0.07490000  0.12310000  1.0 0.0612627786
C  C83  1  0.09920000  0.12770000  0.17080000  1.0 -0.1505143957
C  C84  1  0.16710000  0.11720000  0.24920000  1.0 -0.1622802163
C  C85  1  0.10710000  0.05790000  0.28750000  1.0 0.1467413721
C  C86  1  0.97360000  0.00660000  0.24460000  1.0 -0.165527265
C  C87  1  0.90450000  0.01670000  0.16140000  1.0 -0.1277387882
C  C88  1  0.14690000  0.02670000  0.43720000  1.0 -0.0780334803
C  C89  1  0.24630000  0.01720000  0.49550000  1.0 -0.0206389757
C  C90  1  0.28940000  0.04220000  0.38100000  1.0 0.102690311
C  C91  1  0.39360000  0.93090000  0.28010000  1.0 0.0791291091
C  C92  1  0.30390000  0.81320000  0.32120000  1.0 -0.0206389757
C  C93  1  0.22320000  0.78930000  0.23030000  1.0 -0.1096164132
C  C94  1  0.22260000  0.88040000  0.12200000  1.0 0.1387404283
C  C95  1  0.09670000  0.85770000  0.09300000  1.0 -0.165527265
C  C96  1  0.03540000  0.87410000  0.01290000  1.0 -0.144434038
C  C97  1  0.10270000  0.91420000  0.96270000  1.0 0.0612627786
C  C98  1  0.22890000  0.93650000  0.99540000  1.0 -0.1277387882
C  C99  1  0.29290000  0.92090000  0.07810000  1.0 -0.1505143957
C  C100  1  0.03350000  0.92510000  0.87690000  1.0 0.0612627786
C  C101  1  0.90080000  0.87230000  0.82920000  1.0 -0.1505143957
C  C102  1  0.83290000  0.88280000  0.75080000  1.0 -0.1622802163
C  C103  1  0.89290000  0.94210000  0.71250000  1.0 0.1467413721
C  C104  1  0.02640000  0.99340000  0.75540000  1.0 -0.165527265
C  C105  1  0.09550000  0.98330000  0.83860000  1.0 -0.1277387882
C  C106  1  0.85310000  0.97330000  0.56280000  1.0 -0.0780334803
C  C107  1  0.75370000  0.98280000  0.50450000  1.0 -0.0206389757
C  C108  1  0.71060000  0.95780000  0.61900000  1.0 0.102690311
N  N1  1  0.07670000  0.76070000  0.69720000  1.0 -0.2881790283
N  N2  1  0.00500000  0.67260000  0.77630000  1.0 0.0102791241
N  N3  1  0.92330000  0.23930000  0.30280000  1.0 -0.2881790283
N  N4  1  0.99500000  0.32740000  0.22370000  1.0 0.0102791241
N  N5  1  0.59120000  0.09930000  0.64740000  1.0 -0.2574588837
N  N6  1  0.72000000  0.13600000  0.79510000  1.0 0.0102791241
N  N7  1  0.33640000  0.02790000  0.45920000  1.0 -0.2684478643
N  N8  1  0.17750000  0.04420000  0.36700000  1.0 0.0102791241
N  N9  1  0.40880000  0.90070000  0.35260000  1.0 -0.2574588837
N  N10  1  0.28000000  0.86400000  0.20490000  1.0 0.0102791241
N  N11  1  0.66360000  0.97210000  0.54080000  1.0 -0.2684478643
N  N12  1  0.82250000  0.95580000  0.63300000  1.0 0.0102791241
O  O1  1  0.00150000  0.83730000  0.52540000  1.0 -0.5583093645
O  O2  1  0.14100000  0.78600000  0.51570000  1.0 -0.5404451372
O  O3  1  0.30300000  0.76700000  0.68670000  1.0 -0.5028189155
O  O4  1  0.49400000  0.85310000  0.69210000  1.0 -0.5583093645
O  O5  1  0.35910000  0.96830000  0.83410000  1.0 -0.5514267566
O  O6  1  0.29510000  0.97760000  0.69500000  1.0 -0.5283959987
O  O7  1  0.99850000  0.16270000  0.47460000  1.0 -0.5583093645
O  O8  1  0.85900000  0.21400000  0.48430000  1.0 -0.5404451372
O  O9  1  0.69700000  0.23300000  0.31330000  1.0 -0.5028189155
O  O10  1  0.50600000  0.14690000  0.30790000  1.0 -0.5583093645
O  O11  1  0.64090000  0.03170000  0.16590000  1.0 -0.5514267566
O  O12  1  0.70490000  0.02240000  0.30500000  1.0 -0.5283959987
