# DDEC6 charges by PACMAN v1.1 (https://github.com/mtap-research/PACMAN-charge/)
data_REKZIR_ASR_pacman
_symmetry_space_group_name_H-M   'P 1'
_cell_length_a   19.65570000
_cell_length_b   19.65570000
_cell_length_c   23.00640000
_cell_angle_alpha   58.44080000
_cell_angle_beta   121.55900000
_cell_angle_gamma   104.57900000
_symmetry_Int_Tables_number   1
_chemical_formula_structural   Cd3H49C69(NO4)4
_chemical_formula_sum   'Cd12 H196 C276 N16 O64'
_cell_volume   6450.66263288
_cell_formula_units_Z   4
loop_
 _symmetry_equiv_pos_site_id
 _symmetry_equiv_pos_as_xyz
  1  'x, y, z'
loop_
 _atom_site_type_symbol
 _atom_site_label
 _atom_site_symmetry_multiplicity
 _atom_site_fract_x
 _atom_site_fract_y
 _atom_site_fract_z
 _atom_site_occupancy
 _atom_site_charge
Cd  Cd1  1  0.49467000  0.58305000  0.02128000  1.0 0.87003378
Cd  Cd2  1  0.58305000  0.49467000  0.47872000  1.0 0.87003378
Cd  Cd3  1  0.50533000  0.41695000  0.97872000  1.0 0.87003378
Cd  Cd4  1  0.41695000  0.50533000  0.52128000  1.0 0.87003378
Cd  Cd5  1  0.42602000  0.82400000  0.95875000  1.0 0.9482386801
Cd  Cd6  1  0.82400000  0.42602000  0.54125000  1.0 0.9482386801
Cd  Cd7  1  0.57398000  0.17600000  0.04125000  1.0 0.9482386801
Cd  Cd8  1  0.17600000  0.57398000  0.45875000  1.0 0.9482386801
Cd  Cd9  1  0.53676000  0.81488000  0.86460000  1.0 0.9587942901
Cd  Cd10  1  0.81488000  0.53676000  0.63540000  1.0 0.9587942901
Cd  Cd11  1  0.46324000  0.18512000  0.13540000  1.0 0.9587942901
Cd  Cd12  1  0.18512000  0.46324000  0.36460000  1.0 0.9587942901
H  H1  1  0.35670000  0.82490000  0.10030000  1.0 0.3299058619
H  H2  1  0.82490000  0.35670000  0.39970000  1.0 0.3299058619
H  H3  1  0.64330000  0.17510000  0.89970000  1.0 0.3299058619
H  H4  1  0.17510000  0.64330000  0.60030000  1.0 0.3299058619
H  H5  1  0.18230000  0.65970000  0.17550000  1.0 0.3431979808
H  H6  1  0.65970000  0.18230000  0.32450000  1.0 0.3431979808
H  H7  1  0.81770000  0.34030000  0.82450000  1.0 0.3431979808
H  H8  1  0.34030000  0.81770000  0.67550000  1.0 0.3431979808
H  H9  1  0.62100000  0.81580000  0.73270000  1.0 0.3543163407
H  H10  1  0.81580000  0.62100000  0.76730000  1.0 0.3543163407
H  H11  1  0.37900000  0.18420000  0.26730000  1.0 0.3543163407
H  H12  1  0.18420000  0.37900000  0.23270000  1.0 0.3543163407
H  H13  1  0.61470000  0.80990000  0.14650000  1.0 0.3299058619
H  H14  1  0.80990000  0.61470000  0.35350000  1.0 0.3299058619
H  H15  1  0.38530000  0.19010000  0.85350000  1.0 0.3299058619
H  H16  1  0.19010000  0.38530000  0.64650000  1.0 0.3299058619
H  H17  1  0.16050000  0.90250000  0.86800000  1.0 0.1187814077
H  H18  1  0.90250000  0.16050000  0.63200000  1.0 0.1187814077
H  H19  1  0.83950000  0.09750000  0.13200000  1.0 0.1187814077
H  H20  1  0.09750000  0.83950000  0.36800000  1.0 0.1187814077
H  H21  1  0.02220000  0.94960000  0.80510000  1.0 0.1097247842
H  H22  1  0.94960000  0.02220000  0.69490000  1.0 0.1097247842
H  H23  1  0.97780000  0.05040000  0.19490000  1.0 0.1097247842
H  H24  1  0.05040000  0.97780000  0.30510000  1.0 0.1097247842
H  H25  1  0.92000000  0.97300000  0.81320000  1.0 0.1097247842
H  H26  1  0.97300000  0.92000000  0.68680000  1.0 0.1097247842
H  H27  1  0.08000000  0.02700000  0.18680000  1.0 0.1097247842
H  H28  1  0.02700000  0.08000000  0.31320000  1.0 0.1097247842
H  H29  1  0.94000000  0.95340000  0.92890000  1.0 0.1097247842
H  H30  1  0.95340000  0.94000000  0.57110000  1.0 0.1097247842
H  H31  1  0.06000000  0.04660000  0.07110000  1.0 0.1097247842
H  H32  1  0.04660000  0.06000000  0.42890000  1.0 0.1097247842
H  H33  1  0.06030000  0.90530000  0.03900000  1.0 0.1097247842
H  H34  1  0.90530000  0.06030000  0.46100000  1.0 0.1097247842
H  H35  1  0.93970000  0.09470000  0.96100000  1.0 0.1097247842
H  H36  1  0.09470000  0.93970000  0.53900000  1.0 0.1097247842
H  H37  1  0.21780000  0.99040000  0.07840000  1.0 0.1187814077
H  H38  1  0.99040000  0.21780000  0.42160000  1.0 0.1187814077
H  H39  1  0.78220000  0.00960000  0.92160000  1.0 0.1187814077
H  H40  1  0.00960000  0.78220000  0.57840000  1.0 0.1187814077
H  H41  1  0.24580000  0.06780000  0.13470000  1.0 0.1097247842
H  H42  1  0.06780000  0.24580000  0.36530000  1.0 0.1097247842
H  H43  1  0.75420000  0.93220000  0.86530000  1.0 0.1097247842
H  H44  1  0.93220000  0.75420000  0.63470000  1.0 0.1097247842
H  H45  1  0.25960000  0.01260000  0.25710000  1.0 0.1097247842
H  H46  1  0.01260000  0.25960000  0.24290000  1.0 0.1097247842
H  H47  1  0.74040000  0.98740000  0.74290000  1.0 0.1097247842
H  H48  1  0.98740000  0.74040000  0.75710000  1.0 0.1097247842
H  H49  1  0.23970000  0.87850000  0.32270000  1.0 0.1187814077
H  H50  1  0.87850000  0.23970000  0.17730000  1.0 0.1187814077
H  H51  1  0.76030000  0.12150000  0.67730000  1.0 0.1187814077
H  H52  1  0.12150000  0.76030000  0.82270000  1.0 0.1187814077
H  H53  1  0.21050000  0.74490000  0.32840000  1.0 0.1289057343
H  H54  1  0.74490000  0.21050000  0.17160000  1.0 0.1289057343
H  H55  1  0.78950000  0.25510000  0.67160000  1.0 0.1289057343
H  H56  1  0.25510000  0.78950000  0.82840000  1.0 0.1289057343
H  H57  1  0.81110000  0.75430000  0.96810000  1.0 0.1187814077
H  H58  1  0.75430000  0.81110000  0.53190000  1.0 0.1187814077
H  H59  1  0.18890000  0.24570000  0.03190000  1.0 0.1187814077
H  H60  1  0.24570000  0.18890000  0.46810000  1.0 0.1187814077
H  H61  1  0.95710000  0.72150000  0.03630000  1.0 0.1187814077
H  H62  1  0.72150000  0.95710000  0.46370000  1.0 0.1187814077
H  H63  1  0.04290000  0.27850000  0.96370000  1.0 0.1187814077
H  H64  1  0.27850000  0.04290000  0.53630000  1.0 0.1187814077
H  H65  1  0.06590000  0.70650000  0.03200000  1.0 0.1097247842
H  H66  1  0.70650000  0.06590000  0.46800000  1.0 0.1097247842
H  H67  1  0.93410000  0.29350000  0.96800000  1.0 0.1097247842
H  H68  1  0.29350000  0.93410000  0.53200000  1.0 0.1097247842
H  H69  1  0.05410000  0.73110000  0.91560000  1.0 0.1187814077
H  H70  1  0.73110000  0.05410000  0.58440000  1.0 0.1097247842
H  H71  1  0.94590000  0.26890000  0.08440000  1.0 0.1097247842
H  H72  1  0.26890000  0.94590000  0.41560000  1.0 0.1187814077
H  H73  1  0.93470000  0.75910000  0.81140000  1.0 0.1097247842
H  H74  1  0.75910000  0.93470000  0.68860000  1.0 0.1097247842
H  H75  1  0.06530000  0.24090000  0.18860000  1.0 0.1097247842
H  H76  1  0.24090000  0.06530000  0.31140000  1.0 0.1097247842
H  H77  1  0.72230000  0.85230000  0.00930000  1.0 0.1289057343
H  H78  1  0.85230000  0.72230000  0.49070000  1.0 0.1289057343
H  H79  1  0.27770000  0.14770000  0.99070000  1.0 0.1289057343
H  H80  1  0.14770000  0.27770000  0.50930000  1.0 0.1289057343
H  H81  1  0.86330000  0.86130000  0.03570000  1.0 0.1187814077
H  H82  1  0.86130000  0.86330000  0.46430000  1.0 0.1187814077
H  H83  1  0.13670000  0.13870000  0.96430000  1.0 0.1187814077
H  H84  1  0.13870000  0.13670000  0.53570000  1.0 0.1187814077
H  H85  1  0.99680000  0.85400000  0.11930000  1.0 0.1097247842
H  H86  1  0.85400000  0.99680000  0.38070000  1.0 0.1097247842
H  H87  1  0.00320000  0.14600000  0.88070000  1.0 0.1097247842
H  H88  1  0.14600000  0.00320000  0.61930000  1.0 0.1097247842
H  H89  1  0.03990000  0.83190000  0.24370000  1.0 0.1097247842
H  H90  1  0.83190000  0.03990000  0.25630000  1.0 0.1097247842
H  H91  1  0.96010000  0.16810000  0.75630000  1.0 0.1097247842
H  H92  1  0.16810000  0.96010000  0.74370000  1.0 0.1097247842
H  H93  1  0.95060000  0.81220000  0.28530000  1.0 0.1187814077
H  H94  1  0.81220000  0.95060000  0.21470000  1.0 0.1187814077
H  H95  1  0.04940000  0.18780000  0.71470000  1.0 0.1187814077
H  H96  1  0.18780000  0.04940000  0.78530000  1.0 0.1187814077
H  H97  1  0.52830000  0.66970000  0.17450000  1.0 0.1289057343
H  H98  1  0.66970000  0.52830000  0.32550000  1.0 0.1289057343
H  H99  1  0.47170000  0.33030000  0.82550000  1.0 0.1289057343
H  H100  1  0.33030000  0.47170000  0.67450000  1.0 0.1289057343
H  H101  1  0.44290000  0.71030000  0.12270000  1.0 0.0907590457
H  H102  1  0.71030000  0.44290000  0.37730000  1.0 0.0907590457
H  H103  1  0.55710000  0.28970000  0.87730000  1.0 0.0907590457
H  H104  1  0.28970000  0.55710000  0.62270000  1.0 0.0907590457
H  H105  1  0.45640000  0.62080000  0.18710000  1.0 0.1011906933
H  H106  1  0.62080000  0.45640000  0.31290000  1.0 0.1011906933
H  H107  1  0.54360000  0.37920000  0.81290000  1.0 0.1011906933
H  H108  1  0.37920000  0.54360000  0.68710000  1.0 0.1011906933
H  H109  1  0.52110000  0.60370000  0.82160000  1.0 0.1674243081
H  H110  1  0.60370000  0.52110000  0.67840000  1.0 0.1674243081
H  H111  1  0.47890000  0.39630000  0.17840000  1.0 0.1674243081
H  H112  1  0.39630000  0.47890000  0.32160000  1.0 0.1674243081
H  H113  1  0.48570000  0.68930000  0.78110000  1.0 0.1752941552
H  H114  1  0.68930000  0.48570000  0.71890000  1.0 0.1752941552
H  H115  1  0.51430000  0.31070000  0.21890000  1.0 0.1752941552
H  H116  1  0.31070000  0.51430000  0.28110000  1.0 0.1752941552
H  H117  1  0.57800000  0.67200000  0.83450000  1.0 0.1649999264
H  H118  1  0.67200000  0.57800000  0.66550000  1.0 0.1649999264
H  H119  1  0.42200000  0.32800000  0.16550000  1.0 0.1649999264
H  H120  1  0.32800000  0.42200000  0.33450000  1.0 0.1649999264
H  H121  1  0.33370000  0.51010000  0.03110000  1.0 0.1187814077
H  H122  1  0.51010000  0.33370000  0.46890000  1.0 0.1187814077
H  H123  1  0.66630000  0.48990000  0.96890000  1.0 0.1187814077
H  H124  1  0.48990000  0.66630000  0.53110000  1.0 0.1187814077
H  H125  1  0.20210000  0.49110000  0.95980000  1.0 0.1289057343
H  H126  1  0.49110000  0.20210000  0.54020000  1.0 0.1289057343
H  H127  1  0.79790000  0.50890000  0.04020000  1.0 0.1289057343
H  H128  1  0.50890000  0.79790000  0.45980000  1.0 0.1289057343
H  H129  1  0.22750000  0.62530000  0.77020000  1.0 0.1289057343
H  H130  1  0.62530000  0.22750000  0.72980000  1.0 0.1289057343
H  H131  1  0.77250000  0.37470000  0.22980000  1.0 0.1289057343
H  H132  1  0.37470000  0.77250000  0.27020000  1.0 0.1289057343
H  H133  1  0.35840000  0.63780000  0.84750000  1.0 0.1097247842
H  H134  1  0.63780000  0.35840000  0.65250000  1.0 0.1097247842
H  H135  1  0.64160000  0.36220000  0.15250000  1.0 0.1097247842
H  H136  1  0.36220000  0.64160000  0.34750000  1.0 0.1097247842
H  H137  1  0.07890000  0.48470000  0.88970000  1.0 0.1289057343
H  H138  1  0.48470000  0.07890000  0.61030000  1.0 0.1289057343
H  H139  1  0.92110000  0.51530000  0.11030000  1.0 0.1289057343
H  H140  1  0.51530000  0.92110000  0.38970000  1.0 0.1289057343
H  H141  1  0.94810000  0.47470000  0.80990000  1.0 0.1187814077
H  H142  1  0.47470000  0.94810000  0.69010000  1.0 0.1187814077
H  H143  1  0.05190000  0.52530000  0.19010000  1.0 0.1187814077
H  H144  1  0.52530000  0.05190000  0.30990000  1.0 0.1187814077
H  H145  1  0.11320000  0.60780000  0.70420000  1.0 0.1289057343
H  H146  1  0.60780000  0.11320000  0.79580000  1.0 0.1289057343
H  H147  1  0.88680000  0.39220000  0.29580000  1.0 0.1289057343
H  H148  1  0.39220000  0.88680000  0.20420000  1.0 0.1289057343
H  H149  1  0.98080000  0.59580000  0.62950000  1.0 0.1011906933
H  H150  1  0.59580000  0.98080000  0.87050000  1.0 0.1011906933
H  H151  1  0.01920000  0.40420000  0.37050000  1.0 0.1011906933
H  H152  1  0.40420000  0.01920000  0.12950000  1.0 0.1011906933
H  H153  1  0.62620000  0.49200000  0.19560000  1.0 0.1097247842
H  H154  1  0.49200000  0.62620000  0.30440000  1.0 0.1097247842
H  H155  1  0.37380000  0.50800000  0.80440000  1.0 0.1097247842
H  H156  1  0.50800000  0.37380000  0.69560000  1.0 0.1097247842
H  H157  1  0.75470000  0.49150000  0.28500000  1.0 0.1289057343
H  H158  1  0.49150000  0.75470000  0.21500000  1.0 0.1289057343
H  H159  1  0.24530000  0.50850000  0.71500000  1.0 0.1289057343
H  H160  1  0.50850000  0.24530000  0.78500000  1.0 0.1289057343
H  H161  1  0.79290000  0.67170000  0.11610000  1.0 0.1289057343
H  H162  1  0.67170000  0.79290000  0.38390000  1.0 0.1289057343
H  H163  1  0.20710000  0.32830000  0.88390000  1.0 0.1289057343
H  H164  1  0.32830000  0.20710000  0.61610000  1.0 0.1289057343
H  H165  1  0.66230000  0.66950000  0.03160000  1.0 0.1097247842
H  H166  1  0.66950000  0.66230000  0.46840000  1.0 0.1097247842
H  H167  1  0.33770000  0.33050000  0.96840000  1.0 0.1097247842
H  H168  1  0.33050000  0.33770000  0.53160000  1.0 0.1097247842
H  H169  1  0.91240000  0.67020000  0.19310000  1.0 0.1187814077
H  H170  1  0.67020000  0.91240000  0.30690000  1.0 0.1187814077
H  H171  1  0.08760000  0.32980000  0.80690000  1.0 0.1187814077
H  H172  1  0.32980000  0.08760000  0.69310000  1.0 0.1187814077
H  H173  1  0.04350000  0.66510000  0.28140000  1.0 0.1011906933
H  H174  1  0.66510000  0.04350000  0.21860000  1.0 0.1011906933
H  H175  1  0.95650000  0.33490000  0.71860000  1.0 0.1011906933
H  H176  1  0.33490000  0.95650000  0.78140000  1.0 0.1011906933
H  H177  1  0.87310000  0.49310000  0.36730000  1.0 0.1373753156
H  H178  1  0.49310000  0.87310000  0.13270000  1.0 0.1373753156
H  H179  1  0.12690000  0.50690000  0.63270000  1.0 0.1373753156
H  H180  1  0.50690000  0.12690000  0.86730000  1.0 0.1373753156
H  H181  1  0.00510000  0.49190000  0.44970000  1.0 0.1097247842
H  H182  1  0.49190000  0.00510000  0.05030000  1.0 0.1097247842
H  H183  1  0.99490000  0.50810000  0.55030000  1.0 0.1097247842
H  H184  1  0.50810000  0.99490000  0.94970000  1.0 0.1097247842
H  H185  1  0.34960000  0.64140000  0.08890000  1.0 0.1289057343
H  H186  1  0.64140000  0.34960000  0.41110000  1.0 0.1289057343
H  H187  1  0.65040000  0.35860000  0.91110000  1.0 0.1289057343
H  H188  1  0.35860000  0.65040000  0.58890000  1.0 0.1289057343
H  H189  1  0.42370000  0.61610000  0.17160000  1.0 0.1011906933
H  H190  1  0.61610000  0.42370000  0.32840000  1.0 0.1011906933
H  H191  1  0.57630000  0.38390000  0.82840000  1.0 0.1011906933
H  H192  1  0.38390000  0.57630000  0.67160000  1.0 0.1011906933
H  H193  1  0.41040000  0.70560000  0.10690000  1.0 0.0907590457
H  H194  1  0.70560000  0.41040000  0.39310000  1.0 0.0907590457
H  H195  1  0.58960000  0.29440000  0.89310000  1.0 0.0907590457
H  H196  1  0.29440000  0.58960000  0.60690000  1.0 0.0907590457
C  C1  1  0.30701000  0.84949000  0.97320000  1.0 0.5599739942
C  C2  1  0.84949000  0.30701000  0.52680000  1.0 0.5599739942
C  C3  1  0.69299000  0.15051000  0.02680000  1.0 0.5599739942
C  C4  1  0.15051000  0.69299000  0.47320000  1.0 0.5599739942
C  C5  1  0.24154000  0.86712000  0.97871000  1.0 -0.1425717373
C  C6  1  0.86712000  0.24154000  0.52129000  1.0 -0.1425717373
C  C7  1  0.75846000  0.13288000  0.02129000  1.0 -0.1425717373
C  C8  1  0.13288000  0.75846000  0.47871000  1.0 -0.1425717373
C  C9  1  0.16883000  0.89475000  0.91470000  1.0 -0.1425717373
C  C10  1  0.89475000  0.16883000  0.58530000  1.0 -0.1425717373
C  C11  1  0.83117000  0.10525000  0.08530000  1.0 -0.1425717373
C  C12  1  0.10525000  0.83117000  0.41470000  1.0 -0.1425717373
C  C13  1  0.10591000  0.91189000  0.91840000  1.0 0.0716309807
C  C14  1  0.91189000  0.10591000  0.58160000  1.0 0.0716309807
C  C15  1  0.89409000  0.08811000  0.08160000  1.0 0.0716309807
C  C16  1  0.08811000  0.89409000  0.41840000  1.0 0.0716309807
C  C17  1  0.03050000  0.94050000  0.85230000  1.0 -0.1425717373
C  C18  1  0.94050000  0.03050000  0.64770000  1.0 -0.1425717373
C  C19  1  0.96950000  0.05950000  0.14770000  1.0 -0.1425717373
C  C20  1  0.05950000  0.96950000  0.35230000  1.0 -0.1425717373
C  C21  1  0.96970000  0.95470000  0.85700000  1.0 -0.0891437689
C  C22  1  0.95470000  0.96970000  0.64300000  1.0 -0.0891437689
C  C23  1  0.03030000  0.04530000  0.14300000  1.0 -0.0891437689
C  C24  1  0.04530000  0.03030000  0.35700000  1.0 -0.0891437689
C  C25  1  0.98150000  0.94230000  0.92670000  1.0 -0.1003487495
C  C26  1  0.94230000  0.98150000  0.57330000  1.0 -0.1003487495
C  C27  1  0.01850000  0.05770000  0.07330000  1.0 -0.1003487495
C  C28  1  0.05770000  0.01850000  0.42670000  1.0 -0.1003487495
C  C29  1  0.05366000  0.91376000  0.99260000  1.0 -0.1425717373
C  C30  1  0.91376000  0.05366000  0.50740000  1.0 -0.1425717373
C  C31  1  0.94634000  0.08624000  0.00740000  1.0 -0.1425717373
C  C32  1  0.08624000  0.94634000  0.49260000  1.0 -0.1425717373
C  C33  1  0.11748000  0.89728000  0.99020000  1.0 0.0506443362
C  C34  1  0.89728000  0.11748000  0.50980000  1.0 0.0506443362
C  C35  1  0.88252000  0.10272000  0.00980000  1.0 0.0506443362
C  C36  1  0.10272000  0.88252000  0.49020000  1.0 0.0506443362
C  C37  1  0.19213000  0.86431000  0.05770000  1.0 -0.0678023068
C  C38  1  0.86431000  0.19213000  0.44230000  1.0 -0.0678023068
C  C39  1  0.80787000  0.13569000  0.94230000  1.0 -0.0678023068
C  C40  1  0.13569000  0.80787000  0.55770000  1.0 -0.0678023068
C  C41  1  0.25332000  0.85250000  0.05099000  1.0 0.2101489696
C  C42  1  0.85250000  0.25332000  0.44901000  1.0 0.2101489696
C  C43  1  0.74668000  0.14750000  0.94901000  1.0 0.2101489696
C  C44  1  0.14750000  0.74668000  0.55099000  1.0 0.2101489696
C  C45  1  0.20071000  0.83349000  0.13550000  1.0 -0.0678023068
C  C46  1  0.83349000  0.20071000  0.36450000  1.0 -0.0678023068
C  C47  1  0.79929000  0.16651000  0.86450000  1.0 -0.0678023068
C  C48  1  0.16651000  0.79929000  0.63550000  1.0 -0.0678023068
C  C49  1  0.21271000  0.88371000  0.16690000  1.0 0.0391567572
C  C50  1  0.88371000  0.21271000  0.33310000  1.0 0.0391567572
C  C51  1  0.78729000  0.11629000  0.83310000  1.0 0.0391567572
C  C52  1  0.11629000  0.78729000  0.66690000  1.0 0.0391567572
C  C53  1  0.22269000  0.96713000  0.12760000  1.0 -0.148601899
C  C54  1  0.96713000  0.22269000  0.37240000  1.0 -0.148601899
C  C55  1  0.77731000  0.03287000  0.87240000  1.0 -0.148601899
C  C56  1  0.03287000  0.77731000  0.62760000  1.0 -0.148601899
C  C57  1  0.23928000  0.01328000  0.16120000  1.0 -0.1003487495
C  C58  1  0.01328000  0.23928000  0.33880000  1.0 -0.1003487495
C  C59  1  0.76072000  0.98672000  0.83880000  1.0 -0.1003487495
C  C60  1  0.98672000  0.76072000  0.66120000  1.0 -0.1003487495
C  C61  1  0.24690000  0.98030000  0.23450000  1.0 -0.1003487495
C  C62  1  0.98030000  0.24690000  0.26550000  1.0 -0.1003487495
C  C63  1  0.75310000  0.01970000  0.76550000  1.0 -0.1003487495
C  C64  1  0.01970000  0.75310000  0.73450000  1.0 -0.1003487495
C  C65  1  0.23573000  0.89993000  0.27410000  1.0 -0.148601899
C  C66  1  0.89993000  0.23573000  0.22590000  1.0 -0.148601899
C  C67  1  0.76427000  0.10007000  0.72590000  1.0 -0.148601899
C  C68  1  0.10007000  0.76427000  0.77410000  1.0 -0.148601899
C  C69  1  0.21824000  0.85012000  0.24110000  1.0 0.0609826636
C  C70  1  0.85012000  0.21824000  0.25890000  1.0 0.0609826636
C  C71  1  0.78176000  0.14988000  0.75890000  1.0 0.0609826636
C  C72  1  0.14988000  0.78176000  0.74110000  1.0 0.0609826636
C  C73  1  0.20867000  0.76703000  0.28070000  1.0 -0.1425717373
C  C74  1  0.76703000  0.20867000  0.21930000  1.0 -0.1425717373
C  C75  1  0.79133000  0.23297000  0.71930000  1.0 -0.1425717373
C  C76  1  0.23297000  0.79133000  0.78070000  1.0 -0.1425717373
C  C77  1  0.19675000  0.71845000  0.25000000  1.0 -0.1690606234
C  C78  1  0.71845000  0.19675000  0.25000000  1.0 -0.1690606234
C  C79  1  0.80325000  0.28155000  0.75000000  1.0 -0.1690606234
C  C80  1  0.28155000  0.80325000  0.75000000  1.0 -0.1690606234
C  C81  1  0.19402000  0.75290000  0.17690000  1.0 0.2101489696
C  C82  1  0.75290000  0.19402000  0.32310000  1.0 0.2101489696
C  C83  1  0.80598000  0.24710000  0.82310000  1.0 0.2101489696
C  C84  1  0.24710000  0.80598000  0.67690000  1.0 0.2101489696
C  C85  1  0.19075000  0.63049000  0.29424000  1.0 0.5798939112
C  C86  1  0.63049000  0.19075000  0.20576000  1.0 0.5798939112
C  C87  1  0.80925000  0.36951000  0.70576000  1.0 0.5798939112
C  C88  1  0.36951000  0.80925000  0.79424000  1.0 0.5798939112
C  C89  1  0.66513000  0.79593000  0.85930000  1.0 0.5599739942
C  C90  1  0.79593000  0.66513000  0.64070000  1.0 0.5599739942
C  C91  1  0.33487000  0.20407000  0.14070000  1.0 0.5599739942
C  C92  1  0.20407000  0.33487000  0.35930000  1.0 0.5599739942
C  C93  1  0.73488000  0.78264000  0.85770000  1.0 -0.1604443938
C  C94  1  0.78264000  0.73488000  0.64230000  1.0 -0.1604443938
C  C95  1  0.26512000  0.21736000  0.14230000  1.0 -0.1604443938
C  C96  1  0.21736000  0.26512000  0.35770000  1.0 -0.1604443938
C  C97  1  0.80685000  0.76125000  0.92310000  1.0 -0.148601899
C  C98  1  0.76125000  0.80685000  0.57690000  1.0 -0.148601899
C  C99  1  0.19315000  0.23875000  0.07690000  1.0 -0.148601899
C  C100  1  0.23875000  0.19315000  0.42310000  1.0 -0.148601899
C  C101  1  0.87550000  0.74950000  0.92380000  1.0 0.0609826636
C  C102  1  0.74950000  0.87550000  0.57620000  1.0 0.0609826636
C  C103  1  0.12450000  0.25050000  0.07620000  1.0 0.0609826636
C  C104  1  0.25050000  0.12450000  0.42380000  1.0 0.0609826636
C  C105  1  0.95140000  0.72920000  0.99050000  1.0 -0.148601899
C  C106  1  0.72920000  0.95140000  0.50950000  1.0 -0.148601899
C  C107  1  0.04860000  0.27080000  0.00950000  1.0 -0.148601899
C  C108  1  0.27080000  0.04860000  0.49050000  1.0 -0.148601899
C  C109  1  0.01630000  0.72110000  0.98760000  1.0 -0.0891437689
C  C110  1  0.72110000  0.01630000  0.51240000  1.0 -0.0891437689
C  C111  1  0.98370000  0.27890000  0.01240000  1.0 -0.0891437689
C  C112  1  0.27890000  0.98370000  0.48760000  1.0 -0.0891437689
C  C113  1  0.00930000  0.73470000  0.91770000  1.0 -0.0837820788
C  C114  1  0.73470000  0.00930000  0.58230000  1.0 -0.0837820788
C  C115  1  0.99070000  0.26530000  0.08230000  1.0 -0.0837820788
C  C116  1  0.26530000  0.99070000  0.41770000  1.0 -0.0837820788
C  C117  1  0.93890000  0.75250000  0.85620000  1.0 -0.1327356827
C  C118  1  0.75250000  0.93890000  0.64380000  1.0 -0.1327356827
C  C119  1  0.06110000  0.24750000  0.14380000  1.0 -0.1327356827
C  C120  1  0.24750000  0.06110000  0.35620000  1.0 -0.1327356827
C  C121  1  0.86860000  0.76240000  0.85440000  1.0 0.0609826636
C  C122  1  0.76240000  0.86860000  0.64560000  1.0 0.0609826636
C  C123  1  0.13140000  0.23760000  0.14560000  1.0 0.0609826636
C  C124  1  0.23760000  0.13140000  0.35440000  1.0 0.0609826636
C  C125  1  0.79341000  0.78281000  0.78710000  1.0 -0.0678023068
C  C126  1  0.78281000  0.79341000  0.71290000  1.0 -0.0678023068
C  C127  1  0.20659000  0.21719000  0.21290000  1.0 -0.0678023068
C  C128  1  0.21719000  0.20659000  0.28710000  1.0 -0.0678023068
C  C129  1  0.72828000  0.79268000  0.78900000  1.0 0.2225575391
C  C130  1  0.79268000  0.72828000  0.71100000  1.0 0.2225575391
C  C131  1  0.27172000  0.20732000  0.21100000  1.0 0.2225575391
C  C132  1  0.20732000  0.27172000  0.28900000  1.0 0.2225575391
C  C133  1  0.59729000  0.83289000  0.02935000  1.0 0.5798939112
C  C134  1  0.83289000  0.59729000  0.47065000  1.0 0.5798939112
C  C135  1  0.40271000  0.16711000  0.97065000  1.0 0.5798939112
C  C136  1  0.16711000  0.40271000  0.52935000  1.0 0.5798939112
C  C137  1  0.68469000  0.83257000  0.08233000  1.0 -0.1604443938
C  C138  1  0.83257000  0.68469000  0.41767000  1.0 -0.1604443938
C  C139  1  0.31531000  0.16743000  0.91767000  1.0 -0.1604443938
C  C140  1  0.16743000  0.31531000  0.58233000  1.0 -0.1604443938
C  C141  1  0.73998000  0.84342000  0.05903000  1.0 -0.148601899
C  C142  1  0.84342000  0.73998000  0.44097000  1.0 -0.148601899
C  C143  1  0.26002000  0.15658000  0.94097000  1.0 -0.148601899
C  C144  1  0.15658000  0.26002000  0.55903000  1.0 -0.148601899
C  C145  1  0.82224000  0.84152000  0.10810000  1.0 0.0609826636
C  C146  1  0.84152000  0.82224000  0.39190000  1.0 0.0609826636
C  C147  1  0.17776000  0.15848000  0.89190000  1.0 0.0609826636
C  C148  1  0.15848000  0.17776000  0.60810000  1.0 0.0609826636
C  C149  1  0.87998000  0.85164000  0.08540000  1.0 -0.148601899
C  C150  1  0.85164000  0.87998000  0.41460000  1.0 -0.148601899
C  C151  1  0.12002000  0.14836000  0.91460000  1.0 -0.148601899
C  C152  1  0.14836000  0.12002000  0.58540000  1.0 -0.148601899
C  C153  1  0.95958000  0.84758000  0.13510000  1.0 -0.1003487495
C  C154  1  0.84758000  0.95958000  0.36490000  1.0 -0.1003487495
C  C155  1  0.04042000  0.15242000  0.86490000  1.0 -0.1003487495
C  C156  1  0.15242000  0.04042000  0.63510000  1.0 -0.1003487495
C  C157  1  0.98558000  0.83358000  0.21030000  1.0 -0.1003487495
C  C158  1  0.83358000  0.98558000  0.28970000  1.0 -0.1003487495
C  C159  1  0.01442000  0.16642000  0.78970000  1.0 -0.1003487495
C  C160  1  0.16642000  0.01442000  0.71030000  1.0 -0.1003487495
C  C161  1  0.93214000  0.82258000  0.23500000  1.0 -0.1327356827
C  C162  1  0.82258000  0.93214000  0.26500000  1.0 -0.1327356827
C  C163  1  0.06786000  0.17742000  0.76500000  1.0 -0.1327356827
C  C164  1  0.17742000  0.06786000  0.73500000  1.0 -0.1327356827
C  C165  1  0.84914000  0.82660000  0.18543000  1.0 0.0506443362
C  C166  1  0.82660000  0.84914000  0.31457000  1.0 0.0506443362
C  C167  1  0.15086000  0.17340000  0.81457000  1.0 0.0506443362
C  C168  1  0.17340000  0.15086000  0.68543000  1.0 0.0506443362
C  C169  1  0.79178000  0.81514000  0.20943000  1.0 -0.0678023068
C  C170  1  0.81514000  0.79178000  0.29057000  1.0 -0.0678023068
C  C171  1  0.20822000  0.18486000  0.79057000  1.0 -0.0678023068
C  C172  1  0.18486000  0.20822000  0.70943000  1.0 -0.0678023068
C  C173  1  0.71171000  0.81841000  0.15893000  1.0 0.2225575391
C  C174  1  0.81841000  0.71171000  0.34107000  1.0 0.2225575391
C  C175  1  0.28829000  0.18159000  0.84107000  1.0 0.2225575391
C  C176  1  0.18159000  0.28829000  0.65893000  1.0 0.2225575391
C  C177  1  0.47210000  0.66130000  0.14920000  1.0 -0.2576059011
C  C178  1  0.66130000  0.47210000  0.35080000  1.0 -0.2576059011
C  C179  1  0.52790000  0.33870000  0.85080000  1.0 -0.2576059011
C  C180  1  0.33870000  0.52790000  0.64920000  1.0 -0.2576059011
C  C181  1  0.45400000  0.63520000  0.09110000  1.0 0.552168766
C  C182  1  0.63520000  0.45400000  0.40890000  1.0 0.552168766
C  C183  1  0.54600000  0.36480000  0.90890000  1.0 0.552168766
C  C184  1  0.36480000  0.54600000  0.59110000  1.0 0.552168766
C  C185  1  0.52620000  0.65020000  0.82700000  1.0 -0.6215902027
C  C186  1  0.65020000  0.52620000  0.67300000  1.0 -0.6215902027
C  C187  1  0.47380000  0.34980000  0.17300000  1.0 -0.6215902027
C  C188  1  0.34980000  0.47380000  0.32700000  1.0 -0.6215902027
C  C189  1  0.51706000  0.62766000  0.89530000  1.0 0.66934661
C  C190  1  0.62766000  0.51706000  0.60470000  1.0 0.66934661
C  C191  1  0.48294000  0.37234000  0.10470000  1.0 0.66934661
C  C192  1  0.37234000  0.48294000  0.39530000  1.0 0.66934661
C  C193  1  0.31230000  0.53310000  0.97760000  1.0 0.0804390025
C  C194  1  0.53310000  0.31230000  0.52240000  1.0 0.0804390025
C  C195  1  0.68770000  0.46690000  0.02240000  1.0 0.0804390025
C  C196  1  0.46690000  0.68770000  0.47760000  1.0 0.0804390025
C  C197  1  0.23240000  0.52200000  0.93490000  1.0 -0.1976932548
C  C198  1  0.52200000  0.23240000  0.56510000  1.0 -0.1976932548
C  C199  1  0.76760000  0.47800000  0.06510000  1.0 -0.1976932548
C  C200  1  0.47800000  0.76760000  0.43490000  1.0 -0.1976932548
C  C201  1  0.19764000  0.55664000  0.85530000  1.0 0.1011906933
C  C202  1  0.55664000  0.19764000  0.64470000  1.0 0.1011906933
C  C203  1  0.80236000  0.44336000  0.14470000  1.0 0.1011906933
C  C204  1  0.44336000  0.80236000  0.35530000  1.0 0.1011906933
C  C205  1  0.24733000  0.60049000  0.82360000  1.0 -0.1800137964
C  C206  1  0.60049000  0.24733000  0.67640000  1.0 -0.1800137964
C  C207  1  0.75267000  0.39951000  0.17640000  1.0 -0.1800137964
C  C208  1  0.39951000  0.75267000  0.32360000  1.0 -0.1800137964
C  C209  1  0.32645000  0.60763000  0.87080000  1.0 0.0716309807
C  C210  1  0.60763000  0.32645000  0.62920000  1.0 0.0716309807
C  C211  1  0.67355000  0.39237000  0.12920000  1.0 0.0716309807
C  C212  1  0.39237000  0.67355000  0.37080000  1.0 0.0716309807
C  C213  1  0.11258000  0.54792000  0.80660000  1.0 0.1097247842
C  C214  1  0.54792000  0.11258000  0.69340000  1.0 0.1097247842
C  C215  1  0.88742000  0.45208000  0.19340000  1.0 0.1097247842
C  C216  1  0.45208000  0.88742000  0.30660000  1.0 0.1097247842
C  C217  1  0.06060000  0.50780000  0.83670000  1.0 -0.1882435053
C  C218  1  0.50780000  0.06060000  0.66330000  1.0 -0.1882435053
C  C219  1  0.93940000  0.49220000  0.16330000  1.0 -0.1882435053
C  C220  1  0.49220000  0.93940000  0.33670000  1.0 -0.1882435053
C  C221  1  0.98191000  0.50211000  0.78830000  1.0 0.0716309807
C  C222  1  0.50211000  0.98191000  0.71170000  1.0 0.0716309807
C  C223  1  0.01809000  0.49789000  0.21170000  1.0 0.0716309807
C  C224  1  0.49789000  0.01809000  0.28830000  1.0 0.0716309807
C  C225  1  0.08069000  0.58049000  0.72740000  1.0 -0.1800137964
C  C226  1  0.58049000  0.08069000  0.77260000  1.0 -0.1800137964
C  C227  1  0.91931000  0.41951000  0.27260000  1.0 -0.1800137964
C  C228  1  0.41951000  0.91931000  0.22740000  1.0 -0.1800137964
C  C229  1  0.00085000  0.57267000  0.68270000  1.0 0.0907590457
C  C230  1  0.57267000  0.00085000  0.81730000  1.0 0.0907590457
C  C231  1  0.99915000  0.42733000  0.31730000  1.0 0.0907590457
C  C232  1  0.42733000  0.99915000  0.18270000  1.0 0.0907590457
C  C233  1  0.65971000  0.53051000  0.17880000  1.0 0.0391567572
C  C234  1  0.53051000  0.65971000  0.32120000  1.0 0.0391567572
C  C235  1  0.34029000  0.46949000  0.82120000  1.0 0.0391567572
C  C236  1  0.46949000  0.34029000  0.67880000  1.0 0.0391567572
C  C237  1  0.73788000  0.52908000  0.23320000  1.0 -0.1976932548
C  C238  1  0.52908000  0.73788000  0.26680000  1.0 -0.1976932548
C  C239  1  0.26212000  0.47092000  0.76680000  1.0 -0.1976932548
C  C240  1  0.47092000  0.26212000  0.73320000  1.0 -0.1976932548
C  C241  1  0.79083000  0.58229000  0.21211000  1.0 0.1011906933
C  C242  1  0.58229000  0.79083000  0.28789000  1.0 0.1011906933
C  C243  1  0.20917000  0.41771000  0.78789000  1.0 0.1011906933
C  C244  1  0.41771000  0.20917000  0.71211000  1.0 0.1011906933
C  C245  1  0.76002000  0.63442000  0.13480000  1.0 -0.1882435053
C  C246  1  0.63442000  0.76002000  0.36520000  1.0 -0.1882435053
C  C247  1  0.23998000  0.36558000  0.86520000  1.0 -0.1882435053
C  C248  1  0.36558000  0.23998000  0.63480000  1.0 -0.1882435053
C  C249  1  0.68063000  0.63281000  0.08390000  1.0 0.0804390025
C  C250  1  0.63281000  0.68063000  0.41610000  1.0 0.0804390025
C  C251  1  0.31937000  0.36719000  0.91610000  1.0 0.0804390025
C  C252  1  0.36719000  0.31937000  0.58390000  1.0 0.0804390025
C  C253  1  0.87626000  0.58094000  0.26879000  1.0 0.1289057343
C  C254  1  0.58094000  0.87626000  0.23121000  1.0 0.1289057343
C  C255  1  0.12374000  0.41906000  0.73121000  1.0 0.1289057343
C  C256  1  0.41906000  0.12374000  0.76879000  1.0 0.1289057343
C  C257  1  0.92981000  0.63291000  0.24510000  1.0 -0.1800137964
C  C258  1  0.63291000  0.92981000  0.25490000  1.0 -0.1800137964
C  C259  1  0.07019000  0.36709000  0.75490000  1.0 -0.1800137964
C  C260  1  0.36709000  0.07019000  0.74510000  1.0 -0.1800137964
C  C261  1  0.00885000  0.62925000  0.29870000  1.0 0.0804390025
C  C262  1  0.62925000  0.00885000  0.20130000  1.0 0.0804390025
C  C263  1  0.99115000  0.37075000  0.70130000  1.0 0.0804390025
C  C264  1  0.37075000  0.99115000  0.79870000  1.0 0.0804390025
C  C265  1  0.90674000  0.52814000  0.34800000  1.0 -0.1882435053
C  C266  1  0.52814000  0.90674000  0.15200000  1.0 -0.1882435053
C  C267  1  0.09326000  0.47186000  0.65200000  1.0 -0.1882435053
C  C268  1  0.47186000  0.09326000  0.84800000  1.0 -0.1882435053
C  C269  1  0.98623000  0.52801000  0.39722000  1.0 0.0716309807
C  C270  1  0.52801000  0.98623000  0.10278000  1.0 0.0716309807
C  C271  1  0.01377000  0.47199000  0.60278000  1.0 0.0716309807
C  C272  1  0.47199000  0.01377000  0.89722000  1.0 0.0716309807
C  C273  1  0.40490000  0.65110000  0.11700000  1.0 -0.2535938528
C  C274  1  0.65110000  0.40490000  0.38300000  1.0 -0.2535938528
C  C275  1  0.59510000  0.34890000  0.88300000  1.0 -0.2535938528
C  C276  1  0.34890000  0.59510000  0.61700000  1.0 -0.2535938528
N  N1  1  0.95131000  0.53407000  0.71160000  1.0 -0.241787158
N  N2  1  0.53407000  0.95131000  0.78840000  1.0 -0.241787158
N  N3  1  0.04869000  0.46593000  0.28840000  1.0 -0.241787158
N  N4  1  0.46593000  0.04869000  0.21160000  1.0 -0.241787158
N  N5  1  0.35963000  0.57443000  0.94686000  1.0 -0.2270742264
N  N6  1  0.57443000  0.35963000  0.55314000  1.0 -0.2270742264
N  N7  1  0.64037000  0.42557000  0.05314000  1.0 -0.2270742264
N  N8  1  0.42557000  0.64037000  0.44686000  1.0 -0.2270742264
N  N9  1  0.62960000  0.58266000  0.10481000  1.0 -0.241787158
N  N10  1  0.58266000  0.62960000  0.39519000  1.0 -0.241787158
N  N11  1  0.37040000  0.41734000  0.89519000  1.0 -0.241787158
N  N12  1  0.41734000  0.37040000  0.60481000  1.0 -0.241787158
N  N13  1  0.03869000  0.57673000  0.37453000  1.0 -0.2576059011
N  N14  1  0.57673000  0.03869000  0.12547000  1.0 -0.2576059011
N  N15  1  0.96131000  0.42327000  0.62547000  1.0 -0.2576059011
N  N16  1  0.42327000  0.96131000  0.87453000  1.0 -0.2576059011
O  O1  1  0.29185000  0.84591000  0.91461000  1.0 -0.5475009289
O  O2  1  0.84591000  0.29185000  0.58539000  1.0 -0.5475009289
O  O3  1  0.70815000  0.15409000  0.08539000  1.0 -0.5475009289
O  O4  1  0.15409000  0.70815000  0.41461000  1.0 -0.5475009289
O  O5  1  0.37750000  0.83764000  0.02885000  1.0 -0.5609155689
O  O6  1  0.83764000  0.37750000  0.47115000  1.0 -0.5609155689
O  O7  1  0.62250000  0.16236000  0.97115000  1.0 -0.5609155689
O  O8  1  0.16236000  0.62250000  0.52885000  1.0 -0.5609155689
O  O9  1  0.32521000  0.82297000  0.11600000  1.0 -0.4629417789
O  O10  1  0.82297000  0.32521000  0.38400000  1.0 -0.4629417789
O  O11  1  0.67479000  0.17703000  0.88400000  1.0 -0.4629417789
O  O12  1  0.17703000  0.67479000  0.61600000  1.0 -0.4629417789
O  O13  1  0.18507000  0.70651000  0.14586000  1.0 -0.4230097092
O  O14  1  0.70651000  0.18507000  0.35414000  1.0 -0.4230097092
O  O15  1  0.81493000  0.29349000  0.85414000  1.0 -0.4230097092
O  O16  1  0.29349000  0.81493000  0.64586000  1.0 -0.4230097092
O  O17  1  0.18275000  0.58825000  0.26416000  1.0 -0.5431420897
O  O18  1  0.58825000  0.18275000  0.23584000  1.0 -0.5431420897
O  O19  1  0.81725000  0.41175000  0.73584000  1.0 -0.5431420897
O  O20  1  0.41175000  0.81725000  0.76416000  1.0 -0.5431420897
O  O21  1  0.19483000  0.59785000  0.35964000  1.0 -0.5609155689
O  O22  1  0.59785000  0.19483000  0.14036000  1.0 -0.5609155689
O  O23  1  0.80517000  0.40215000  0.64036000  1.0 -0.5609155689
O  O24  1  0.40215000  0.80517000  0.85964000  1.0 -0.5609155689
O  O25  1  0.67178000  0.78712000  0.92013000  1.0 -0.5431420897
O  O26  1  0.78712000  0.67178000  0.57987000  1.0 -0.5431420897
O  O27  1  0.32822000  0.21288000  0.07987000  1.0 -0.5431420897
O  O28  1  0.21288000  0.32822000  0.42013000  1.0 -0.5431420897
O  O29  1  0.59866000  0.81780000  0.79675000  1.0 -0.5609155689
O  O30  1  0.81780000  0.59866000  0.70325000  1.0 -0.5609155689
O  O31  1  0.40134000  0.18220000  0.20325000  1.0 -0.5609155689
O  O32  1  0.18220000  0.40134000  0.29675000  1.0 -0.5609155689
O  O33  1  0.65614000  0.81088000  0.72401000  1.0 -0.4230097092
O  O34  1  0.81088000  0.65614000  0.77599000  1.0 -0.4230097092
O  O35  1  0.34386000  0.18912000  0.27599000  1.0 -0.4230097092
O  O36  1  0.18912000  0.34386000  0.22401000  1.0 -0.4230097092
O  O37  1  0.57326000  0.83462000  0.96656000  1.0 -0.5690720287
O  O38  1  0.83462000  0.57326000  0.53344000  1.0 -0.5690720287
O  O39  1  0.42674000  0.16538000  0.03344000  1.0 -0.5690720287
O  O40  1  0.16538000  0.42674000  0.46656000  1.0 -0.5690720287
O  O41  1  0.54849000  0.83269000  0.05015000  1.0 -0.5431420897
O  O42  1  0.83269000  0.54849000  0.44985000  1.0 -0.5431420897
O  O43  1  0.45151000  0.16731000  0.94985000  1.0 -0.5431420897
O  O44  1  0.16731000  0.45151000  0.55015000  1.0 -0.5431420897
O  O45  1  0.65989000  0.80653000  0.18502000  1.0 -0.4230097092
O  O46  1  0.80653000  0.65989000  0.31498000  1.0 -0.4230097092
O  O47  1  0.34011000  0.19347000  0.81498000  1.0 -0.4230097092
O  O48  1  0.19347000  0.34011000  0.68502000  1.0 -0.4230097092
O  O49  1  0.47283000  0.56381000  0.11901000  1.0 -0.5060556736
O  O50  1  0.56381000  0.47283000  0.38099000  1.0 -0.5060556736
O  O51  1  0.52717000  0.43619000  0.88099000  1.0 -0.5060556736
O  O52  1  0.43619000  0.52717000  0.61901000  1.0 -0.5060556736
O  O53  1  0.45265000  0.68823000  0.02721000  1.0 -0.5431420897
O  O54  1  0.68823000  0.45265000  0.47279000  1.0 -0.5431420897
O  O55  1  0.54735000  0.31177000  0.97279000  1.0 -0.5431420897
O  O56  1  0.31177000  0.54735000  0.52721000  1.0 -0.5431420897
O  O57  1  0.52124000  0.67820000  0.91528000  1.0 -0.5759013501
O  O58  1  0.67820000  0.52124000  0.58472000  1.0 -0.5759013501
O  O59  1  0.47876000  0.32180000  0.08472000  1.0 -0.5759013501
O  O60  1  0.32180000  0.47876000  0.41528000  1.0 -0.5759013501
O  O61  1  0.50499000  0.55623000  0.93402000  1.0 -0.5609155689
O  O62  1  0.55623000  0.50499000  0.56598000  1.0 -0.5609155689
O  O63  1  0.49501000  0.44377000  0.06598000  1.0 -0.5609155689
O  O64  1  0.44377000  0.49501000  0.43402000  1.0 -0.5609155689
