# DDEC6 charges by PACMAN v1.1 (https://github.com/mtap-research/PACMAN-charge/)
data_RERVIW_ion_pacman
_symmetry_space_group_name_H-M   'P 1'
_cell_length_a   18.65520000
_cell_length_b   21.15630000
_cell_length_c   31.34470000
_cell_angle_alpha   90.00000000
_cell_angle_beta   122.45300000
_cell_angle_gamma   90.00000000
_symmetry_Int_Tables_number   1
_chemical_formula_structural   Mn3H36C64N6ClO25
_chemical_formula_sum   'Mn12 H144 C256 N24 Cl4 O100'
_cell_volume   10439.01902140
_cell_formula_units_Z   4
loop_
 _symmetry_equiv_pos_site_id
 _symmetry_equiv_pos_as_xyz
  1  'x, y, z'
loop_
 _atom_site_type_symbol
 _atom_site_label
 _atom_site_symmetry_multiplicity
 _atom_site_fract_x
 _atom_site_fract_y
 _atom_site_fract_z
 _atom_site_occupancy
 _atom_site_charge
Mn  Mn1  1  0.02088000  0.36046000  0.72670000  1.0 1.0497393328
Mn  Mn2  1  0.08998000  0.00993000  0.50385000  1.0 1.0243016798
Mn  Mn3  1  0.83504000  0.24530000  0.68298000  1.0 1.0497393328
Mn  Mn4  1  0.97912000  0.86046000  0.77330000  1.0 1.0497393328
Mn  Mn5  1  0.91002000  0.50993000  0.99615000  1.0 1.0257355291
Mn  Mn6  1  0.16496000  0.74530000  0.81702000  1.0 1.0497393328
Mn  Mn7  1  0.97912000  0.63954000  0.27330000  1.0 1.0497393328
Mn  Mn8  1  0.91002000  0.99007000  0.49615000  1.0 1.0257355291
Mn  Mn9  1  0.16496000  0.75470000  0.31702000  1.0 1.0497393328
Mn  Mn10  1  0.02088000  0.13954000  0.22670000  1.0 1.0497393328
Mn  Mn11  1  0.08998000  0.49007000  0.00385000  1.0 1.0243016798
Mn  Mn12  1  0.83504000  0.25470000  0.18298000  1.0 1.0497393328
H  H1  1  0.74728000  0.33519000  0.73514000  1.0 0.1468943388
H  H2  1  0.97043000  0.40696000  0.84807000  1.0 0.1468943388
H  H3  1  0.76873000  0.39790000  0.86362000  1.0 0.1468943388
H  H4  1  0.57656000  0.21498000  0.83150000  1.0 0.1393326755
H  H5  1  0.43500000  0.18666000  0.79785000  1.0 0.1221202663
H  H6  1  0.31309000  0.39659000  0.62160000  1.0 0.1304660274
H  H7  1  0.45586000  0.42554000  0.65612000  1.0 0.1304660274
H  H8  1  0.16800000  0.16271000  0.60694000  1.0 0.1468943388
H  H9  1  0.93257000  0.16303000  0.58421000  1.0 0.1468943388
H  H10  1  0.10750000  0.29282000  0.67725000  1.0 0.1468943388
H  H11  1  0.16730000  0.52784000  0.78190000  1.0 0.1393326755
H  H12  1  0.35249000  0.62825000  0.78222000  1.0 0.1468943388
H  H13  1  0.32278000  0.44255000  0.74593000  1.0 0.1304660274
H  H14  1  0.66549000  0.52510000  0.87185000  1.0 0.1468943388
H  H15  1  0.78353000  0.53468000  0.86346000  1.0 0.1393326755
H  H16  1  0.52869000  0.57451000  0.62170000  1.0 0.1304660274
H  H17  1  0.41151000  0.56738000  0.62985000  1.0 0.1304660274
H  H18  1  0.84809000  0.67075000  0.74746000  1.0 0.1468943388
H  H19  1  0.01880000  0.62116000  0.71142000  1.0 0.1393326755
H  H20  1  0.85714000  0.49071000  0.70761000  1.0 0.1304660274
H  H21  1  0.25272000  0.83519000  0.76486000  1.0 0.1468943388
H  H22  1  0.02957000  0.90696000  0.65193000  1.0 0.1468943388
H  H23  1  0.23127000  0.89790000  0.63638000  1.0 0.1468943388
H  H24  1  0.42344000  0.71498000  0.66850000  1.0 0.1393326755
H  H25  1  0.56500000  0.68666000  0.70215000  1.0 0.1221202663
H  H26  1  0.68691000  0.89659000  0.87840000  1.0 0.1304660274
H  H27  1  0.54414000  0.92554000  0.84388000  1.0 0.1304660274
H  H28  1  0.83200000  0.66271000  0.89306000  1.0 0.1468943388
H  H29  1  0.06743000  0.66303000  0.91579000  1.0 0.1468943388
H  H30  1  0.89250000  0.79282000  0.82275000  1.0 0.1468943388
H  H31  1  0.83270000  0.02784000  0.71810000  1.0 0.1393326755
H  H32  1  0.64751000  0.12825000  0.71778000  1.0 0.1468943388
H  H33  1  0.67722000  0.94255000  0.75407000  1.0 0.1304660274
H  H34  1  0.33451000  0.02510000  0.62815000  1.0 0.1468943388
H  H35  1  0.21647000  0.03468000  0.63654000  1.0 0.1393326755
H  H36  1  0.47131000  0.07451000  0.87830000  1.0 0.1304660274
H  H37  1  0.58849000  0.06738000  0.87015000  1.0 0.1304660274
H  H38  1  0.15191000  0.17075000  0.75254000  1.0 0.1468943388
H  H39  1  0.98120000  0.12116000  0.78858000  1.0 0.1393326755
H  H40  1  0.14286000  0.99071000  0.79239000  1.0 0.1304660274
H  H41  1  0.25272000  0.66481000  0.26486000  1.0 0.1468943388
H  H42  1  0.02957000  0.59304000  0.15193000  1.0 0.1468943388
H  H43  1  0.23127000  0.60210000  0.13638000  1.0 0.1468943388
H  H44  1  0.42344000  0.78502000  0.16850000  1.0 0.1393326755
H  H45  1  0.56500000  0.81334000  0.20215000  1.0 0.1221202663
H  H46  1  0.68691000  0.60341000  0.37840000  1.0 0.1304660274
H  H47  1  0.54414000  0.57446000  0.34388000  1.0 0.1304660274
H  H48  1  0.83200000  0.83729000  0.39306000  1.0 0.1468943388
H  H49  1  0.06743000  0.83697000  0.41579000  1.0 0.1468943388
H  H50  1  0.89250000  0.70718000  0.32275000  1.0 0.1468943388
H  H51  1  0.83270000  0.47216000  0.21810000  1.0 0.1393326755
H  H52  1  0.64751000  0.37175000  0.21778000  1.0 0.1468943388
H  H53  1  0.67722000  0.55745000  0.25407000  1.0 0.1304660274
H  H54  1  0.33451000  0.47490000  0.12815000  1.0 0.1468943388
H  H55  1  0.21647000  0.46532000  0.13654000  1.0 0.1393326755
H  H56  1  0.47131000  0.42549000  0.37830000  1.0 0.1304660274
H  H57  1  0.58849000  0.43262000  0.37015000  1.0 0.1304660274
H  H58  1  0.15191000  0.32925000  0.25254000  1.0 0.1468943388
H  H59  1  0.98120000  0.37884000  0.28858000  1.0 0.1393326755
H  H60  1  0.14286000  0.50929000  0.29239000  1.0 0.1304660274
H  H61  1  0.74728000  0.16481000  0.23514000  1.0 0.1468943388
H  H62  1  0.97043000  0.09304000  0.34807000  1.0 0.1468943388
H  H63  1  0.76873000  0.10210000  0.36362000  1.0 0.1468943388
H  H64  1  0.57656000  0.28502000  0.33150000  1.0 0.1393326755
H  H65  1  0.43500000  0.31334000  0.29785000  1.0 0.1221202663
H  H66  1  0.31309000  0.10341000  0.12160000  1.0 0.1304660274
H  H67  1  0.45586000  0.07446000  0.15612000  1.0 0.1304660274
H  H68  1  0.16800000  0.33729000  0.10694000  1.0 0.1468943388
H  H69  1  0.93257000  0.33697000  0.08421000  1.0 0.1468943388
H  H70  1  0.10750000  0.20718000  0.17725000  1.0 0.1468943388
H  H71  1  0.16730000  0.97216000  0.28190000  1.0 0.1393326755
H  H72  1  0.35249000  0.87175000  0.28222000  1.0 0.1468943388
H  H73  1  0.32278000  0.05745000  0.24593000  1.0 0.1304660274
H  H74  1  0.66549000  0.97490000  0.37185000  1.0 0.1468943388
H  H75  1  0.78353000  0.96532000  0.36346000  1.0 0.1393326755
H  H76  1  0.52869000  0.92549000  0.12170000  1.0 0.1304660274
H  H77  1  0.41151000  0.93262000  0.12985000  1.0 0.1304660274
H  H78  1  0.84809000  0.82925000  0.24746000  1.0 0.1468943388
H  H79  1  0.01880000  0.87884000  0.21142000  1.0 0.1393326755
H  H80  1  0.85714000  0.00929000  0.20761000  1.0 0.1304660274
H  H81  1  0.77098000  0.14028000  0.11055000  1.0 0.251601154
H  H82  1  0.82629000  0.08562000  0.13604000  1.0 0.2655641455
H  H83  1  0.66830000  0.04441000  0.07737000  1.0 0.1221202663
H  H84  1  0.67321000  0.09758000  0.11517000  1.0 0.1393326755
H  H85  1  0.72979000  0.03500000  0.13717000  1.0 0.1221202663
H  H86  1  0.83628000  0.09226000  0.07202000  1.0 0.1304660274
H  H87  1  0.73952000  0.11463000  0.03693000  1.0 0.1304660274
H  H88  1  0.76123000  0.04133000  0.05020000  1.0 0.1221202663
H  H89  1  0.06050000  0.03243000  0.14006000  1.0 0.2625548411
H  H90  1  0.11447000  0.08792000  0.15015000  1.0 0.2625548411
H  H91  1  0.98164000  0.11869000  0.09810000  1.0 0.1304660274
H  H92  1  0.96753000  0.06205000  0.06050000  1.0 0.1304660274
H  H93  1  0.02855000  0.11979000  0.06779000  1.0 0.1393326755
H  H94  1  0.17797000  0.00117000  0.14337000  1.0 0.1393326755
H  H95  1  0.15791000  0.05115000  0.09999000  1.0 0.1304660274
H  H96  1  0.09727000  0.99125000  0.08728000  1.0 0.1304660274
H  H97  1  0.22902000  0.64028000  0.38945000  1.0 0.251601154
H  H98  1  0.17371000  0.58562000  0.36396000  1.0 0.2655641455
H  H99  1  0.33170000  0.54441000  0.42263000  1.0 0.1221202663
H  H100  1  0.32679000  0.59758000  0.38483000  1.0 0.1393326755
H  H101  1  0.27021000  0.53500000  0.36283000  1.0 0.1221202663
H  H102  1  0.16372000  0.59226000  0.42798000  1.0 0.1304660274
H  H103  1  0.26048000  0.61463000  0.46307000  1.0 0.1304660274
H  H104  1  0.23877000  0.54133000  0.44980000  1.0 0.1221202663
H  H105  1  0.93950000  0.53243000  0.35994000  1.0 0.2625548411
H  H106  1  0.88553000  0.58792000  0.34985000  1.0 0.2625548411
H  H107  1  0.01836000  0.61869000  0.40190000  1.0 0.1304660274
H  H108  1  0.03247000  0.56205000  0.43950000  1.0 0.1304660274
H  H109  1  0.97145000  0.61979000  0.43221000  1.0 0.1393326755
H  H110  1  0.82203000  0.50117000  0.35663000  1.0 0.1393326755
H  H111  1  0.84209000  0.55115000  0.40001000  1.0 0.1304660274
H  H112  1  0.90273000  0.49125000  0.41272000  1.0 0.1304660274
H  H113  1  0.22902000  0.85972000  0.88945000  1.0 0.251601154
H  H114  1  0.17371000  0.91438000  0.86396000  1.0 0.2655641455
H  H115  1  0.33170000  0.95559000  0.92263000  1.0 0.1221202663
H  H116  1  0.32679000  0.90242000  0.88483000  1.0 0.1393326755
H  H117  1  0.27021000  0.96500000  0.86283000  1.0 0.1221202663
H  H118  1  0.16372000  0.90774000  0.92798000  1.0 0.1393326755
H  H119  1  0.26048000  0.88537000  0.96307000  1.0 0.1304660274
H  H120  1  0.23877000  0.95867000  0.94980000  1.0 0.1221202663
H  H121  1  0.93950000  0.96757000  0.85994000  1.0 0.2625548411
H  H122  1  0.88553000  0.91208000  0.84985000  1.0 0.2625548411
H  H123  1  0.01836000  0.88131000  0.90190000  1.0 0.1304660274
H  H124  1  0.03247000  0.93795000  0.93950000  1.0 0.1304660274
H  H125  1  0.97145000  0.88021000  0.93221000  1.0 0.1393326755
H  H126  1  0.82203000  0.99883000  0.85663000  1.0 0.1393326755
H  H127  1  0.84209000  0.94885000  0.90001000  1.0 0.1304660274
H  H128  1  0.90273000  0.00875000  0.91272000  1.0 0.1304660274
H  H129  1  0.77098000  0.35972000  0.61055000  1.0 0.251601154
H  H130  1  0.82629000  0.41438000  0.63604000  1.0 0.2655641455
H  H131  1  0.66830000  0.45559000  0.57737000  1.0 0.1221202663
H  H132  1  0.67321000  0.40242000  0.61517000  1.0 0.1393326755
H  H133  1  0.72979000  0.46500000  0.63717000  1.0 0.1221202663
H  H134  1  0.83628000  0.40774000  0.57202000  1.0 0.1304660274
H  H135  1  0.73952000  0.38537000  0.53693000  1.0 0.1304660274
H  H136  1  0.76123000  0.45867000  0.55020000  1.0 0.1221202663
H  H137  1  0.06050000  0.46757000  0.64006000  1.0 0.2625548411
H  H138  1  0.11447000  0.41208000  0.65015000  1.0 0.2625548411
H  H139  1  0.98164000  0.38131000  0.59810000  1.0 0.1304660274
H  H140  1  0.96753000  0.43795000  0.56050000  1.0 0.1304660274
H  H141  1  0.02855000  0.38021000  0.56779000  1.0 0.1393326755
H  H142  1  0.17797000  0.49883000  0.64337000  1.0 0.1393326755
H  H143  1  0.15791000  0.44885000  0.59999000  1.0 0.1304660274
H  H144  1  0.09727000  0.50875000  0.58728000  1.0 0.1304660274
C  C1  1  0.90164000  0.36165000  0.75537000  1.0 0.5831060726
C  C2  1  0.92980000  0.43619000  0.91560000  1.0 0.5902208927
C  C3  1  0.78048000  0.35373000  0.76774000  1.0 -0.1510579568
C  C4  1  0.86388000  0.37092000  0.78684000  1.0 0.008239913
C  C5  1  0.91262000  0.39656000  0.83486000  1.0 -0.0938500632
C  C6  1  0.87788000  0.40727000  0.86404000  1.0 0.008239913
C  C7  1  0.79368000  0.39080000  0.84439000  1.0 -0.1575512309
C  C8  1  0.74608000  0.36397000  0.79689000  1.0 0.1900364719
C  C9  1  0.64310000  0.29880000  0.80130000  1.0 0.4447131473
C  C10  1  0.55258000  0.28320000  0.78014000  1.0 -0.060585741
C  C11  1  0.48824000  0.31482000  0.73732000  1.0 0.0311425491
C  C12  1  0.50658000  0.36305000  0.71324000  1.0 -0.0493878639
C  C13  1  0.59656000  0.38020000  0.73353000  1.0 0.4447131473
C  C14  1  0.53258000  0.23600000  0.80234000  1.0 -0.079312463
C  C15  1  0.44820000  0.21910000  0.78220000  1.0 -0.079312463
C  C16  1  0.38368000  0.24897000  0.73979000  1.0 -0.0493878639
C  C17  1  0.40250000  0.29704000  0.71675000  1.0 0.0379238892
C  C18  1  0.33772000  0.32824000  0.67281000  1.0 -0.0493878639
C  C19  1  0.35708000  0.37550000  0.65074000  1.0 -0.079312463
C  C20  1  0.44270000  0.39270000  0.67150000  1.0 -0.079312463
C  C21  1  0.29442000  0.22808000  0.71721000  1.0 0.4512979883
C  C22  1  0.24870000  0.30670000  0.64880000  1.0 0.4512979883
C  C23  1  0.14902000  0.23053000  0.64591000  1.0 0.1900364719
C  C24  1  0.12764000  0.18006000  0.61332000  1.0 -0.1712042646
C  C25  1  0.04624000  0.15505000  0.59002000  1.0 0.0225354163
C  C26  1  0.98786000  0.18074000  0.59968000  1.0 -0.0938500632
C  C27  1  0.01004000  0.23237000  0.63197000  1.0 -0.0007956551
C  C28  1  0.09168000  0.25751000  0.65524000  1.0 -0.1712042646
C  C29  1  0.94832000  0.25980000  0.64346000  1.0 0.5698854346
C  C30  1  0.02204000  0.09901000  0.55542000  1.0 0.5902208927
C  C31  1  0.18450000  0.41540000  0.74790000  1.0 0.5547424871
C  C32  1  0.22620000  0.64480000  0.79830000  1.0 0.5432968754
C  C33  1  0.21294000  0.52990000  0.77667000  1.0 -0.079312463
C  C34  1  0.25574000  0.58660000  0.78412000  1.0 0.0225354163
C  C35  1  0.32362000  0.58944000  0.77776000  1.0 -0.1575512309
C  C36  1  0.34884000  0.53543000  0.76492000  1.0 0.1848558057
C  C37  1  0.30550000  0.47893000  0.75590000  1.0 -0.1757737342
C  C38  1  0.23666000  0.47570000  0.76148000  1.0 0.008239913
C  C39  1  0.50226000  0.53276000  0.80353000  1.0 0.4512979883
C  C40  1  0.40424000  0.54880000  0.71092000  1.0 0.4512979883
C  C41  1  0.47930000  0.55391000  0.70605000  1.0 -0.060585741
C  C42  1  0.56180000  0.54856000  0.74940000  1.0 0.0379238892
C  C43  1  0.57578000  0.53753000  0.79764000  1.0 -0.0685156137
C  C44  1  0.65696000  0.53240000  0.83953000  1.0 -0.0685156137
C  C45  1  0.72750000  0.53797000  0.83450000  1.0 -0.060585741
C  C46  1  0.71512000  0.54815000  0.78776000  1.0 -0.0404719711
C  C47  1  0.63268000  0.55338000  0.74439000  1.0 0.0482782833
C  C48  1  0.61834000  0.56305000  0.69557000  1.0 -0.0493878639
C  C49  1  0.53736000  0.56800000  0.65413000  1.0 -0.079312463
C  C50  1  0.46740000  0.56370000  0.65890000  1.0 -0.0970826479
C  C51  1  0.69182000  0.56930000  0.68996000  1.0 0.4512979883
C  C52  1  0.78994000  0.55490000  0.78312000  1.0 0.4650588352
C  C53  1  0.84370000  0.57886000  0.72860000  1.0 0.2019327748
C  C54  1  0.87306000  0.63983000  0.73738000  1.0 -0.1575512309
C  C55  1  0.93940000  0.65640000  0.73150000  1.0 0.008239913
C  C56  1  0.97340000  0.61031000  0.71550000  1.0 -0.0970826479
C  C57  1  0.94224000  0.54893000  0.70542000  1.0 -0.0007956551
C  C58  1  0.87776000  0.53288000  0.71303000  1.0 -0.1712042646
C  C59  1  0.97520000  0.72201000  0.74205000  1.0 0.5831060726
C  C60  1  0.97810000  0.50106000  0.68590000  1.0 0.5698854346
C  C61  1  0.09836000  0.86165000  0.74463000  1.0 0.5831060726
C  C62  1  0.07020000  0.93619000  0.58440000  1.0 0.5902208927
C  C63  1  0.21952000  0.85373000  0.73226000  1.0 -0.1510579568
C  C64  1  0.13612000  0.87092000  0.71316000  1.0 0.008239913
C  C65  1  0.08738000  0.89656000  0.66514000  1.0 -0.0938500632
C  C66  1  0.12212000  0.90727000  0.63596000  1.0 0.008239913
C  C67  1  0.20632000  0.89080000  0.65561000  1.0 -0.1575512309
C  C68  1  0.25392000  0.86397000  0.70311000  1.0 0.1900364719
C  C69  1  0.35690000  0.79880000  0.69870000  1.0 0.4447131473
C  C70  1  0.44742000  0.78320000  0.71986000  1.0 -0.060585741
C  C71  1  0.51176000  0.81482000  0.76268000  1.0 0.0311425491
C  C72  1  0.49342000  0.86305000  0.78676000  1.0 -0.0493878639
C  C73  1  0.40344000  0.88020000  0.76647000  1.0 0.4447131473
C  C74  1  0.46742000  0.73600000  0.69766000  1.0 -0.079312463
C  C75  1  0.55180000  0.71910000  0.71780000  1.0 -0.079312463
C  C76  1  0.61632000  0.74897000  0.76021000  1.0 -0.0493878639
C  C77  1  0.59750000  0.79704000  0.78325000  1.0 0.0379238892
C  C78  1  0.66228000  0.82824000  0.82719000  1.0 -0.0493878639
C  C79  1  0.64292000  0.87550000  0.84926000  1.0 -0.079312463
C  C80  1  0.55730000  0.89270000  0.82850000  1.0 -0.079312463
C  C81  1  0.70558000  0.72808000  0.78279000  1.0 0.4512979883
C  C82  1  0.75130000  0.80670000  0.85120000  1.0 0.4512979883
C  C83  1  0.85098000  0.73053000  0.85409000  1.0 0.1900364719
C  C84  1  0.87236000  0.68006000  0.88668000  1.0 -0.1712042646
C  C85  1  0.95376000  0.65505000  0.90998000  1.0 0.0225354163
C  C86  1  0.01214000  0.68074000  0.90032000  1.0 -0.0938500632
C  C87  1  0.98996000  0.73237000  0.86803000  1.0 -0.0007956551
C  C88  1  0.90832000  0.75751000  0.84476000  1.0 -0.1712042646
C  C89  1  0.05168000  0.75980000  0.85654000  1.0 0.5698854346
C  C90  1  0.97796000  0.59901000  0.94458000  1.0 0.5902208927
C  C91  1  0.81550000  0.91540000  0.75210000  1.0 0.5547424871
C  C92  1  0.77380000  0.14480000  0.70170000  1.0 0.5432968754
C  C93  1  0.78706000  0.02990000  0.72333000  1.0 -0.079312463
C  C94  1  0.74426000  0.08660000  0.71588000  1.0 0.0225354163
C  C95  1  0.67638000  0.08944000  0.72224000  1.0 -0.1575512309
C  C96  1  0.65116000  0.03543000  0.73508000  1.0 0.1848558057
C  C97  1  0.69450000  0.97893000  0.74410000  1.0 -0.1757737342
C  C98  1  0.76334000  0.97570000  0.73852000  1.0 0.008239913
C  C99  1  0.49774000  0.03276000  0.69647000  1.0 0.4512979883
C  C100  1  0.59576000  0.04880000  0.78908000  1.0 0.4512979883
C  C101  1  0.52070000  0.05391000  0.79395000  1.0 -0.060585741
C  C102  1  0.43820000  0.04856000  0.75060000  1.0 0.0379238892
C  C103  1  0.42422000  0.03753000  0.70236000  1.0 -0.0685156137
C  C104  1  0.34304000  0.03240000  0.66047000  1.0 -0.0685156137
C  C105  1  0.27250000  0.03797000  0.66550000  1.0 -0.060585741
C  C106  1  0.28488000  0.04815000  0.71224000  1.0 -0.0404719711
C  C107  1  0.36732000  0.05338000  0.75561000  1.0 0.0482782833
C  C108  1  0.38166000  0.06305000  0.80443000  1.0 -0.0493878639
C  C109  1  0.46264000  0.06800000  0.84587000  1.0 -0.079312463
C  C110  1  0.53260000  0.06370000  0.84110000  1.0 -0.0970826479
C  C111  1  0.30818000  0.06930000  0.81004000  1.0 0.4512979883
C  C112  1  0.21006000  0.05490000  0.71688000  1.0 0.4650588352
C  C113  1  0.15630000  0.07886000  0.77140000  1.0 0.2019327748
C  C114  1  0.12694000  0.13983000  0.76262000  1.0 -0.1575512309
C  C115  1  0.06060000  0.15640000  0.76850000  1.0 0.008239913
C  C116  1  0.02660000  0.11031000  0.78450000  1.0 -0.0970826479
C  C117  1  0.05776000  0.04893000  0.79458000  1.0 -0.0007956551
C  C118  1  0.12224000  0.03288000  0.78697000  1.0 -0.1712042646
C  C119  1  0.02480000  0.22201000  0.75795000  1.0 0.5831060726
C  C120  1  0.02190000  0.00106000  0.81410000  1.0 0.5698854346
C  C121  1  0.09836000  0.63835000  0.24463000  1.0 0.5831060726
C  C122  1  0.07020000  0.56381000  0.08440000  1.0 0.5902208927
C  C123  1  0.21952000  0.64627000  0.23226000  1.0 -0.1510579568
C  C124  1  0.13612000  0.62908000  0.21316000  1.0 0.008239913
C  C125  1  0.08738000  0.60344000  0.16514000  1.0 -0.0938500632
C  C126  1  0.12212000  0.59273000  0.13596000  1.0 0.008239913
C  C127  1  0.20632000  0.60920000  0.15561000  1.0 -0.1575512309
C  C128  1  0.25392000  0.63603000  0.20311000  1.0 0.1900364719
C  C129  1  0.35690000  0.70120000  0.19870000  1.0 0.4447131473
C  C130  1  0.44742000  0.71680000  0.21986000  1.0 -0.060585741
C  C131  1  0.51176000  0.68518000  0.26268000  1.0 0.0311425491
C  C132  1  0.49342000  0.63695000  0.28676000  1.0 -0.0493878639
C  C133  1  0.40344000  0.61980000  0.26647000  1.0 0.4447131473
C  C134  1  0.46742000  0.76400000  0.19766000  1.0 -0.079312463
C  C135  1  0.55180000  0.78090000  0.21780000  1.0 -0.079312463
C  C136  1  0.61632000  0.75103000  0.26021000  1.0 -0.0493878639
C  C137  1  0.59750000  0.70296000  0.28325000  1.0 0.0379238892
C  C138  1  0.66228000  0.67176000  0.32719000  1.0 -0.0493878639
C  C139  1  0.64292000  0.62450000  0.34926000  1.0 -0.079312463
C  C140  1  0.55730000  0.60730000  0.32850000  1.0 -0.079312463
C  C141  1  0.70558000  0.77192000  0.28279000  1.0 0.4512979883
C  C142  1  0.75130000  0.69330000  0.35120000  1.0 0.4512979883
C  C143  1  0.85098000  0.76947000  0.35409000  1.0 0.1900364719
C  C144  1  0.87236000  0.81994000  0.38668000  1.0 -0.1712042646
C  C145  1  0.95376000  0.84495000  0.40998000  1.0 0.0225354163
C  C146  1  0.01214000  0.81926000  0.40032000  1.0 -0.0938500632
C  C147  1  0.98996000  0.76763000  0.36803000  1.0 -0.0007956551
C  C148  1  0.90832000  0.74249000  0.34476000  1.0 -0.1712042646
C  C149  1  0.05168000  0.74020000  0.35654000  1.0 0.5698854346
C  C150  1  0.97796000  0.90099000  0.44458000  1.0 0.5902208927
C  C151  1  0.81550000  0.58460000  0.25210000  1.0 0.5547424871
C  C152  1  0.77380000  0.35520000  0.20170000  1.0 0.5432968754
C  C153  1  0.78706000  0.47010000  0.22333000  1.0 -0.079312463
C  C154  1  0.74426000  0.41340000  0.21588000  1.0 0.0225354163
C  C155  1  0.67638000  0.41056000  0.22224000  1.0 -0.1575512309
C  C156  1  0.65116000  0.46457000  0.23508000  1.0 0.1848558057
C  C157  1  0.69450000  0.52107000  0.24410000  1.0 -0.1757737342
C  C158  1  0.76334000  0.52430000  0.23852000  1.0 0.008239913
C  C159  1  0.49774000  0.46724000  0.19647000  1.0 0.4512979883
C  C160  1  0.59576000  0.45120000  0.28908000  1.0 0.4512979883
C  C161  1  0.52070000  0.44609000  0.29395000  1.0 -0.060585741
C  C162  1  0.43820000  0.45144000  0.25060000  1.0 0.0379238892
C  C163  1  0.42422000  0.46247000  0.20236000  1.0 -0.0685156137
C  C164  1  0.34304000  0.46760000  0.16047000  1.0 -0.0685156137
C  C165  1  0.27250000  0.46203000  0.16550000  1.0 -0.060585741
C  C166  1  0.28488000  0.45185000  0.21224000  1.0 -0.0404719711
C  C167  1  0.36732000  0.44662000  0.25561000  1.0 0.0482782833
C  C168  1  0.38166000  0.43695000  0.30443000  1.0 -0.0493878639
C  C169  1  0.46264000  0.43200000  0.34587000  1.0 -0.079312463
C  C170  1  0.53260000  0.43630000  0.34110000  1.0 -0.0970826479
C  C171  1  0.30818000  0.43070000  0.31004000  1.0 0.4512979883
C  C172  1  0.21006000  0.44510000  0.21688000  1.0 0.4650588352
C  C173  1  0.15630000  0.42114000  0.27140000  1.0 0.2019327748
C  C174  1  0.12694000  0.36017000  0.26262000  1.0 -0.1575512309
C  C175  1  0.06060000  0.34360000  0.26850000  1.0 0.008239913
C  C176  1  0.02660000  0.38969000  0.28450000  1.0 -0.0970826479
C  C177  1  0.05776000  0.45107000  0.29458000  1.0 -0.0007956551
C  C178  1  0.12224000  0.46712000  0.28697000  1.0 -0.1712042646
C  C179  1  0.02480000  0.27799000  0.25795000  1.0 0.5831060726
C  C180  1  0.02190000  0.49894000  0.31410000  1.0 0.5698854346
C  C181  1  0.90164000  0.13835000  0.25537000  1.0 0.5831060726
C  C182  1  0.92980000  0.06381000  0.41560000  1.0 0.5902208927
C  C183  1  0.78048000  0.14627000  0.26774000  1.0 -0.1510579568
C  C184  1  0.86388000  0.12908000  0.28684000  1.0 0.008239913
C  C185  1  0.91262000  0.10344000  0.33486000  1.0 -0.0938500632
C  C186  1  0.87788000  0.09273000  0.36404000  1.0 0.008239913
C  C187  1  0.79368000  0.10920000  0.34439000  1.0 -0.1575512309
C  C188  1  0.74608000  0.13603000  0.29689000  1.0 0.1900364719
C  C189  1  0.64310000  0.20120000  0.30130000  1.0 0.4447131473
C  C190  1  0.55258000  0.21680000  0.28014000  1.0 -0.060585741
C  C191  1  0.48824000  0.18518000  0.23732000  1.0 0.0311425491
C  C192  1  0.50658000  0.13695000  0.21324000  1.0 -0.0493878639
C  C193  1  0.59656000  0.11980000  0.23353000  1.0 0.4447131473
C  C194  1  0.53258000  0.26400000  0.30234000  1.0 -0.079312463
C  C195  1  0.44820000  0.28090000  0.28220000  1.0 -0.079312463
C  C196  1  0.38368000  0.25103000  0.23979000  1.0 -0.0493878639
C  C197  1  0.40250000  0.20296000  0.21675000  1.0 0.0379238892
C  C198  1  0.33772000  0.17176000  0.17281000  1.0 -0.0493878639
C  C199  1  0.35708000  0.12450000  0.15074000  1.0 -0.079312463
C  C200  1  0.44270000  0.10730000  0.17150000  1.0 -0.079312463
C  C201  1  0.29442000  0.27192000  0.21721000  1.0 0.4512979883
C  C202  1  0.24870000  0.19330000  0.14880000  1.0 0.4512979883
C  C203  1  0.14902000  0.26947000  0.14591000  1.0 0.1900364719
C  C204  1  0.12764000  0.31994000  0.11332000  1.0 -0.1712042646
C  C205  1  0.04624000  0.34495000  0.09002000  1.0 0.0225354163
C  C206  1  0.98786000  0.31926000  0.09968000  1.0 -0.0938500632
C  C207  1  0.01004000  0.26763000  0.13197000  1.0 -0.0007956551
C  C208  1  0.09168000  0.24249000  0.15524000  1.0 -0.1712042646
C  C209  1  0.94832000  0.24020000  0.14346000  1.0 0.5698854346
C  C210  1  0.02204000  0.40099000  0.05542000  1.0 0.5902208927
C  C211  1  0.18450000  0.08460000  0.24790000  1.0 0.5547424871
C  C212  1  0.22620000  0.85520000  0.29830000  1.0 0.5432968754
C  C213  1  0.21294000  0.97010000  0.27667000  1.0 -0.079312463
C  C214  1  0.25574000  0.91340000  0.28412000  1.0 0.0225354163
C  C215  1  0.32362000  0.91056000  0.27776000  1.0 -0.1575512309
C  C216  1  0.34884000  0.96457000  0.26492000  1.0 0.1848558057
C  C217  1  0.30550000  0.02107000  0.25590000  1.0 -0.1757737342
C  C218  1  0.23666000  0.02430000  0.26148000  1.0 0.008239913
C  C219  1  0.50226000  0.96724000  0.30353000  1.0 0.4512979883
C  C220  1  0.40424000  0.95120000  0.21092000  1.0 0.4512979883
C  C221  1  0.47930000  0.94609000  0.20605000  1.0 -0.060585741
C  C222  1  0.56180000  0.95144000  0.24940000  1.0 0.0379238892
C  C223  1  0.57578000  0.96247000  0.29764000  1.0 -0.0685156137
C  C224  1  0.65696000  0.96760000  0.33953000  1.0 -0.0685156137
C  C225  1  0.72750000  0.96203000  0.33450000  1.0 -0.060585741
C  C226  1  0.71512000  0.95185000  0.28776000  1.0 -0.0404719711
C  C227  1  0.63268000  0.94662000  0.24439000  1.0 0.0482782833
C  C228  1  0.61834000  0.93695000  0.19557000  1.0 -0.0493878639
C  C229  1  0.53736000  0.93200000  0.15413000  1.0 -0.079312463
C  C230  1  0.46740000  0.93630000  0.15890000  1.0 -0.0970826479
C  C231  1  0.69182000  0.93070000  0.18996000  1.0 0.4512979883
C  C232  1  0.78994000  0.94510000  0.28312000  1.0 0.4650588352
C  C233  1  0.84370000  0.92114000  0.22860000  1.0 0.2019327748
C  C234  1  0.87306000  0.86017000  0.23738000  1.0 -0.1575512309
C  C235  1  0.93940000  0.84360000  0.23150000  1.0 0.008239913
C  C236  1  0.97340000  0.88969000  0.21550000  1.0 -0.0970826479
C  C237  1  0.94224000  0.95107000  0.20542000  1.0 -0.0007956551
C  C238  1  0.87776000  0.96712000  0.21303000  1.0 -0.1712042646
C  C239  1  0.97520000  0.77799000  0.24205000  1.0 0.5831060726
C  C240  1  0.97810000  0.99894000  0.18590000  1.0 0.5698854346
C  C241  1  0.70580000  0.06600000  0.10960000  1.0 -0.2809749228
C  C242  1  0.77810000  0.08450000  0.06310000  1.0 -0.2809749228
C  C243  1  0.00860000  0.09270000  0.08470000  1.0 -0.2896860373
C  C244  1  0.13270000  0.02270000  0.11310000  1.0 -0.2809749228
C  C245  1  0.29420000  0.56600000  0.39040000  1.0 -0.2809749228
C  C246  1  0.22190000  0.58450000  0.43690000  1.0 -0.2809749228
C  C247  1  0.99140000  0.59270000  0.41530000  1.0 -0.2896860373
C  C248  1  0.86730000  0.52270000  0.38690000  1.0 -0.2809749228
C  C249  1  0.29420000  0.93400000  0.89040000  1.0 -0.2809749228
C  C250  1  0.22190000  0.91550000  0.93690000  1.0 -0.2809749228
C  C251  1  0.99140000  0.90730000  0.91530000  1.0 -0.2896860373
C  C252  1  0.86730000  0.97730000  0.88690000  1.0 -0.2809749228
C  C253  1  0.70580000  0.43400000  0.60960000  1.0 -0.2809749228
C  C254  1  0.77810000  0.41550000  0.56310000  1.0 -0.2809749228
C  C255  1  0.00860000  0.40730000  0.58470000  1.0 -0.2896860373
C  C256  1  0.13270000  0.47730000  0.61310000  1.0 -0.2809749228
N  N1  1  0.65846000  0.34790000  0.77698000  1.0 -0.2203017711
N  N2  1  0.23490000  0.25518000  0.67140000  1.0 -0.2148901355
N  N3  1  0.42128000  0.53827000  0.75939000  1.0 -0.2278420013
N  N4  1  0.77262000  0.56388000  0.73366000  1.0 -0.2203017711
N  N5  1  0.34154000  0.84790000  0.72302000  1.0 -0.2148901355
N  N6  1  0.76510000  0.75518000  0.82860000  1.0 -0.2148901355
N  N7  1  0.57872000  0.03827000  0.74061000  1.0 -0.2278420013
N  N8  1  0.22738000  0.06388000  0.76634000  1.0 -0.2203017711
N  N9  1  0.34154000  0.65210000  0.22302000  1.0 -0.2203017711
N  N10  1  0.76510000  0.74482000  0.32860000  1.0 -0.2148901355
N  N11  1  0.57872000  0.46173000  0.24061000  1.0 -0.2278420013
N  N12  1  0.22738000  0.43612000  0.26634000  1.0 -0.2203017711
N  N13  1  0.65846000  0.15210000  0.27698000  1.0 -0.2203017711
N  N14  1  0.23490000  0.24482000  0.17140000  1.0 -0.2148901355
N  N15  1  0.42128000  0.96173000  0.25939000  1.0 -0.2278420013
N  N16  1  0.77262000  0.93612000  0.23366000  1.0 -0.2203017711
N  N17  1  0.77580000  0.09780000  0.10830000  1.0 -0.0970826479
N  N18  1  0.08060000  0.05920000  0.12610000  1.0 -0.1202724036
N  N19  1  0.22420000  0.59780000  0.39170000  1.0 -0.0970826479
N  N20  1  0.91940000  0.55920000  0.37390000  1.0 -0.1202724036
N  N21  1  0.22420000  0.90220000  0.89170000  1.0 -0.0970826479
N  N22  1  0.91940000  0.94080000  0.87390000  1.0 -0.1202724036
N  N23  1  0.77580000  0.40220000  0.60830000  1.0 -0.0970826479
N  N24  1  0.08060000  0.44080000  0.62610000  1.0 -0.1202724036
Cl  Cl1  1  0.22792000  0.02735000  0.52005000  1.0 -0.530698577
Cl  Cl2  1  0.77208000  0.52735000  0.97995000  1.0 -0.530698577
Cl  Cl3  1  0.77208000  0.97265000  0.47995000  1.0 -0.530698577
Cl  Cl4  1  0.22792000  0.47265000  0.02005000  1.0 -0.530698577
O  O1  1  0.97788000  0.37745000  0.77487000  1.0 -0.4987287097
O  O2  1  0.85531000  0.34054000  0.71130000  1.0 -0.5608781037
O  O3  1  0.00777000  0.44223000  0.93407000  1.0 -0.5079354394
O  O4  1  0.88954000  0.45179000  0.93554000  1.0 -0.5473466721
O  O5  1  0.70088000  0.27310000  0.83774000  1.0 -0.3875848633
O  O6  1  0.61572000  0.41900000  0.71291000  1.0 -0.4160671216
O  O7  1  0.27415000  0.18858000  0.73700000  1.0 -0.4120546313
O  O8  1  0.19068000  0.33057000  0.61054000  1.0 -0.4120546313
O  O9  1  0.07364000  0.08316000  0.54337000  1.0 -0.5473466721
O  O10  1  0.95217000  0.07305000  0.54088000  1.0 -0.5079354394
O  O11  1  0.95643000  0.31796000  0.65475000  1.0 -0.5778786224
O  O12  1  0.89345000  0.22442000  0.64129000  1.0 -0.4858531933
O  O13  1  0.13540000  0.41097000  0.76345000  1.0 -0.530698577
O  O14  1  0.19062000  0.37770000  0.72051000  1.0 -0.5608781037
O  O15  1  0.18924000  0.63807000  0.82192000  1.0 -0.4987287097
O  O16  1  0.23900000  0.69826000  0.78675000  1.0 -0.530698577
O  O17  1  0.50908000  0.52358000  0.84363000  1.0 -0.3646958452
O  O18  1  0.33162000  0.55340000  0.67471000  1.0 -0.4011041206
O  O19  1  0.86224000  0.55146000  0.81841000  1.0 -0.3676369917
O  O20  1  0.68278000  0.57800000  0.64899000  1.0 -0.4120546313
O  O21  1  0.93230000  0.76558000  0.74566000  1.0 -0.5473466721
O  O22  1  0.04600000  0.72942000  0.74705000  1.0 -0.530698577
O  O23  1  0.95642000  0.44439000  0.68376000  1.0 -0.5695691985
O  O24  1  0.02486000  0.52151000  0.67133000  1.0 -0.5473466721
O  O25  1  0.71500000  0.27930000  0.61275000  1.0 -0.4987287097
O  O26  1  0.02212000  0.87745000  0.72513000  1.0 -0.4987287097
O  O27  1  0.14469000  0.84054000  0.78870000  1.0 -0.5608781037
O  O28  1  0.99223000  0.94223000  0.56593000  1.0 -0.5079354394
O  O29  1  0.11046000  0.95179000  0.56446000  1.0 -0.5473466721
O  O30  1  0.29912000  0.77310000  0.66226000  1.0 -0.3875848633
O  O31  1  0.38428000  0.91900000  0.78709000  1.0 -0.4160671216
O  O32  1  0.72585000  0.68858000  0.76300000  1.0 -0.4120546313
O  O33  1  0.80932000  0.83057000  0.88946000  1.0 -0.4120546313
O  O34  1  0.92636000  0.58316000  0.95663000  1.0 -0.5473466721
O  O35  1  0.04783000  0.57305000  0.95912000  1.0 -0.5079354394
O  O36  1  0.04357000  0.81796000  0.84525000  1.0 -0.5778786224
O  O37  1  0.10655000  0.72442000  0.85871000  1.0 -0.4858531933
O  O38  1  0.86460000  0.91097000  0.73655000  1.0 -0.530698577
O  O39  1  0.80938000  0.87770000  0.77949000  1.0 -0.5608781037
O  O40  1  0.81076000  0.13807000  0.67808000  1.0 -0.4987287097
O  O41  1  0.76100000  0.19826000  0.71325000  1.0 -0.530698577
O  O42  1  0.49092000  0.02358000  0.65637000  1.0 -0.3646958452
O  O43  1  0.66838000  0.05340000  0.82529000  1.0 -0.4011041206
O  O44  1  0.13776000  0.05146000  0.68159000  1.0 -0.3676369917
O  O45  1  0.31722000  0.07800000  0.85101000  1.0 -0.4120546313
O  O46  1  0.06770000  0.26558000  0.75434000  1.0 -0.5473466721
O  O47  1  0.95400000  0.22942000  0.75295000  1.0 -0.530698577
O  O48  1  0.04358000  0.94439000  0.81624000  1.0 -0.5695691985
O  O49  1  0.97514000  0.02151000  0.82867000  1.0 -0.5473466721
O  O50  1  0.28500000  0.77930000  0.88725000  1.0 -0.5079354394
O  O51  1  0.02212000  0.62255000  0.22513000  1.0 -0.4987287097
O  O52  1  0.14469000  0.65946000  0.28870000  1.0 -0.5608781037
O  O53  1  0.99223000  0.55777000  0.06593000  1.0 -0.5079354394
O  O54  1  0.11046000  0.54821000  0.06446000  1.0 -0.5473466721
O  O55  1  0.29912000  0.72690000  0.16226000  1.0 -0.3875848633
O  O56  1  0.38428000  0.58100000  0.28709000  1.0 -0.4160671216
O  O57  1  0.72585000  0.81142000  0.26300000  1.0 -0.4120546313
O  O58  1  0.80932000  0.66943000  0.38946000  1.0 -0.4120546313
O  O59  1  0.92636000  0.91684000  0.45663000  1.0 -0.5473466721
O  O60  1  0.04783000  0.92695000  0.45912000  1.0 -0.5079354394
O  O61  1  0.04357000  0.68204000  0.34525000  1.0 -0.5778786224
O  O62  1  0.10655000  0.77558000  0.35871000  1.0 -0.4858531933
O  O63  1  0.86460000  0.58903000  0.23655000  1.0 -0.530698577
O  O64  1  0.80938000  0.62230000  0.27949000  1.0 -0.5608781037
O  O65  1  0.81076000  0.36193000  0.17808000  1.0 -0.4987287097
O  O66  1  0.76100000  0.30174000  0.21325000  1.0 -0.530698577
O  O67  1  0.49092000  0.47642000  0.15637000  1.0 -0.3646958452
O  O68  1  0.66838000  0.44660000  0.32529000  1.0 -0.4011041206
O  O69  1  0.13776000  0.44854000  0.18159000  1.0 -0.3676369917
O  O70  1  0.31722000  0.42200000  0.35101000  1.0 -0.4120546313
O  O71  1  0.06770000  0.23442000  0.25434000  1.0 -0.5473466721
O  O72  1  0.95400000  0.27058000  0.25295000  1.0 -0.530698577
O  O73  1  0.04358000  0.55561000  0.31624000  1.0 -0.5695691985
O  O74  1  0.97514000  0.47849000  0.32867000  1.0 -0.5473466721
O  O75  1  0.28500000  0.72070000  0.38725000  1.0 -0.4987287097
O  O76  1  0.97788000  0.12255000  0.27487000  1.0 -0.4987287097
O  O77  1  0.85531000  0.15946000  0.21130000  1.0 -0.5608781037
O  O78  1  0.00777000  0.05777000  0.43407000  1.0 -0.5079354394
O  O79  1  0.88954000  0.04821000  0.43554000  1.0 -0.5473466721
O  O80  1  0.70088000  0.22690000  0.33774000  1.0 -0.3875848633
O  O81  1  0.61572000  0.08100000  0.21291000  1.0 -0.4160671216
O  O82  1  0.27415000  0.31142000  0.23700000  1.0 -0.4120546313
O  O83  1  0.19068000  0.16943000  0.11054000  1.0 -0.4120546313
O  O84  1  0.07364000  0.41684000  0.04337000  1.0 -0.5473466721
O  O85  1  0.95217000  0.42695000  0.04088000  1.0 -0.5079354394
O  O86  1  0.95643000  0.18204000  0.15475000  1.0 -0.5778786224
O  O87  1  0.89345000  0.27558000  0.14129000  1.0 -0.4858531933
O  O88  1  0.13540000  0.08903000  0.26345000  1.0 -0.530698577
O  O89  1  0.19062000  0.12230000  0.22051000  1.0 -0.5608781037
O  O90  1  0.18924000  0.86193000  0.32192000  1.0 -0.4987287097
O  O91  1  0.23900000  0.80174000  0.28675000  1.0 -0.530698577
O  O92  1  0.50908000  0.97642000  0.34363000  1.0 -0.3646958452
O  O93  1  0.33162000  0.94660000  0.17471000  1.0 -0.4011041206
O  O94  1  0.86224000  0.94854000  0.31841000  1.0 -0.3676369917
O  O95  1  0.68278000  0.92200000  0.14899000  1.0 -0.4120546313
O  O96  1  0.93230000  0.73442000  0.24566000  1.0 -0.5473466721
O  O97  1  0.04600000  0.77058000  0.24705000  1.0 -0.530698577
O  O98  1  0.95642000  0.05561000  0.18376000  1.0 -0.5695691985
O  O99  1  0.02486000  0.97849000  0.17133000  1.0 -0.5473466721
O  O100  1  0.71500000  0.22070000  0.11275000  1.0 -0.4987287097
