# DDEC6 charges by PACMAN v1.1 (https://github.com/mtap-research/PACMAN-charge/)
data_RERVOC_ion_pacman
_symmetry_space_group_name_H-M   'P 1'
_cell_length_a   31.46520000
_cell_length_b   21.18680000
_cell_length_c   33.75910000
_cell_angle_alpha   90.00000000
_cell_angle_beta   109.05300000
_cell_angle_gamma   90.00000000
_symmetry_Int_Tables_number   1
_chemical_formula_structural   Mn3H28C62N5ClO25
_chemical_formula_sum   'Mn24 H224 C496 N40 Cl8 O200'
_cell_volume   21272.48633160
_cell_formula_units_Z   8
loop_
 _symmetry_equiv_pos_site_id
 _symmetry_equiv_pos_as_xyz
  1  'x, y, z'
loop_
 _atom_site_type_symbol
 _atom_site_label
 _atom_site_symmetry_multiplicity
 _atom_site_fract_x
 _atom_site_fract_y
 _atom_site_fract_z
 _atom_site_occupancy
 _atom_site_charge
Mn  Mn1  1  0.49529000  0.78850000  0.70466000  1.0 1.1060378123
Mn  Mn2  1  0.53585000  0.67399000  0.80611000  1.0 1.1043749222
Mn  Mn3  1  0.79007000  0.01792000  0.78610000  1.0 1.0058620044
Mn  Mn4  1  0.70946000  0.49774000  0.19684000  1.0 1.0201808282
Mn  Mn5  1  0.99607000  0.73315000  0.32789000  1.0 1.0830188462
Mn  Mn6  1  0.03077000  0.33976000  0.26439000  1.0 1.0384281942
Mn  Mn7  1  0.50471000  0.28850000  0.79534000  1.0 1.1060378123
Mn  Mn8  1  0.46415000  0.17399000  0.69389000  1.0 1.1043749222
Mn  Mn9  1  0.20993000  0.51792000  0.71390000  1.0 1.0058620044
Mn  Mn10  1  0.29054000  0.99774000  0.30316000  1.0 1.0201808282
Mn  Mn11  1  0.00393000  0.23315000  0.17211000  1.0 1.0830188462
Mn  Mn12  1  0.96923000  0.83976000  0.23561000  1.0 1.0384281942
Mn  Mn13  1  0.50471000  0.21150000  0.29534000  1.0 1.1060378123
Mn  Mn14  1  0.46415000  0.32601000  0.19389000  1.0 1.1043749222
Mn  Mn15  1  0.20993000  0.98208000  0.21390000  1.0 1.0058620044
Mn  Mn16  1  0.29054000  0.50226000  0.80316000  1.0 1.0201808282
Mn  Mn17  1  0.00393000  0.26685000  0.67211000  1.0 1.0830188462
Mn  Mn18  1  0.96923000  0.66024000  0.73561000  1.0 1.0384281942
Mn  Mn19  1  0.49529000  0.71150000  0.20466000  1.0 1.1043749222
Mn  Mn20  1  0.53585000  0.82601000  0.30611000  1.0 1.1043749222
Mn  Mn21  1  0.79007000  0.48208000  0.28610000  1.0 1.0058620044
Mn  Mn22  1  0.70946000  0.00226000  0.69684000  1.0 1.0201808282
Mn  Mn23  1  0.99607000  0.76685000  0.82789000  1.0 1.0830188462
Mn  Mn24  1  0.03077000  0.16024000  0.76439000  1.0 1.0384281942
H  H1  1  0.53303000  0.53064000  0.74306000  1.0 0.1412984272
H  H2  1  0.43055000  0.61489000  0.65383000  1.0 0.1564120718
H  H3  1  0.43088000  0.42453000  0.66579000  1.0 0.1485440327
H  H4  1  0.36391000  0.52768000  0.49937000  1.0 0.1299465397
H  H5  1  0.29315000  0.53366000  0.44583000  1.0 0.1299465397
H  H6  1  0.19147000  0.52527000  0.58429000  1.0 0.1485440327
H  H7  1  0.26028000  0.51936000  0.63775000  1.0 0.1299465397
H  H8  1  0.14255000  0.43035000  0.41213000  1.0 0.1412984272
H  H9  1  0.02804000  0.50602000  0.33725000  1.0 0.1245163002
H  H10  1  0.10921000  0.60984000  0.43144000  1.0 0.1412984272
H  H11  1  0.44567000  0.95308000  0.66128000  1.0 0.1485440327
H  H12  1  0.34526000  0.06657000  0.59288000  1.0 0.1412984272
H  H13  1  0.33762000  0.87803000  0.57148000  1.0 0.1299465397
H  H14  1  0.28514000  0.98689000  0.42204000  1.0 0.1485440327
H  H15  1  0.21991000  0.00533000  0.36562000  1.0 0.1299465397
H  H16  1  0.10730000  0.04437000  0.49376000  1.0 0.1412984272
H  H17  1  0.17169000  0.02490000  0.55056000  1.0 0.1299465397
H  H18  1  0.03089000  0.97236000  0.33148000  1.0 0.1485440327
H  H19  1  0.95879000  0.09889000  0.24622000  1.0 0.1412984272
H  H20  1  0.07572000  0.15291000  0.33419000  1.0 0.1485440327
H  H21  1  0.63023000  0.86984000  0.74828000  1.0 0.1485440327
H  H22  1  0.63203000  0.77760000  0.85443000  1.0 0.1485440327
H  H23  1  0.73621000  0.89059000  0.85499000  1.0 0.1412984272
H  H24  1  0.80227000  0.68496000  0.95072000  1.0 0.1412984272
H  H25  1  0.83633000  0.66175000  0.02156000  1.0 0.1299465397
H  H26  1  0.71609000  0.87681000  0.07041000  1.0 0.1299465397
H  H27  1  0.67705000  0.89253000  0.99843000  1.0 0.1299465397
H  H28  1  0.77553000  0.64709000  0.14857000  1.0 0.1412984272
H  H29  1  0.85679000  0.65573000  0.26855000  1.0 0.1412984272
H  H30  1  0.87120000  0.78134000  0.18345000  1.0 0.1412984272
H  H31  1  0.88658000  0.38507000  0.23311000  1.0 0.1299465397
H  H32  1  0.77179000  0.37229000  0.13457000  1.0 0.1412984272
H  H33  1  0.88838000  0.30402000  0.12508000  1.0 0.1485440327
H  H34  1  0.82362000  0.38016000  0.97939000  1.0 0.1299465397
H  H35  1  0.78292000  0.35327000  0.90996000  1.0 0.1412984272
H  H36  1  0.66463000  0.15811000  0.97863000  1.0 0.1299465397
H  H37  1  0.70350000  0.18964000  0.04742000  1.0 0.1412984272
H  H38  1  0.72219000  0.15045000  0.83411000  1.0 0.1412984272
H  H39  1  0.61732000  0.14193000  0.72479000  1.0 0.1485440327
H  H40  1  0.60756000  0.24406000  0.82363000  1.0 0.1485440327
H  H41  1  0.86087000  0.89241000  0.19421000  1.0 0.2597231088
H  H42  1  0.87121000  0.94474000  0.22445000  1.0 0.2597231088
H  H43  1  0.81683000  0.91894000  0.24995000  1.0 0.1299465397
H  H44  1  0.79787000  0.86862000  0.21302000  1.0 0.1245163002
H  H45  1  0.84490000  0.85628000  0.24903000  1.0 0.1299465397
H  H46  1  0.80243000  0.93781000  0.15082000  1.0 0.1299465397
H  H47  1  0.79843000  0.98440000  0.18676000  1.0 0.1299465397
H  H48  1  0.83773000  0.99418000  0.16692000  1.0 0.1299465397
H  H49  1  0.46697000  0.03064000  0.75694000  1.0 0.1412984272
H  H50  1  0.56945000  0.11489000  0.84617000  1.0 0.1564120718
H  H51  1  0.56912000  0.92453000  0.83421000  1.0 0.1485440327
H  H52  1  0.63609000  0.02768000  0.00063000  1.0 0.1299465397
H  H53  1  0.70685000  0.03366000  0.05417000  1.0 0.1299465397
H  H54  1  0.80853000  0.02527000  0.91571000  1.0 0.1485440327
H  H55  1  0.73972000  0.01936000  0.86225000  1.0 0.1299465397
H  H56  1  0.85745000  0.93035000  0.08787000  1.0 0.1412984272
H  H57  1  0.97196000  0.00602000  0.16275000  1.0 0.1245163002
H  H58  1  0.89079000  0.10984000  0.06856000  1.0 0.1412984272
H  H59  1  0.55433000  0.45308000  0.83872000  1.0 0.1485440327
H  H60  1  0.65474000  0.56657000  0.90712000  1.0 0.1412984272
H  H61  1  0.66238000  0.37803000  0.92852000  1.0 0.1299465397
H  H62  1  0.71486000  0.48689000  0.07796000  1.0 0.1485440327
H  H63  1  0.78009000  0.50533000  0.13438000  1.0 0.1299465397
H  H64  1  0.89270000  0.54437000  0.00624000  1.0 0.1412984272
H  H65  1  0.82831000  0.52490000  0.94944000  1.0 0.1299465397
H  H66  1  0.96911000  0.47236000  0.16852000  1.0 0.1485440327
H  H67  1  0.04121000  0.59889000  0.25378000  1.0 0.1412984272
H  H68  1  0.92428000  0.65291000  0.16581000  1.0 0.1485440327
H  H69  1  0.36977000  0.36984000  0.75172000  1.0 0.1485440327
H  H70  1  0.36797000  0.27760000  0.64557000  1.0 0.1485440327
H  H71  1  0.26379000  0.39059000  0.64501000  1.0 0.1412984272
H  H72  1  0.19773000  0.18496000  0.54928000  1.0 0.1412984272
H  H73  1  0.16367000  0.16175000  0.47844000  1.0 0.1299465397
H  H74  1  0.28391000  0.37681000  0.42959000  1.0 0.1299465397
H  H75  1  0.32295000  0.39253000  0.50157000  1.0 0.1245163002
H  H76  1  0.22447000  0.14709000  0.35143000  1.0 0.1412984272
H  H77  1  0.14321000  0.15573000  0.23145000  1.0 0.1412984272
H  H78  1  0.12880000  0.28134000  0.31655000  1.0 0.1412984272
H  H79  1  0.11342000  0.88507000  0.26689000  1.0 0.1299465397
H  H80  1  0.22821000  0.87229000  0.36543000  1.0 0.1412984272
H  H81  1  0.11162000  0.80402000  0.37492000  1.0 0.1485440327
H  H82  1  0.17638000  0.88016000  0.52061000  1.0 0.1299465397
H  H83  1  0.21708000  0.85327000  0.59004000  1.0 0.1412984272
H  H84  1  0.33537000  0.65811000  0.52137000  1.0 0.1299465397
H  H85  1  0.29650000  0.68964000  0.45258000  1.0 0.1412984272
H  H86  1  0.27781000  0.65045000  0.66589000  1.0 0.1412984272
H  H87  1  0.38268000  0.64193000  0.77521000  1.0 0.1485440327
H  H88  1  0.39244000  0.74406000  0.67637000  1.0 0.1485440327
H  H89  1  0.13913000  0.39241000  0.30579000  1.0 0.2597231088
H  H90  1  0.12879000  0.44474000  0.27555000  1.0 0.2597231088
H  H91  1  0.18317000  0.41894000  0.25005000  1.0 0.1245163002
H  H92  1  0.20213000  0.36862000  0.28698000  1.0 0.1245163002
H  H93  1  0.15510000  0.35628000  0.25097000  1.0 0.1299465397
H  H94  1  0.19757000  0.43781000  0.34918000  1.0 0.1299465397
H  H95  1  0.20157000  0.48440000  0.31324000  1.0 0.1299465397
H  H96  1  0.16227000  0.49418000  0.33308000  1.0 0.1299465397
H  H97  1  0.46697000  0.46936000  0.25694000  1.0 0.1412984272
H  H98  1  0.56945000  0.38511000  0.34617000  1.0 0.1564120718
H  H99  1  0.56912000  0.57547000  0.33421000  1.0 0.1485440327
H  H100  1  0.63609000  0.47232000  0.50063000  1.0 0.1299465397
H  H101  1  0.70685000  0.46634000  0.55417000  1.0 0.1299465397
H  H102  1  0.80853000  0.47473000  0.41571000  1.0 0.1485440327
H  H103  1  0.73972000  0.48064000  0.36225000  1.0 0.1299465397
H  H104  1  0.85745000  0.56965000  0.58787000  1.0 0.1412984272
H  H105  1  0.97196000  0.49398000  0.66275000  1.0 0.1245163002
H  H106  1  0.89079000  0.39016000  0.56856000  1.0 0.1412984272
H  H107  1  0.55433000  0.04692000  0.33872000  1.0 0.1485440327
H  H108  1  0.65474000  0.93343000  0.40712000  1.0 0.1412984272
H  H109  1  0.66238000  0.12197000  0.42852000  1.0 0.1299465397
H  H110  1  0.71486000  0.01311000  0.57796000  1.0 0.1485440327
H  H111  1  0.78009000  0.99467000  0.63438000  1.0 0.1299465397
H  H112  1  0.89270000  0.95563000  0.50624000  1.0 0.1412984272
H  H113  1  0.82831000  0.97510000  0.44944000  1.0 0.1299465397
H  H114  1  0.96911000  0.02764000  0.66852000  1.0 0.1485440327
H  H115  1  0.04121000  0.90111000  0.75378000  1.0 0.1412984272
H  H116  1  0.92428000  0.84709000  0.66581000  1.0 0.1485440327
H  H117  1  0.36977000  0.13016000  0.25172000  1.0 0.1485440327
H  H118  1  0.36797000  0.22240000  0.14557000  1.0 0.1485440327
H  H119  1  0.26379000  0.10941000  0.14501000  1.0 0.1412984272
H  H120  1  0.19773000  0.31504000  0.04928000  1.0 0.1412984272
H  H121  1  0.16367000  0.33825000  0.97844000  1.0 0.1299465397
H  H122  1  0.28391000  0.12319000  0.92959000  1.0 0.1299465397
H  H123  1  0.32295000  0.10747000  0.00157000  1.0 0.1299465397
H  H124  1  0.22447000  0.35291000  0.85143000  1.0 0.1412984272
H  H125  1  0.14321000  0.34427000  0.73145000  1.0 0.1412984272
H  H126  1  0.12880000  0.21866000  0.81655000  1.0 0.1412984272
H  H127  1  0.11342000  0.61493000  0.76689000  1.0 0.1299465397
H  H128  1  0.22821000  0.62771000  0.86543000  1.0 0.1485440327
H  H129  1  0.11162000  0.69598000  0.87492000  1.0 0.1485440327
H  H130  1  0.17638000  0.61984000  0.02061000  1.0 0.1299465397
H  H131  1  0.21708000  0.64673000  0.09004000  1.0 0.1412984272
H  H132  1  0.33537000  0.84189000  0.02137000  1.0 0.1299465397
H  H133  1  0.29650000  0.81036000  0.95258000  1.0 0.1412984272
H  H134  1  0.27781000  0.84955000  0.16589000  1.0 0.1412984272
H  H135  1  0.38268000  0.85807000  0.27521000  1.0 0.1485440327
H  H136  1  0.39244000  0.75594000  0.17637000  1.0 0.1485440327
H  H137  1  0.13913000  0.10759000  0.80579000  1.0 0.2597231088
H  H138  1  0.12879000  0.05526000  0.77555000  1.0 0.2597231088
H  H139  1  0.18317000  0.08106000  0.75005000  1.0 0.1299465397
H  H140  1  0.20213000  0.13138000  0.78698000  1.0 0.1299465397
H  H141  1  0.15510000  0.14372000  0.75097000  1.0 0.1299465397
H  H142  1  0.19757000  0.06219000  0.84918000  1.0 0.1299465397
H  H143  1  0.20157000  0.01560000  0.81324000  1.0 0.1299465397
H  H144  1  0.16227000  0.00582000  0.83308000  1.0 0.1299465397
H  H145  1  0.53303000  0.96936000  0.24306000  1.0 0.1412984272
H  H146  1  0.43055000  0.88511000  0.15383000  1.0 0.1564120718
H  H147  1  0.43088000  0.07547000  0.16579000  1.0 0.1485440327
H  H148  1  0.36391000  0.97232000  0.99937000  1.0 0.1299465397
H  H149  1  0.29315000  0.96634000  0.94583000  1.0 0.1299465397
H  H150  1  0.19147000  0.97473000  0.08429000  1.0 0.1485440327
H  H151  1  0.26028000  0.98064000  0.13775000  1.0 0.1299465397
H  H152  1  0.14255000  0.06965000  0.91213000  1.0 0.1412984272
H  H153  1  0.02804000  0.99398000  0.83725000  1.0 0.1245163002
H  H154  1  0.10921000  0.89016000  0.93144000  1.0 0.1412984272
H  H155  1  0.44567000  0.54692000  0.16128000  1.0 0.1485440327
H  H156  1  0.34526000  0.43343000  0.09288000  1.0 0.1412984272
H  H157  1  0.33762000  0.62197000  0.07148000  1.0 0.1299465397
H  H158  1  0.28514000  0.51311000  0.92204000  1.0 0.1485440327
H  H159  1  0.21991000  0.49467000  0.86562000  1.0 0.1299465397
H  H160  1  0.10730000  0.45563000  0.99376000  1.0 0.1412984272
H  H161  1  0.17169000  0.47510000  0.05056000  1.0 0.1299465397
H  H162  1  0.03089000  0.52764000  0.83148000  1.0 0.1485440327
H  H163  1  0.95879000  0.40111000  0.74622000  1.0 0.1412984272
H  H164  1  0.07572000  0.34709000  0.83419000  1.0 0.1485440327
H  H165  1  0.63023000  0.63016000  0.24828000  1.0 0.1485440327
H  H166  1  0.63203000  0.72240000  0.35443000  1.0 0.1485440327
H  H167  1  0.73621000  0.60941000  0.35499000  1.0 0.1412984272
H  H168  1  0.80227000  0.81504000  0.45072000  1.0 0.1412984272
H  H169  1  0.83633000  0.83825000  0.52156000  1.0 0.1299465397
H  H170  1  0.71609000  0.62319000  0.57041000  1.0 0.1299465397
H  H171  1  0.67705000  0.60747000  0.49843000  1.0 0.1299465397
H  H172  1  0.77553000  0.85291000  0.64857000  1.0 0.1412984272
H  H173  1  0.85679000  0.84427000  0.76855000  1.0 0.1412984272
H  H174  1  0.87120000  0.71866000  0.68345000  1.0 0.1412984272
H  H175  1  0.88658000  0.11493000  0.73311000  1.0 0.1299465397
H  H176  1  0.77179000  0.12771000  0.63457000  1.0 0.1412984272
H  H177  1  0.88838000  0.19598000  0.62508000  1.0 0.1485440327
H  H178  1  0.82362000  0.11984000  0.47939000  1.0 0.1299465397
H  H179  1  0.78292000  0.14673000  0.40996000  1.0 0.1412984272
H  H180  1  0.66463000  0.34189000  0.47863000  1.0 0.1299465397
H  H181  1  0.70350000  0.31036000  0.54742000  1.0 0.1412984272
H  H182  1  0.72219000  0.34955000  0.33411000  1.0 0.1412984272
H  H183  1  0.61732000  0.35807000  0.22479000  1.0 0.1485440327
H  H184  1  0.60756000  0.25594000  0.32363000  1.0 0.1485440327
H  H185  1  0.86087000  0.60759000  0.69421000  1.0 0.2597231088
H  H186  1  0.87121000  0.55526000  0.72445000  1.0 0.2597231088
H  H187  1  0.81683000  0.58106000  0.74995000  1.0 0.1299465397
H  H188  1  0.79787000  0.63138000  0.71302000  1.0 0.1299465397
H  H189  1  0.84490000  0.64372000  0.74903000  1.0 0.1299465397
H  H190  1  0.80243000  0.56219000  0.65082000  1.0 0.1299465397
H  H191  1  0.79843000  0.51560000  0.68676000  1.0 0.1299465397
H  H192  1  0.83773000  0.50582000  0.66692000  1.0 0.1299465397
H  H193  1  0.94751000  0.96252000  0.82734000  1.0 0.2735214674
H  H194  1  0.89953000  0.97842000  0.81492000  1.0 0.2597231088
H  H195  1  0.91471000  0.08756000  0.80354000  1.0 0.1485440327
H  H196  1  0.96702000  0.07018000  0.81722000  1.0 0.1412984272
H  H197  1  0.94123000  0.06788000  0.85096000  1.0 0.1412984272
H  H198  1  0.94538000  0.98852000  0.76035000  1.0 0.1412984272
H  H199  1  0.89194000  0.98741000  0.74957000  1.0 0.1485440327
H  H200  1  0.92066000  0.92461000  0.76563000  1.0 0.1412984272
H  H201  1  0.05249000  0.46252000  0.67266000  1.0 0.2735214674
H  H202  1  0.10047000  0.47842000  0.68508000  1.0 0.2597231088
H  H203  1  0.08529000  0.58756000  0.69646000  1.0 0.1485440327
H  H204  1  0.03298000  0.57018000  0.68278000  1.0 0.1412984272
H  H205  1  0.05877000  0.56788000  0.64904000  1.0 0.1412984272
H  H206  1  0.05462000  0.48852000  0.73965000  1.0 0.1412984272
H  H207  1  0.10806000  0.48741000  0.75043000  1.0 0.1485440327
H  H208  1  0.07934000  0.42461000  0.73437000  1.0 0.1412984272
H  H209  1  0.05249000  0.03748000  0.17266000  1.0 0.2735214674
H  H210  1  0.10047000  0.02158000  0.18508000  1.0 0.2597231088
H  H211  1  0.08529000  0.91244000  0.19646000  1.0 0.1485440327
H  H212  1  0.03298000  0.92982000  0.18278000  1.0 0.1412984272
H  H213  1  0.05877000  0.93212000  0.14904000  1.0 0.1412984272
H  H214  1  0.05462000  0.01148000  0.23965000  1.0 0.1412984272
H  H215  1  0.10806000  0.01259000  0.25043000  1.0 0.1485440327
H  H216  1  0.07934000  0.07539000  0.23437000  1.0 0.1412984272
H  H217  1  0.94751000  0.53748000  0.32734000  1.0 0.2735214674
H  H218  1  0.89953000  0.52158000  0.31492000  1.0 0.2597231088
H  H219  1  0.91471000  0.41244000  0.30354000  1.0 0.1485440327
H  H220  1  0.96702000  0.42982000  0.31722000  1.0 0.1412984272
H  H221  1  0.94123000  0.43212000  0.35096000  1.0 0.1412984272
H  H222  1  0.94538000  0.51148000  0.26035000  1.0 0.1412984272
H  H223  1  0.89194000  0.51259000  0.24957000  1.0 0.1485440327
H  H224  1  0.92066000  0.57539000  0.26563000  1.0 0.1412984272
C  C1  1  0.50580000  0.64470000  0.71170000  1.0 0.5892863555
C  C2  1  0.51010000  0.41340000  0.72430000  1.0 0.4911354625
C  C3  1  0.48610000  0.47030000  0.70650000  1.0 -0.0204599697
C  C4  1  0.50580000  0.52780000  0.72010000  1.0 -0.079280103
C  C5  1  0.48470000  0.58140000  0.69920000  1.0 0.0030592421
C  C6  1  0.44470000  0.57770000  0.66760000  1.0 -0.1390089427
C  C7  1  0.42510000  0.52020000  0.65580000  1.0 0.1918284688
C  C8  1  0.44470000  0.46440000  0.67430000  1.0 -0.1390089427
C  C9  1  0.38280000  0.51960000  0.58130000  1.0 0.4494876905
C  C10  1  0.33890000  0.52340000  0.54870000  1.0 -0.057598505
C  C11  1  0.29900000  0.52440000  0.55830000  1.0 0.0393010546
C  C12  1  0.29990000  0.52210000  0.60050000  1.0 -0.057598505
C  C13  1  0.34250000  0.51870000  0.63420000  1.0 0.4494876905
C  C14  1  0.33700000  0.52730000  0.50630000  1.0 -0.1012221861
C  C15  1  0.29460000  0.53070000  0.47430000  1.0 -0.079280103
C  C16  1  0.25640000  0.52970000  0.48410000  1.0 -0.0516673966
C  C17  1  0.25710000  0.52730000  0.52580000  1.0 0.030852693
C  C18  1  0.21680000  0.52540000  0.53590000  1.0 -0.070525022
C  C19  1  0.21850000  0.52420000  0.57760000  1.0 -0.070525022
C  C20  1  0.25950000  0.52160000  0.60940000  1.0 -0.070525022
C  C21  1  0.21240000  0.53090000  0.44950000  1.0 0.440678906
C  C22  1  0.17240000  0.52450000  0.50250000  1.0 0.4494876905
C  C23  1  0.13170000  0.52090000  0.42746000  1.0 0.1972866853
C  C24  1  0.12220000  0.46470000  0.40420000  1.0 -0.1628281058
C  C25  1  0.08390000  0.45850000  0.37000000  1.0 -0.0085719358
C  C26  1  0.05510000  0.50990000  0.36020000  1.0 -0.1106574027
C  C27  1  0.06330000  0.56580000  0.38140000  1.0 -0.0085719358
C  C28  1  0.10260000  0.57150000  0.41600000  1.0 -0.1390089427
C  C29  1  0.07640000  0.40210000  0.34250000  1.0 0.562254078
C  C30  1  0.02990000  0.61650000  0.36470000  1.0 0.5523197496
C  C31  1  0.41400000  0.83880000  0.62890000  1.0 0.5523197496
C  C32  1  0.42360000  0.07460000  0.65390000  1.0 0.5219112107
C  C33  1  0.39450000  0.90480000  0.61880000  1.0 0.0213044097
C  C34  1  0.41720000  0.95800000  0.64020000  1.0 -0.0888624407
C  C35  1  0.39870000  0.01680000  0.63110000  1.0 0.0213044097
C  C36  1  0.35780000  0.02560000  0.59960000  1.0 -0.151558249
C  C37  1  0.33590000  0.97300000  0.57830000  1.0 0.1819788
C  C38  1  0.35330000  0.91320000  0.58690000  1.0 -0.1674199437
C  C39  1  0.29800000  0.98140000  0.50280000  1.0 0.440678906
C  C40  1  0.25590000  0.99390000  0.46740000  1.0 -0.070525022
C  C41  1  0.21570000  0.00900000  0.47540000  1.0 0.0393010546
C  C42  1  0.21430000  0.00980000  0.51690000  1.0 -0.070525022
C  C43  1  0.25490000  0.99650000  0.55230000  1.0 0.440678906
C  C44  1  0.25750000  0.99460000  0.42690000  1.0 -0.070525022
C  C45  1  0.21880000  0.00640000  0.39340000  1.0 -0.070525022
C  C46  1  0.17910000  0.01980000  0.40010000  1.0 -0.0516673966
C  C47  1  0.17710000  0.02170000  0.44140000  1.0 0.0460072796
C  C48  1  0.13620000  0.03540000  0.44900000  1.0 -0.0516673966
C  C49  1  0.13490000  0.03580000  0.48900000  1.0 -0.079280103
C  C50  1  0.17330000  0.02370000  0.52290000  1.0 -0.0888624407
C  C51  1  0.13840000  0.03150000  0.36410000  1.0 0.4564131924
C  C52  1  0.09540000  0.04950000  0.41330000  1.0 0.4564131924
C  C53  1  0.05820000  0.05860000  0.33730000  1.0 0.1972866853
C  C54  1  0.02680000  0.01390000  0.32030000  1.0 -0.1674199437
C  C55  1  0.98860000  0.02800000  0.28670000  1.0 0.0115826127
C  C56  1  0.98430000  0.08870000  0.26970000  1.0 -0.1106574027
C  C57  1  0.01640000  0.13360000  0.28650000  1.0 0.0115826127
C  C58  1  0.05420000  0.12120000  0.32160000  1.0 -0.1674199437
C  C59  1  0.95340000  0.97940000  0.26730000  1.0 0.5702725493
C  C60  1  0.01310000  0.19860000  0.26610000  1.0 0.5795241439
C  C61  1  0.57850000  0.79360000  0.77590000  1.0 0.5955683557
C  C62  1  0.70880000  0.93180000  0.77650000  1.0 0.5892863555
C  C63  1  0.68610000  0.88540000  0.79770000  1.0 0.0213044097
C  C64  1  0.64490000  0.85980000  0.77690000  1.0 -0.0888624407
C  C65  1  0.62420000  0.81900000  0.79760000  1.0 -0.0085719358
C  C66  1  0.64570000  0.80510000  0.83990000  1.0 -0.151558249
C  C67  1  0.68720000  0.83170000  0.86030000  1.0 0.1819788
C  C68  1  0.70790000  0.87220000  0.84030000  1.0 -0.1628281058
C  C69  1  0.74360000  0.77150000  0.91440000  1.0 0.4494876905
C  C70  1  0.76350000  0.75520000  0.95950000  1.0 -0.0516673966
C  C71  1  0.75000000  0.78910000  0.98890000  1.0 0.030852693
C  C72  1  0.71620000  0.83540000  0.97740000  1.0 -0.057598505
C  C73  1  0.69390000  0.85030000  0.93310000  1.0 0.440678906
C  C74  1  0.79430000  0.70820000  0.97130000  1.0 -0.079280103
C  C75  1  0.81430000  0.69420000  0.01360000  1.0 -0.079280103
C  C76  1  0.80310000  0.72570000  0.04370000  1.0 -0.0516673966
C  C77  1  0.77070000  0.77450000  0.03230000  1.0 0.030852693
C  C78  1  0.75750000  0.80760000  0.06280000  1.0 -0.057598505
C  C79  1  0.72410000  0.85310000  0.05000000  1.0 -0.079280103
C  C80  1  0.70200000  0.86450000  0.00690000  1.0 -0.079280103
C  C81  1  0.82220000  0.70750000  0.08850000  1.0 0.4494876905
C  C82  1  0.77830000  0.79130000  0.10770000  1.0 0.4494876905
C  C83  1  0.82090000  0.71650000  0.15968000  1.0 0.1918284688
C  C84  1  0.79990000  0.66610000  0.16970000  1.0 -0.1674199437
C  C85  1  0.81320000  0.64160000  0.21010000  1.0 0.0213044097
C  C86  1  0.84780000  0.67110000  0.24060000  1.0 -0.1106574027
C  C87  1  0.86900000  0.72150000  0.23130000  1.0 -0.0085719358
C  C88  1  0.85620000  0.74600000  0.19010000  1.0 -0.1628281058
C  C89  1  0.90780000  0.75080000  0.26510000  1.0 0.5702725493
C  C90  1  0.78940000  0.58560000  0.22020000  1.0 0.5892863555
C  C91  1  0.94400000  0.33140000  0.20120000  1.0 0.5892863555
C  C92  1  0.80020000  0.41700000  0.21230000  1.0 0.5795241439
C  C93  1  0.89470000  0.34200000  0.18170000  1.0 -0.0085719358
C  C94  1  0.87100000  0.37230000  0.20513000  1.0 -0.0888624407
C  C95  1  0.82470000  0.38410000  0.18773000  1.0 -0.0085719358
C  C96  1  0.80310000  0.36450000  0.14713000  1.0 -0.151558249
C  C97  1  0.82640000  0.33380000  0.12460000  1.0 0.1918284688
C  C98  1  0.87250000  0.32350000  0.14140000  1.0 -0.151558249
C  C99  1  0.81460000  0.34380000  0.04970000  1.0 0.4338554808
C  C100  1  0.78900000  0.32630000  0.00692000  1.0 -0.070525022
C  C101  1  0.75400000  0.28160000  0.99947000  1.0 0.030852693
C  C102  1  0.74340000  0.25210000  0.03230000  1.0 -0.0516673966
C  C103  1  0.77000000  0.26830000  0.07648000  1.0 0.440678906
C  C104  1  0.79950000  0.35090000  0.97403000  1.0 -0.070525022
C  C105  1  0.77570000  0.33430000  0.93248000  1.0 -0.070525022
C  C106  1  0.74210000  0.29050000  0.92477000  1.0 -0.057598505
C  C107  1  0.73070000  0.26280000  0.95795000  1.0 0.0393010546
C  C108  1  0.69670000  0.21660000  0.95020000  1.0 -0.0516673966
C  C109  1  0.68730000  0.18960000  0.98360000  1.0 -0.070525022
C  C110  1  0.71070000  0.20810000  0.02470000  1.0 -0.070525022
C  C111  1  0.71910000  0.27050000  0.88110000  1.0 0.4494876905
C  C112  1  0.67380000  0.19430000  0.90779000  1.0 0.4494876905
C  C113  1  0.66640000  0.19970000  0.83380000  1.0 0.1819788
C  C114  1  0.69240000  0.16180000  0.81770000  1.0 -0.151558249
C  C115  1  0.67340000  0.14020000  0.77600000  1.0 0.0115826127
C  C116  1  0.63010000  0.15640000  0.75281000  1.0 -0.1012221861
C  C117  1  0.60530000  0.19420000  0.77090000  1.0 0.030852693
C  C118  1  0.62420000  0.21700000  0.81170000  1.0 -0.151558249
C  C119  1  0.70050000  0.09870000  0.75780000  1.0 0.5892863555
C  C120  1  0.55680000  0.21050000  0.74550000  1.0 0.562254078
C  C121  1  0.82510000  0.88860000  0.23180000  1.0 -0.2669444835
C  C122  1  0.81940000  0.96280000  0.17530000  1.0 -0.2784488468
C  C123  1  0.49420000  0.14470000  0.78830000  1.0 0.5892863555
C  C124  1  0.48990000  0.91340000  0.77570000  1.0 0.4911354625
C  C125  1  0.51390000  0.97030000  0.79350000  1.0 -0.0204599697
C  C126  1  0.49420000  0.02780000  0.77990000  1.0 -0.079280103
C  C127  1  0.51530000  0.08140000  0.80080000  1.0 0.0030592421
C  C128  1  0.55530000  0.07770000  0.83240000  1.0 -0.1390089427
C  C129  1  0.57490000  0.02020000  0.84420000  1.0 0.1918284688
C  C130  1  0.55530000  0.96440000  0.82570000  1.0 -0.1390089427
C  C131  1  0.61720000  0.01960000  0.91870000  1.0 0.4494876905
C  C132  1  0.66110000  0.02340000  0.95130000  1.0 -0.057598505
C  C133  1  0.70100000  0.02440000  0.94170000  1.0 0.0393010546
C  C134  1  0.70010000  0.02210000  0.89950000  1.0 -0.057598505
C  C135  1  0.65750000  0.01870000  0.86580000  1.0 0.4494876905
C  C136  1  0.66300000  0.02730000  0.99370000  1.0 -0.1012221861
C  C137  1  0.70540000  0.03070000  0.02570000  1.0 -0.079280103
C  C138  1  0.74360000  0.02970000  0.01590000  1.0 -0.0516673966
C  C139  1  0.74290000  0.02730000  0.97420000  1.0 0.030852693
C  C140  1  0.78320000  0.02540000  0.96410000  1.0 -0.070525022
C  C141  1  0.78150000  0.02420000  0.92240000  1.0 -0.070525022
C  C142  1  0.74050000  0.02160000  0.89060000  1.0 -0.070525022
C  C143  1  0.78760000  0.03090000  0.05050000  1.0 0.440678906
C  C144  1  0.82760000  0.02450000  0.99750000  1.0 0.4494876905
C  C145  1  0.86830000  0.02090000  0.07254000  1.0 0.1972866853
C  C146  1  0.87780000  0.96470000  0.09580000  1.0 -0.1628281058
C  C147  1  0.91610000  0.95850000  0.13000000  1.0 -0.0085719358
C  C148  1  0.94490000  0.00990000  0.13980000  1.0 -0.1106574027
C  C149  1  0.93670000  0.06580000  0.11860000  1.0 -0.0085719358
C  C150  1  0.89740000  0.07150000  0.08400000  1.0 -0.1390089427
C  C151  1  0.92360000  0.90210000  0.15750000  1.0 0.562254078
C  C152  1  0.97010000  0.11650000  0.13530000  1.0 0.5523197496
C  C153  1  0.58600000  0.33880000  0.87110000  1.0 0.5523197496
C  C154  1  0.57640000  0.57460000  0.84610000  1.0 0.5219112107
C  C155  1  0.60550000  0.40480000  0.88120000  1.0 0.0213044097
C  C156  1  0.58280000  0.45800000  0.85980000  1.0 -0.0888624407
C  C157  1  0.60130000  0.51680000  0.86890000  1.0 0.0213044097
C  C158  1  0.64220000  0.52560000  0.90040000  1.0 -0.151558249
C  C159  1  0.66410000  0.47300000  0.92170000  1.0 0.1819788
C  C160  1  0.64670000  0.41320000  0.91310000  1.0 -0.1674199437
C  C161  1  0.70200000  0.48140000  0.99720000  1.0 0.440678906
C  C162  1  0.74410000  0.49390000  0.03260000  1.0 -0.070525022
C  C163  1  0.78430000  0.50900000  0.02460000  1.0 0.0393010546
C  C164  1  0.78570000  0.50980000  0.98310000  1.0 -0.070525022
C  C165  1  0.74510000  0.49650000  0.94770000  1.0 0.440678906
C  C166  1  0.74250000  0.49460000  0.07310000  1.0 -0.070525022
C  C167  1  0.78120000  0.50640000  0.10660000  1.0 -0.070525022
C  C168  1  0.82090000  0.51980000  0.09990000  1.0 -0.0516673966
C  C169  1  0.82290000  0.52170000  0.05860000  1.0 0.0460072796
C  C170  1  0.86380000  0.53540000  0.05100000  1.0 -0.0516673966
C  C171  1  0.86510000  0.53580000  0.01100000  1.0 -0.079280103
C  C172  1  0.82670000  0.52370000  0.97710000  1.0 -0.0888624407
C  C173  1  0.86160000  0.53150000  0.13590000  1.0 0.4564131924
C  C174  1  0.90460000  0.54950000  0.08670000  1.0 0.4494876905
C  C175  1  0.94180000  0.55860000  0.16270000  1.0 0.1972866853
C  C176  1  0.97320000  0.51390000  0.17970000  1.0 -0.1674199437
C  C177  1  0.01140000  0.52800000  0.21330000  1.0 0.0115826127
C  C178  1  0.01570000  0.58870000  0.23030000  1.0 -0.1106574027
C  C179  1  0.98360000  0.63360000  0.21350000  1.0 0.0115826127
C  C180  1  0.94580000  0.62120000  0.17840000  1.0 -0.1674199437
C  C181  1  0.04660000  0.47940000  0.23270000  1.0 0.5702725493
C  C182  1  0.98690000  0.69860000  0.23390000  1.0 0.5795241439
C  C183  1  0.42150000  0.29360000  0.72410000  1.0 0.5955683557
C  C184  1  0.29120000  0.43180000  0.72350000  1.0 0.5892863555
C  C185  1  0.31390000  0.38540000  0.70230000  1.0 0.0213044097
C  C186  1  0.35510000  0.35980000  0.72310000  1.0 -0.0888624407
C  C187  1  0.37580000  0.31900000  0.70240000  1.0 -0.0085719358
C  C188  1  0.35430000  0.30510000  0.66010000  1.0 -0.151558249
C  C189  1  0.31280000  0.33170000  0.63970000  1.0 0.1819788
C  C190  1  0.29210000  0.37220000  0.65970000  1.0 -0.1628281058
C  C191  1  0.25640000  0.27150000  0.58560000  1.0 0.4494876905
C  C192  1  0.23650000  0.25520000  0.54050000  1.0 -0.0516673966
C  C193  1  0.25000000  0.28910000  0.51110000  1.0 0.030852693
C  C194  1  0.28380000  0.33540000  0.52260000  1.0 -0.057598505
C  C195  1  0.30610000  0.35030000  0.56690000  1.0 0.440678906
C  C196  1  0.20570000  0.20820000  0.52870000  1.0 -0.079280103
C  C197  1  0.18570000  0.19420000  0.48640000  1.0 -0.079280103
C  C198  1  0.19690000  0.22570000  0.45630000  1.0 -0.0516673966
C  C199  1  0.22930000  0.27450000  0.46770000  1.0 0.030852693
C  C200  1  0.24250000  0.30760000  0.43720000  1.0 -0.057598505
C  C201  1  0.27590000  0.35310000  0.45000000  1.0 -0.079280103
C  C202  1  0.29800000  0.36450000  0.49310000  1.0 -0.079280103
C  C203  1  0.17780000  0.20750000  0.41150000  1.0 0.4494876905
C  C204  1  0.22170000  0.29130000  0.39230000  1.0 0.4494876905
C  C205  1  0.17910000  0.21650000  0.34032000  1.0 0.1918284688
C  C206  1  0.20010000  0.16610000  0.33030000  1.0 -0.1674199437
C  C207  1  0.18680000  0.14160000  0.28990000  1.0 0.0213044097
C  C208  1  0.15220000  0.17110000  0.25940000  1.0 -0.1106574027
C  C209  1  0.13100000  0.22150000  0.26870000  1.0 -0.0085719358
C  C210  1  0.14380000  0.24600000  0.30990000  1.0 -0.1628281058
C  C211  1  0.09220000  0.25080000  0.23490000  1.0 0.5702725493
C  C212  1  0.21060000  0.08560000  0.27980000  1.0 0.5892863555
C  C213  1  0.05600000  0.83140000  0.29880000  1.0 0.5892863555
C  C214  1  0.19980000  0.91700000  0.28770000  1.0 0.5795241439
C  C215  1  0.10530000  0.84200000  0.31830000  1.0 -0.0085719358
C  C216  1  0.12900000  0.87230000  0.29487000  1.0 -0.0888624407
C  C217  1  0.17530000  0.88410000  0.31227000  1.0 -0.0085719358
C  C218  1  0.19690000  0.86450000  0.35287000  1.0 -0.151558249
C  C219  1  0.17360000  0.83380000  0.37540000  1.0 0.1918284688
C  C220  1  0.12750000  0.82350000  0.35860000  1.0 -0.151558249
C  C221  1  0.18540000  0.84380000  0.45030000  1.0 0.4338554808
C  C222  1  0.21100000  0.82630000  0.49308000  1.0 -0.070525022
C  C223  1  0.24600000  0.78160000  0.50053000  1.0 0.0393010546
C  C224  1  0.25660000  0.75210000  0.46770000  1.0 -0.057598505
C  C225  1  0.23000000  0.76830000  0.42352000  1.0 0.440678906
C  C226  1  0.20050000  0.85090000  0.52597000  1.0 -0.070525022
C  C227  1  0.22430000  0.83430000  0.56752000  1.0 -0.070525022
C  C228  1  0.25790000  0.79050000  0.57523000  1.0 -0.057598505
C  C229  1  0.26930000  0.76280000  0.54205000  1.0 0.0393010546
C  C230  1  0.30330000  0.71660000  0.54980000  1.0 -0.0516673966
C  C231  1  0.31270000  0.68960000  0.51640000  1.0 -0.070525022
C  C232  1  0.28930000  0.70810000  0.47530000  1.0 -0.070525022
C  C233  1  0.28090000  0.77050000  0.61890000  1.0 0.4494876905
C  C234  1  0.32620000  0.69430000  0.59221000  1.0 0.4494876905
C  C235  1  0.33360000  0.69970000  0.66620000  1.0 0.1819788
C  C236  1  0.30760000  0.66180000  0.68230000  1.0 -0.151558249
C  C237  1  0.32660000  0.64020000  0.72400000  1.0 0.0115826127
C  C238  1  0.36990000  0.65640000  0.74719000  1.0 -0.1012221861
C  C239  1  0.39470000  0.69420000  0.72910000  1.0 0.030852693
C  C240  1  0.37580000  0.71700000  0.68830000  1.0 -0.151558249
C  C241  1  0.29950000  0.59870000  0.74220000  1.0 0.5892863555
C  C242  1  0.44320000  0.71050000  0.75450000  1.0 0.562254078
C  C243  1  0.17490000  0.38860000  0.26820000  1.0 -0.2669444835
C  C244  1  0.18060000  0.46280000  0.32470000  1.0 -0.2784488468
C  C245  1  0.49420000  0.35530000  0.28830000  1.0 0.5892863555
C  C246  1  0.48990000  0.58660000  0.27570000  1.0 0.4911354625
C  C247  1  0.51390000  0.52970000  0.29350000  1.0 -0.0204599697
C  C248  1  0.49420000  0.47220000  0.27990000  1.0 -0.079280103
C  C249  1  0.51530000  0.41860000  0.30080000  1.0 0.0030592421
C  C250  1  0.55530000  0.42230000  0.33240000  1.0 -0.1390089427
C  C251  1  0.57490000  0.47980000  0.34420000  1.0 0.1918284688
C  C252  1  0.55530000  0.53560000  0.32570000  1.0 -0.1390089427
C  C253  1  0.61720000  0.48040000  0.41870000  1.0 0.4494876905
C  C254  1  0.66110000  0.47660000  0.45130000  1.0 -0.057598505
C  C255  1  0.70100000  0.47560000  0.44170000  1.0 0.0393010546
C  C256  1  0.70010000  0.47790000  0.39950000  1.0 -0.057598505
C  C257  1  0.65750000  0.48130000  0.36580000  1.0 0.4494876905
C  C258  1  0.66300000  0.47270000  0.49370000  1.0 -0.1012221861
C  C259  1  0.70540000  0.46930000  0.52570000  1.0 -0.079280103
C  C260  1  0.74360000  0.47030000  0.51590000  1.0 -0.0516673966
C  C261  1  0.74290000  0.47270000  0.47420000  1.0 0.030852693
C  C262  1  0.78320000  0.47460000  0.46410000  1.0 -0.070525022
C  C263  1  0.78150000  0.47580000  0.42240000  1.0 -0.070525022
C  C264  1  0.74050000  0.47840000  0.39060000  1.0 -0.070525022
C  C265  1  0.78760000  0.46910000  0.55050000  1.0 0.440678906
C  C266  1  0.82760000  0.47550000  0.49750000  1.0 0.4494876905
C  C267  1  0.86830000  0.47910000  0.57254000  1.0 0.1972866853
C  C268  1  0.87780000  0.53530000  0.59580000  1.0 -0.1628281058
C  C269  1  0.91610000  0.54150000  0.63000000  1.0 -0.0085719358
C  C270  1  0.94490000  0.49010000  0.63980000  1.0 -0.1106574027
C  C271  1  0.93670000  0.43420000  0.61860000  1.0 -0.0085719358
C  C272  1  0.89740000  0.42850000  0.58400000  1.0 -0.1390089427
C  C273  1  0.92360000  0.59790000  0.65750000  1.0 0.562254078
C  C274  1  0.97010000  0.38350000  0.63530000  1.0 0.5523197496
C  C275  1  0.58600000  0.16120000  0.37110000  1.0 0.5523197496
C  C276  1  0.57640000  0.92540000  0.34610000  1.0 0.5219112107
C  C277  1  0.60550000  0.09520000  0.38120000  1.0 0.0213044097
C  C278  1  0.58280000  0.04200000  0.35980000  1.0 -0.0888624407
C  C279  1  0.60130000  0.98320000  0.36890000  1.0 0.0213044097
C  C280  1  0.64220000  0.97440000  0.40040000  1.0 -0.151558249
C  C281  1  0.66410000  0.02700000  0.42170000  1.0 0.1819788
C  C282  1  0.64670000  0.08680000  0.41310000  1.0 -0.1674199437
C  C283  1  0.70200000  0.01860000  0.49720000  1.0 0.440678906
C  C284  1  0.74410000  0.00610000  0.53260000  1.0 -0.070525022
C  C285  1  0.78430000  0.99100000  0.52460000  1.0 0.0393010546
C  C286  1  0.78570000  0.99020000  0.48310000  1.0 -0.070525022
C  C287  1  0.74510000  0.00350000  0.44770000  1.0 0.440678906
C  C288  1  0.74250000  0.00540000  0.57310000  1.0 -0.070525022
C  C289  1  0.78120000  0.99360000  0.60660000  1.0 -0.070525022
C  C290  1  0.82090000  0.98020000  0.59990000  1.0 -0.0516673966
C  C291  1  0.82290000  0.97830000  0.55860000  1.0 0.0460072796
C  C292  1  0.86380000  0.96460000  0.55100000  1.0 -0.0516673966
C  C293  1  0.86510000  0.96420000  0.51100000  1.0 -0.079280103
C  C294  1  0.82670000  0.97630000  0.47710000  1.0 -0.0888624407
C  C295  1  0.86160000  0.96850000  0.63590000  1.0 0.4564131924
C  C296  1  0.90460000  0.95050000  0.58670000  1.0 0.4494876905
C  C297  1  0.94180000  0.94140000  0.66270000  1.0 0.1972866853
C  C298  1  0.97320000  0.98610000  0.67970000  1.0 -0.1674199437
C  C299  1  0.01140000  0.97200000  0.71330000  1.0 0.0115826127
C  C300  1  0.01570000  0.91130000  0.73030000  1.0 -0.1106574027
C  C301  1  0.98360000  0.86640000  0.71350000  1.0 0.0115826127
C  C302  1  0.94580000  0.87880000  0.67840000  1.0 -0.1674199437
C  C303  1  0.04660000  0.02060000  0.73270000  1.0 0.5702725493
C  C304  1  0.98690000  0.80140000  0.73390000  1.0 0.5795241439
C  C305  1  0.42150000  0.20640000  0.22410000  1.0 0.5892863555
C  C306  1  0.29120000  0.06820000  0.22350000  1.0 0.5892863555
C  C307  1  0.31390000  0.11460000  0.20230000  1.0 0.0213044097
C  C308  1  0.35510000  0.14020000  0.22310000  1.0 -0.0888624407
C  C309  1  0.37580000  0.18100000  0.20240000  1.0 -0.0042025395
C  C310  1  0.35430000  0.19490000  0.16010000  1.0 -0.151558249
C  C311  1  0.31280000  0.16830000  0.13970000  1.0 0.1819788
C  C312  1  0.29210000  0.12780000  0.15970000  1.0 -0.1628281058
C  C313  1  0.25640000  0.22850000  0.08560000  1.0 0.4494876905
C  C314  1  0.23650000  0.24480000  0.04050000  1.0 -0.0516673966
C  C315  1  0.25000000  0.21090000  0.01110000  1.0 0.030852693
C  C316  1  0.28380000  0.16460000  0.02260000  1.0 -0.057598505
C  C317  1  0.30610000  0.14970000  0.06690000  1.0 0.440678906
C  C318  1  0.20570000  0.29180000  0.02870000  1.0 -0.079280103
C  C319  1  0.18570000  0.30580000  0.98640000  1.0 -0.079280103
C  C320  1  0.19690000  0.27430000  0.95630000  1.0 -0.0516673966
C  C321  1  0.22930000  0.22550000  0.96770000  1.0 0.030852693
C  C322  1  0.24250000  0.19240000  0.93720000  1.0 -0.057598505
C  C323  1  0.27590000  0.14690000  0.95000000  1.0 -0.079280103
C  C324  1  0.29800000  0.13550000  0.99310000  1.0 -0.079280103
C  C325  1  0.17780000  0.29250000  0.91150000  1.0 0.4494876905
C  C326  1  0.22170000  0.20870000  0.89230000  1.0 0.4494876905
C  C327  1  0.17910000  0.28350000  0.84032000  1.0 0.1918284688
C  C328  1  0.20010000  0.33390000  0.83030000  1.0 -0.1674199437
C  C329  1  0.18680000  0.35840000  0.78990000  1.0 0.0213044097
C  C330  1  0.15220000  0.32890000  0.75940000  1.0 -0.1106574027
C  C331  1  0.13100000  0.27850000  0.76870000  1.0 -0.0085719358
C  C332  1  0.14380000  0.25400000  0.80990000  1.0 -0.1628281058
C  C333  1  0.09220000  0.24920000  0.73490000  1.0 0.5702725493
C  C334  1  0.21060000  0.41440000  0.77980000  1.0 0.5892863555
C  C335  1  0.05600000  0.66860000  0.79880000  1.0 0.5892863555
C  C336  1  0.19980000  0.58300000  0.78770000  1.0 0.5795241439
C  C337  1  0.10530000  0.65800000  0.81830000  1.0 -0.0085719358
C  C338  1  0.12900000  0.62770000  0.79487000  1.0 -0.0888624407
C  C339  1  0.17530000  0.61590000  0.81227000  1.0 -0.0085719358
C  C340  1  0.19690000  0.63550000  0.85287000  1.0 -0.151558249
C  C341  1  0.17360000  0.66620000  0.87540000  1.0 0.1918284688
C  C342  1  0.12750000  0.67650000  0.85860000  1.0 -0.151558249
C  C343  1  0.18540000  0.65620000  0.95030000  1.0 0.4338554808
C  C344  1  0.21100000  0.67370000  0.99308000  1.0 -0.070525022
C  C345  1  0.24600000  0.71840000  0.00053000  1.0 0.030852693
C  C346  1  0.25660000  0.74790000  0.96770000  1.0 -0.057598505
C  C347  1  0.23000000  0.73170000  0.92352000  1.0 0.440678906
C  C348  1  0.20050000  0.64910000  0.02597000  1.0 -0.070525022
C  C349  1  0.22430000  0.66570000  0.06752000  1.0 -0.070525022
C  C350  1  0.25790000  0.70950000  0.07523000  1.0 -0.057598505
C  C351  1  0.26930000  0.73720000  0.04205000  1.0 0.0393010546
C  C352  1  0.30330000  0.78340000  0.04980000  1.0 -0.0516673966
C  C353  1  0.31270000  0.81040000  0.01640000  1.0 -0.070525022
C  C354  1  0.28930000  0.79190000  0.97530000  1.0 -0.070525022
C  C355  1  0.28090000  0.72950000  0.11890000  1.0 0.4494876905
C  C356  1  0.32620000  0.80570000  0.09221000  1.0 0.4494876905
C  C357  1  0.33360000  0.80030000  0.16620000  1.0 0.1819788
C  C358  1  0.30760000  0.83820000  0.18230000  1.0 -0.151558249
C  C359  1  0.32660000  0.85980000  0.22400000  1.0 0.0115826127
C  C360  1  0.36990000  0.84360000  0.24719000  1.0 -0.1012221861
C  C361  1  0.39470000  0.80580000  0.22910000  1.0 0.030852693
C  C362  1  0.37580000  0.78300000  0.18830000  1.0 -0.151558249
C  C363  1  0.29950000  0.90130000  0.24220000  1.0 0.5892863555
C  C364  1  0.44320000  0.78950000  0.25450000  1.0 0.562254078
C  C365  1  0.17490000  0.11140000  0.76820000  1.0 -0.2669444835
C  C366  1  0.18060000  0.03720000  0.82470000  1.0 -0.2784488468
C  C367  1  0.50580000  0.85530000  0.21170000  1.0 0.5892863555
C  C368  1  0.51010000  0.08660000  0.22430000  1.0 0.4911354625
C  C369  1  0.48610000  0.02970000  0.20650000  1.0 -0.0204599697
C  C370  1  0.50580000  0.97220000  0.22010000  1.0 -0.079280103
C  C371  1  0.48470000  0.91860000  0.19920000  1.0 0.0030592421
C  C372  1  0.44470000  0.92230000  0.16760000  1.0 -0.1390089427
C  C373  1  0.42510000  0.97980000  0.15580000  1.0 0.1918284688
C  C374  1  0.44470000  0.03560000  0.17430000  1.0 -0.1390089427
C  C375  1  0.38280000  0.98040000  0.08130000  1.0 0.4494876905
C  C376  1  0.33890000  0.97660000  0.04870000  1.0 -0.057598505
C  C377  1  0.29900000  0.97560000  0.05830000  1.0 0.0393010546
C  C378  1  0.29990000  0.97790000  0.10050000  1.0 -0.057598505
C  C379  1  0.34250000  0.98130000  0.13420000  1.0 0.4494876905
C  C380  1  0.33700000  0.97270000  0.00630000  1.0 -0.1012221861
C  C381  1  0.29460000  0.96930000  0.97430000  1.0 -0.079280103
C  C382  1  0.25640000  0.97030000  0.98410000  1.0 -0.0516673966
C  C383  1  0.25710000  0.97270000  0.02580000  1.0 0.030852693
C  C384  1  0.21680000  0.97460000  0.03590000  1.0 -0.070525022
C  C385  1  0.21850000  0.97580000  0.07760000  1.0 -0.070525022
C  C386  1  0.25950000  0.97840000  0.10940000  1.0 -0.070525022
C  C387  1  0.21240000  0.96910000  0.94950000  1.0 0.440678906
C  C388  1  0.17240000  0.97550000  0.00250000  1.0 0.4494876905
C  C389  1  0.13170000  0.97910000  0.92746000  1.0 0.1972866853
C  C390  1  0.12220000  0.03530000  0.90420000  1.0 -0.1628281058
C  C391  1  0.08390000  0.04150000  0.87000000  1.0 -0.0085719358
C  C392  1  0.05510000  0.99010000  0.86020000  1.0 -0.1106574027
C  C393  1  0.06330000  0.93420000  0.88140000  1.0 -0.0085719358
C  C394  1  0.10260000  0.92850000  0.91600000  1.0 -0.1390089427
C  C395  1  0.07640000  0.09790000  0.84250000  1.0 0.562254078
C  C396  1  0.02990000  0.88350000  0.86470000  1.0 0.5523197496
C  C397  1  0.41400000  0.66120000  0.12890000  1.0 0.5523197496
C  C398  1  0.42360000  0.42540000  0.15390000  1.0 0.5219112107
C  C399  1  0.39450000  0.59520000  0.11880000  1.0 0.0213044097
C  C400  1  0.41720000  0.54200000  0.14020000  1.0 -0.0888624407
C  C401  1  0.39870000  0.48320000  0.13110000  1.0 0.0213044097
C  C402  1  0.35780000  0.47440000  0.09960000  1.0 -0.151558249
C  C403  1  0.33590000  0.52700000  0.07830000  1.0 0.1819788
C  C404  1  0.35330000  0.58680000  0.08690000  1.0 -0.1674199437
C  C405  1  0.29800000  0.51860000  0.00280000  1.0 0.440678906
C  C406  1  0.25590000  0.50610000  0.96740000  1.0 -0.070525022
C  C407  1  0.21570000  0.49100000  0.97540000  1.0 0.0393010546
C  C408  1  0.21430000  0.49020000  0.01690000  1.0 -0.070525022
C  C409  1  0.25490000  0.50350000  0.05230000  1.0 0.440678906
C  C410  1  0.25750000  0.50540000  0.92690000  1.0 -0.070525022
C  C411  1  0.21880000  0.49360000  0.89340000  1.0 -0.070525022
C  C412  1  0.17910000  0.48020000  0.90010000  1.0 -0.0516673966
C  C413  1  0.17710000  0.47830000  0.94140000  1.0 0.0460072796
C  C414  1  0.13620000  0.46460000  0.94900000  1.0 -0.0516673966
C  C415  1  0.13490000  0.46420000  0.98900000  1.0 -0.079280103
C  C416  1  0.17330000  0.47630000  0.02290000  1.0 -0.0888624407
C  C417  1  0.13840000  0.46850000  0.86410000  1.0 0.4564131924
C  C418  1  0.09540000  0.45050000  0.91330000  1.0 0.4494876905
C  C419  1  0.05820000  0.44140000  0.83730000  1.0 0.1972866853
C  C420  1  0.02680000  0.48610000  0.82030000  1.0 -0.1674199437
C  C421  1  0.98860000  0.47200000  0.78670000  1.0 0.0115826127
C  C422  1  0.98430000  0.41130000  0.76970000  1.0 -0.1106574027
C  C423  1  0.01640000  0.36640000  0.78650000  1.0 0.0115826127
C  C424  1  0.05420000  0.37880000  0.82160000  1.0 -0.1674199437
C  C425  1  0.95340000  0.52060000  0.76730000  1.0 0.5702725493
C  C426  1  0.01310000  0.30140000  0.76610000  1.0 0.5795241439
C  C427  1  0.57850000  0.70640000  0.27590000  1.0 0.5955683557
C  C428  1  0.70880000  0.56820000  0.27650000  1.0 0.5892863555
C  C429  1  0.68610000  0.61460000  0.29770000  1.0 0.0213044097
C  C430  1  0.64490000  0.64020000  0.27690000  1.0 -0.0888624407
C  C431  1  0.62420000  0.68100000  0.29760000  1.0 -0.0085719358
C  C432  1  0.64570000  0.69490000  0.33990000  1.0 -0.151558249
C  C433  1  0.68720000  0.66830000  0.36030000  1.0 0.1819788
C  C434  1  0.70790000  0.62780000  0.34030000  1.0 -0.1628281058
C  C435  1  0.74360000  0.72850000  0.41440000  1.0 0.4494876905
C  C436  1  0.76350000  0.74480000  0.45950000  1.0 -0.0516673966
C  C437  1  0.75000000  0.71090000  0.48890000  1.0 0.030852693
C  C438  1  0.71620000  0.66460000  0.47740000  1.0 -0.057598505
C  C439  1  0.69390000  0.64970000  0.43310000  1.0 0.440678906
C  C440  1  0.79430000  0.79180000  0.47130000  1.0 -0.079280103
C  C441  1  0.81430000  0.80580000  0.51360000  1.0 -0.079280103
C  C442  1  0.80310000  0.77430000  0.54370000  1.0 -0.0516673966
C  C443  1  0.77070000  0.72550000  0.53230000  1.0 0.030852693
C  C444  1  0.75750000  0.69240000  0.56280000  1.0 -0.057598505
C  C445  1  0.72410000  0.64690000  0.55000000  1.0 -0.079280103
C  C446  1  0.70200000  0.63550000  0.50690000  1.0 -0.079280103
C  C447  1  0.82220000  0.79250000  0.58850000  1.0 0.4494876905
C  C448  1  0.77830000  0.70870000  0.60770000  1.0 0.4494876905
C  C449  1  0.82090000  0.78350000  0.65968000  1.0 0.1918284688
C  C450  1  0.79990000  0.83390000  0.66970000  1.0 -0.1674199437
C  C451  1  0.81320000  0.85840000  0.71010000  1.0 0.0213044097
C  C452  1  0.84780000  0.82890000  0.74060000  1.0 -0.1106574027
C  C453  1  0.86900000  0.77850000  0.73130000  1.0 -0.0085719358
C  C454  1  0.85620000  0.75400000  0.69010000  1.0 -0.1628281058
C  C455  1  0.90780000  0.74920000  0.76510000  1.0 0.5702725493
C  C456  1  0.78940000  0.91440000  0.72020000  1.0 0.5892863555
C  C457  1  0.94400000  0.16860000  0.70120000  1.0 0.5892863555
C  C458  1  0.80020000  0.08300000  0.71230000  1.0 0.5795241439
C  C459  1  0.89470000  0.15800000  0.68170000  1.0 -0.0085719358
C  C460  1  0.87100000  0.12770000  0.70513000  1.0 -0.0888624407
C  C461  1  0.82470000  0.11590000  0.68773000  1.0 -0.0085719358
C  C462  1  0.80310000  0.13550000  0.64713000  1.0 -0.151558249
C  C463  1  0.82640000  0.16620000  0.62460000  1.0 0.1918284688
C  C464  1  0.87250000  0.17650000  0.64140000  1.0 -0.151558249
C  C465  1  0.81460000  0.15620000  0.54970000  1.0 0.4338554808
C  C466  1  0.78900000  0.17370000  0.50692000  1.0 -0.070525022
C  C467  1  0.75400000  0.21840000  0.49947000  1.0 0.030852693
C  C468  1  0.74340000  0.24790000  0.53230000  1.0 -0.057598505
C  C469  1  0.77000000  0.23170000  0.57648000  1.0 0.4494876905
C  C470  1  0.79950000  0.14910000  0.47403000  1.0 -0.070525022
C  C471  1  0.77570000  0.16570000  0.43248000  1.0 -0.070525022
C  C472  1  0.74210000  0.20950000  0.42477000  1.0 -0.057598505
C  C473  1  0.73070000  0.23720000  0.45795000  1.0 0.0393010546
C  C474  1  0.69670000  0.28340000  0.45020000  1.0 -0.0516673966
C  C475  1  0.68730000  0.31040000  0.48360000  1.0 -0.070525022
C  C476  1  0.71070000  0.29190000  0.52470000  1.0 -0.070525022
C  C477  1  0.71910000  0.22950000  0.38110000  1.0 0.4494876905
C  C478  1  0.67380000  0.30570000  0.40779000  1.0 0.4494876905
C  C479  1  0.66640000  0.30030000  0.33380000  1.0 0.1819788
C  C480  1  0.69240000  0.33820000  0.31770000  1.0 -0.151558249
C  C481  1  0.67340000  0.35980000  0.27600000  1.0 0.0115826127
C  C482  1  0.63010000  0.34360000  0.25281000  1.0 -0.1012221861
C  C483  1  0.60530000  0.30580000  0.27090000  1.0 0.030852693
C  C484  1  0.62420000  0.28300000  0.31170000  1.0 -0.151558249
C  C485  1  0.70050000  0.40130000  0.25780000  1.0 0.5892863555
C  C486  1  0.55680000  0.28950000  0.24550000  1.0 0.562254078
C  C487  1  0.82510000  0.61140000  0.73180000  1.0 -0.2669444835
C  C488  1  0.81940000  0.53720000  0.67530000  1.0 -0.2784488468
C  C489  1  0.93840000  0.06040000  0.82160000  1.0 -0.3281050256
C  C490  1  0.92050000  0.97070000  0.76820000  1.0 -0.2784488468
C  C491  1  0.06160000  0.56040000  0.67840000  1.0 -0.3281050256
C  C492  1  0.07950000  0.47070000  0.73180000  1.0 -0.2784488468
C  C493  1  0.06160000  0.93960000  0.17840000  1.0 -0.3281050256
C  C494  1  0.07950000  0.02930000  0.23180000  1.0 -0.2784488468
C  C495  1  0.93840000  0.43960000  0.32160000  1.0 -0.3281050256
C  C496  1  0.92050000  0.52930000  0.26820000  1.0 -0.2784488468
N  N1  1  0.38250000  0.51680000  0.62263000  1.0 -0.2193470392
N  N2  1  0.17400000  0.52540000  0.46114000  1.0 -0.2193470392
N  N3  1  0.29420000  0.98280000  0.54366000  1.0 -0.2193470392
N  N4  1  0.09840000  0.04310000  0.37305000  1.0 -0.2261600228
N  N5  1  0.70960000  0.81740000  0.90439000  1.0 -0.2193470392
N  N6  1  0.80670000  0.73990000  0.11694000  1.0 -0.2193470392
N  N7  1  0.80330000  0.31450000  0.08229000  1.0 -0.2193470392
N  N8  1  0.68740000  0.22230000  0.87600000  1.0 -0.2121649391
N  N9  1  0.84840000  0.92150000  0.20700000  1.0 -0.1390089427
N  N10  1  0.61750000  0.01680000  0.87737000  1.0 -0.2193470392
N  N11  1  0.82600000  0.02540000  0.03886000  1.0 -0.2193470392
N  N12  1  0.70580000  0.48280000  0.95634000  1.0 -0.2193470392
N  N13  1  0.90160000  0.54310000  0.12695000  1.0 -0.2261600228
N  N14  1  0.29040000  0.31740000  0.59561000  1.0 -0.2193470392
N  N15  1  0.19330000  0.23990000  0.38306000  1.0 -0.2193470392
N  N16  1  0.19670000  0.81450000  0.41771000  1.0 -0.2193470392
N  N17  1  0.31260000  0.72230000  0.62400000  1.0 -0.2121649391
N  N18  1  0.15160000  0.42150000  0.29300000  1.0 -0.1390089427
N  N19  1  0.61750000  0.48320000  0.37737000  1.0 -0.2193470392
N  N20  1  0.82600000  0.47460000  0.53886000  1.0 -0.2193470392
N  N21  1  0.70580000  0.01720000  0.45634000  1.0 -0.2193470392
N  N22  1  0.90160000  0.95690000  0.62695000  1.0 -0.2193470392
N  N23  1  0.29040000  0.18260000  0.09561000  1.0 -0.2193470392
N  N24  1  0.19330000  0.26010000  0.88306000  1.0 -0.2193470392
N  N25  1  0.19670000  0.68550000  0.91771000  1.0 -0.2193470392
N  N26  1  0.31260000  0.77770000  0.12400000  1.0 -0.2121649391
N  N27  1  0.15160000  0.07850000  0.79300000  1.0 -0.1390089427
N  N28  1  0.38250000  0.98320000  0.12263000  1.0 -0.2193470392
N  N29  1  0.17400000  0.97460000  0.96114000  1.0 -0.2193470392
N  N30  1  0.29420000  0.51720000  0.04366000  1.0 -0.2193470392
N  N31  1  0.09840000  0.45690000  0.87305000  1.0 -0.2261600228
N  N32  1  0.70960000  0.68260000  0.40439000  1.0 -0.2193470392
N  N33  1  0.80670000  0.76010000  0.61694000  1.0 -0.2193470392
N  N34  1  0.80330000  0.18550000  0.58229000  1.0 -0.2193470392
N  N35  1  0.68740000  0.27770000  0.37600000  1.0 -0.2121649391
N  N36  1  0.84840000  0.57850000  0.70700000  1.0 -0.1390089427
N  N37  1  0.92560000  0.98720000  0.80990000  1.0 -0.070525022
N  N38  1  0.07440000  0.48720000  0.69010000  1.0 -0.070525022
N  N39  1  0.07440000  0.01280000  0.19010000  1.0 -0.070525022
N  N40  1  0.92560000  0.51280000  0.30990000  1.0 -0.070525022
Cl  Cl1  1  0.84670000  0.02595000  0.85288000  1.0 -0.5865540362
Cl  Cl2  1  0.65563000  0.49943000  0.12833000  1.0 -0.5218180019
Cl  Cl3  1  0.15330000  0.52595000  0.64712000  1.0 -0.5865540362
Cl  Cl4  1  0.34437000  0.99943000  0.37167000  1.0 -0.5218180019
Cl  Cl5  1  0.15330000  0.97405000  0.14712000  1.0 -0.5865540362
Cl  Cl6  1  0.34437000  0.50057000  0.87167000  1.0 -0.5218180019
Cl  Cl7  1  0.84670000  0.47405000  0.35288000  1.0 -0.5865540362
Cl  Cl8  1  0.65563000  0.00057000  0.62833000  1.0 -0.5218180019
O  O1  1  0.53940000  0.64850000  0.74611000  1.0 -0.5691461942
O  O2  1  0.48940000  0.69140000  0.68890000  1.0 -0.5299850217
O  O3  1  0.50670000  0.36000000  0.70480000  1.0 -0.3686325157
O  O4  1  0.51320000  0.39900000  0.76020000  1.0 -0.3820324063
O  O5  1  0.41810000  0.51800000  0.57424000  1.0 -0.3820324063
O  O6  1  0.34679000  0.51760000  0.67148000  1.0 -0.3820324063
O  O7  1  0.21026000  0.53530000  0.41308000  1.0 -0.3958079548
O  O8  1  0.13708000  0.52330000  0.50865000  1.0 -0.3686325157
O  O9  1  0.10990000  0.36550000  0.34680000  1.0 -0.5865540362
O  O10  1  0.03790000  0.39350000  0.31770000  1.0 -0.5299850217
O  O11  1  0.98920000  0.60650000  0.34560000  1.0 -0.5691461942
O  O12  1  0.04630000  0.67120000  0.37270000  1.0 -0.5218180019
O  O13  1  0.45260000  0.83550000  0.65830000  1.0 -0.5299850217
O  O14  1  0.39400000  0.79560000  0.60910000  1.0 -0.5029068738
O  O15  1  0.46490000  0.06970000  0.67400000  1.0 -0.4908331937
O  O16  1  0.40260000  0.12370000  0.65380000  1.0 -0.5094496706
O  O17  1  0.25560000  0.99840000  0.58909000  1.0 -0.4097299992
O  O18  1  0.33333333  0.96900000  0.49823000  1.0 -0.3686325157
O  O19  1  0.06050000  0.06390000  0.41822000  1.0 -0.3881960866
O  O20  1  0.13835000  0.03070000  0.32821000  1.0 -0.3881960866
O  O21  1  0.96540000  0.92310000  0.26990000  1.0 -0.5400641344
O  O22  1  0.91400000  0.99940000  0.24940000  1.0 -0.5578999228
O  O23  1  0.99129000  0.20090000  0.22759000  1.0 -0.5691461942
O  O24  1  0.03076000  0.24380000  0.28786000  1.0 -0.5029068738
O  O25  1  0.56240000  0.76080000  0.79820000  1.0 -0.5299850217
O  O26  1  0.55940000  0.80730000  0.73890000  1.0 -0.4908331937
O  O27  1  0.68882000  0.94130000  0.73806000  1.0 -0.5218180019
O  O28  1  0.74483000  0.95500000  0.79872000  1.0 -0.5299850217
O  O29  1  0.66250000  0.88530000  0.92051000  1.0 -0.4097299992
O  O30  1  0.75380000  0.74580000  0.88666000  1.0 -0.3958079548
O  O31  1  0.76750000  0.81910000  0.13498000  1.0 -0.4272846809
O  O32  1  0.84910000  0.66440000  0.10034000  1.0 -0.4173989377
O  O33  1  0.75420000  0.56830000  0.19337000  1.0 -0.5299850217
O  O34  1  0.80770000  0.56070000  0.25582000  1.0 -0.5400641344
O  O35  1  0.91904000  0.80630000  0.25848000  1.0 -0.5578999228
O  O36  1  0.92705000  0.71950000  0.29687000  1.0 -0.5094496706
O  O37  1  0.96091000  0.34130000  0.23985000  1.0 -0.5299850217
O  O38  1  0.96561000  0.31340000  0.17713000  1.0 -0.5400641344
O  O39  1  0.82059000  0.42810000  0.25019000  1.0 -0.5218180019
O  O40  1  0.76025000  0.43300000  0.19230000  1.0 -0.5539462945
O  O41  1  0.84509000  0.38230000  0.05801000  1.0 -0.4173989377
O  O42  1  0.76350000  0.24310000  0.10615000  1.0 -0.3958079548
O  O43  1  0.72716000  0.29250000  0.85158000  1.0 -0.3820324063
O  O44  1  0.64567000  0.15380000  0.89940000  1.0 -0.3820324063
O  O45  1  0.54170000  0.26230000  0.75450000  1.0 -0.5218180019
O  O46  1  0.53555000  0.17310000  0.71844000  1.0 -0.4908331937
O  O47  1  0.68135000  0.07630000  0.72205000  1.0 -0.5029068738
O  O48  1  0.74016000  0.08770000  0.77983000  1.0 -0.5400641344
O  O49  1  0.98880000  0.78140000  0.38310000  1.0 -0.1997632689
O  O50  1  0.52830000  0.71570000  0.86350000  1.0 0.0901836113
O  O51  1  0.46060000  0.14850000  0.75389000  1.0 -0.5691461942
O  O52  1  0.51060000  0.19140000  0.81110000  1.0 -0.5299850217
O  O53  1  0.49330000  0.86000000  0.79520000  1.0 -0.3686325157
O  O54  1  0.48680000  0.89900000  0.73980000  1.0 -0.3820324063
O  O55  1  0.58190000  0.01800000  0.92576000  1.0 -0.3881960866
O  O56  1  0.65321000  0.01760000  0.82852000  1.0 -0.3820324063
O  O57  1  0.78974000  0.03530000  0.08692000  1.0 -0.3958079548
O  O58  1  0.86292000  0.02330000  0.99135000  1.0 -0.3686325157
O  O59  1  0.89010000  0.86550000  0.15320000  1.0 -0.5865540362
O  O60  1  0.96210000  0.89350000  0.18230000  1.0 -0.5299850217
O  O61  1  0.01080000  0.10650000  0.15440000  1.0 -0.5691461942
O  O62  1  0.95370000  0.17120000  0.12730000  1.0 -0.5218180019
O  O63  1  0.54740000  0.33550000  0.84170000  1.0 -0.5299850217
O  O64  1  0.60600000  0.29560000  0.89090000  1.0 -0.5029068738
O  O65  1  0.53510000  0.56970000  0.82600000  1.0 -0.4908331937
O  O66  1  0.59740000  0.62370000  0.84620000  1.0 -0.5094496706
O  O67  1  0.74440000  0.49840000  0.91091000  1.0 -0.4097299992
O  O68  1  0.66666667  0.46900000  0.00177000  1.0 -0.3686325157
O  O69  1  0.93950000  0.56390000  0.08178000  1.0 -0.3881960866
O  O70  1  0.86165000  0.53070000  0.17179000  1.0 -0.3881960866
O  O71  1  0.03460000  0.42310000  0.23010000  1.0 -0.5400641344
O  O72  1  0.08600000  0.49940000  0.25060000  1.0 -0.5578999228
O  O73  1  0.00871000  0.70090000  0.27241000  1.0 -0.5691461942
O  O74  1  0.96924000  0.74380000  0.21214000  1.0 -0.5029068738
O  O75  1  0.43760000  0.26080000  0.70180000  1.0 -0.5299850217
O  O76  1  0.44060000  0.30730000  0.76110000  1.0 -0.4908331937
O  O77  1  0.31118000  0.44130000  0.76194000  1.0 -0.5218180019
O  O78  1  0.25517000  0.45500000  0.70128000  1.0 -0.5299850217
O  O79  1  0.33750000  0.38530000  0.57949000  1.0 -0.4097299992
O  O80  1  0.24620000  0.24580000  0.61334000  1.0 -0.3958079548
O  O81  1  0.23250000  0.31910000  0.36502000  1.0 -0.4272846809
O  O82  1  0.15090000  0.16440000  0.39966000  1.0 -0.4173989377
O  O83  1  0.24580000  0.06830000  0.30663000  1.0 -0.5299850217
O  O84  1  0.19230000  0.06070000  0.24418000  1.0 -0.5400641344
O  O85  1  0.08096000  0.30630000  0.24152000  1.0 -0.5578999228
O  O86  1  0.07295000  0.21950000  0.20313000  1.0 -0.5094496706
O  O87  1  0.03909000  0.84130000  0.26015000  1.0 -0.5299850217
O  O88  1  0.03439000  0.81340000  0.32287000  1.0 -0.5400641344
O  O89  1  0.17941000  0.92810000  0.24981000  1.0 -0.5218180019
O  O90  1  0.23975000  0.93300000  0.30770000  1.0 -0.5539462945
O  O91  1  0.15491000  0.88230000  0.44199000  1.0 -0.4173989377
O  O92  1  0.23650000  0.74310000  0.39385000  1.0 -0.3958079548
O  O93  1  0.27284000  0.79250000  0.64842000  1.0 -0.3820324063
O  O94  1  0.35433000  0.65380000  0.60060000  1.0 -0.3820324063
O  O95  1  0.45830000  0.76230000  0.74550000  1.0 -0.5299850217
O  O96  1  0.46445000  0.67310000  0.78156000  1.0 -0.4908331937
O  O97  1  0.31865000  0.57630000  0.77795000  1.0 -0.5029068738
O  O98  1  0.25984000  0.58770000  0.72017000  1.0 -0.5400641344
O  O99  1  0.01120000  0.28140000  0.11690000  1.0 -0.1997632689
O  O100  1  0.47170000  0.21570000  0.63650000  1.0 0.0959508263
O  O101  1  0.46060000  0.35150000  0.25389000  1.0 -0.5691461942
O  O102  1  0.51060000  0.30860000  0.31110000  1.0 -0.5299850217
O  O103  1  0.49330000  0.64000000  0.29520000  1.0 -0.3686325157
O  O104  1  0.48680000  0.60100000  0.23980000  1.0 -0.3881960866
O  O105  1  0.58190000  0.48200000  0.42576000  1.0 -0.3881960866
O  O106  1  0.65321000  0.48240000  0.32852000  1.0 -0.3820324063
O  O107  1  0.78974000  0.46470000  0.58692000  1.0 -0.3958079548
O  O108  1  0.86292000  0.47670000  0.49135000  1.0 -0.3686325157
O  O109  1  0.89010000  0.63450000  0.65320000  1.0 -0.5865540362
O  O110  1  0.96210000  0.60650000  0.68230000  1.0 -0.5299850217
O  O111  1  0.01080000  0.39350000  0.65440000  1.0 -0.5691461942
O  O112  1  0.95370000  0.32880000  0.62730000  1.0 -0.5218180019
O  O113  1  0.54740000  0.16450000  0.34170000  1.0 -0.5299850217
O  O114  1  0.60600000  0.20440000  0.39090000  1.0 -0.5094496706
O  O115  1  0.53510000  0.93030000  0.32600000  1.0 -0.4908331937
O  O116  1  0.59740000  0.87630000  0.34620000  1.0 -0.5094496706
O  O117  1  0.74440000  0.00160000  0.41091000  1.0 -0.4097299992
O  O118  1  0.66666667  0.03100000  0.50177000  1.0 -0.3686325157
O  O119  1  0.93950000  0.93610000  0.58178000  1.0 -0.3881960866
O  O120  1  0.86165000  0.96930000  0.67179000  1.0 -0.3881960866
O  O121  1  0.03460000  0.07690000  0.73010000  1.0 -0.5400641344
O  O122  1  0.08600000  0.00060000  0.75060000  1.0 -0.5578999228
O  O123  1  0.00871000  0.79910000  0.77241000  1.0 -0.5691461942
O  O124  1  0.96924000  0.75620000  0.71214000  1.0 -0.5029068738
O  O125  1  0.43760000  0.23920000  0.20180000  1.0 -0.5299850217
O  O126  1  0.44060000  0.19270000  0.26110000  1.0 -0.4908331937
O  O127  1  0.31118000  0.05870000  0.26194000  1.0 -0.5218180019
O  O128  1  0.25517000  0.04500000  0.20128000  1.0 -0.5299850217
O  O129  1  0.33750000  0.11470000  0.07949000  1.0 -0.4097299992
O  O130  1  0.24620000  0.25420000  0.11334000  1.0 -0.3958079548
O  O131  1  0.23250000  0.18090000  0.86502000  1.0 -0.4272846809
O  O132  1  0.15090000  0.33560000  0.89966000  1.0 -0.4173989377
O  O133  1  0.24580000  0.43170000  0.80663000  1.0 -0.5299850217
O  O134  1  0.19230000  0.43930000  0.74418000  1.0 -0.5400641344
O  O135  1  0.08096000  0.19370000  0.74152000  1.0 -0.5578999228
O  O136  1  0.07295000  0.28050000  0.70313000  1.0 -0.5094496706
O  O137  1  0.03909000  0.65870000  0.76015000  1.0 -0.5299850217
O  O138  1  0.03439000  0.68660000  0.82287000  1.0 -0.5400641344
O  O139  1  0.17941000  0.57190000  0.74981000  1.0 -0.5218180019
O  O140  1  0.23975000  0.56700000  0.80770000  1.0 -0.5539462945
O  O141  1  0.15491000  0.61770000  0.94199000  1.0 -0.4173989377
O  O142  1  0.23650000  0.75690000  0.89385000  1.0 -0.3958079548
O  O143  1  0.27284000  0.70750000  0.14842000  1.0 -0.3820324063
O  O144  1  0.35433000  0.84620000  0.10060000  1.0 -0.3820324063
O  O145  1  0.45830000  0.73770000  0.24550000  1.0 -0.5299850217
O  O146  1  0.46445000  0.82690000  0.28156000  1.0 -0.4908331937
O  O147  1  0.31865000  0.92370000  0.27795000  1.0 -0.5029068738
O  O148  1  0.25984000  0.91230000  0.22017000  1.0 -0.5400641344
O  O149  1  0.01120000  0.21860000  0.61690000  1.0 -0.1997632689
O  O150  1  0.47170000  0.28430000  0.13650000  1.0 0.0813603171
O  O151  1  0.53940000  0.85150000  0.24611000  1.0 -0.5691461942
O  O152  1  0.48940000  0.80860000  0.18890000  1.0 -0.5299850217
O  O153  1  0.50670000  0.14000000  0.20480000  1.0 -0.3634852997
O  O154  1  0.51320000  0.10100000  0.26020000  1.0 -0.3820324063
O  O155  1  0.41810000  0.98200000  0.07424000  1.0 -0.3881960866
O  O156  1  0.34679000  0.98240000  0.17148000  1.0 -0.3820324063
O  O157  1  0.21026000  0.96470000  0.91308000  1.0 -0.3958079548
O  O158  1  0.13708000  0.97670000  0.00865000  1.0 -0.3686325157
O  O159  1  0.10990000  0.13450000  0.84680000  1.0 -0.5865540362
O  O160  1  0.03790000  0.10650000  0.81770000  1.0 -0.5299850217
O  O161  1  0.98920000  0.89350000  0.84560000  1.0 -0.5691461942
O  O162  1  0.04630000  0.82880000  0.87270000  1.0 -0.5218180019
O  O163  1  0.45260000  0.66450000  0.15830000  1.0 -0.5299850217
O  O164  1  0.39400000  0.70440000  0.10910000  1.0 -0.5029068738
O  O165  1  0.46490000  0.43030000  0.17400000  1.0 -0.4908331937
O  O166  1  0.40260000  0.37630000  0.15380000  1.0 -0.5094496706
O  O167  1  0.25560000  0.50160000  0.08909000  1.0 -0.4097299992
O  O168  1  0.33333333  0.53100000  0.99823000  1.0 -0.3686325157
O  O169  1  0.06050000  0.43610000  0.91822000  1.0 -0.3881960866
O  O170  1  0.13835000  0.46930000  0.82821000  1.0 -0.3881960866
O  O171  1  0.96540000  0.57690000  0.76990000  1.0 -0.5400641344
O  O172  1  0.91400000  0.50060000  0.74940000  1.0 -0.5578999228
O  O173  1  0.99129000  0.29910000  0.72759000  1.0 -0.5691461942
O  O174  1  0.03076000  0.25620000  0.78786000  1.0 -0.5029068738
O  O175  1  0.56240000  0.73920000  0.29820000  1.0 -0.5299850217
O  O176  1  0.55940000  0.69270000  0.23890000  1.0 -0.4908331937
O  O177  1  0.68882000  0.55870000  0.23806000  1.0 -0.5218180019
O  O178  1  0.74483000  0.54500000  0.29872000  1.0 -0.5299850217
O  O179  1  0.66250000  0.61470000  0.42051000  1.0 -0.4097299992
O  O180  1  0.75380000  0.75420000  0.38666000  1.0 -0.3958079548
O  O181  1  0.76750000  0.68090000  0.63498000  1.0 -0.4272846809
O  O182  1  0.84910000  0.83560000  0.60034000  1.0 -0.4173989377
O  O183  1  0.75420000  0.93170000  0.69337000  1.0 -0.5299850217
O  O184  1  0.80770000  0.93930000  0.75582000  1.0 -0.5400641344
O  O185  1  0.91904000  0.69370000  0.75848000  1.0 -0.5578999228
O  O186  1  0.92705000  0.78050000  0.79687000  1.0 -0.5094496706
O  O187  1  0.96091000  0.15870000  0.73985000  1.0 -0.5299850217
O  O188  1  0.96561000  0.18660000  0.67713000  1.0 -0.5400641344
O  O189  1  0.82059000  0.07190000  0.75019000  1.0 -0.5218180019
O  O190  1  0.76025000  0.06700000  0.69230000  1.0 -0.5539462945
O  O191  1  0.84509000  0.11770000  0.55801000  1.0 -0.4173989377
O  O192  1  0.76350000  0.25690000  0.60615000  1.0 -0.3958079548
O  O193  1  0.72716000  0.20750000  0.35158000  1.0 -0.3820324063
O  O194  1  0.64567000  0.34620000  0.39940000  1.0 -0.3820324063
O  O195  1  0.54170000  0.23770000  0.25450000  1.0 -0.5218180019
O  O196  1  0.53555000  0.32690000  0.21844000  1.0 -0.4908331937
O  O197  1  0.68135000  0.42370000  0.22205000  1.0 -0.5029068738
O  O198  1  0.74016000  0.41230000  0.27983000  1.0 -0.5400641344
O  O199  1  0.98880000  0.71860000  0.88310000  1.0 -0.1997632689
O  O200  1  0.52830000  0.78430000  0.36350000  1.0 0.0901836113
