# DDEC6 charges by PACMAN v1.1 (https://github.com/mtap-research/PACMAN-charge/)
data_REWLEM_ASR_pacman
_symmetry_space_group_name_H-M   'P 1'
_cell_length_a   18.58370000
_cell_length_b   18.58370000
_cell_length_c   53.13500000
_cell_angle_alpha   90.00000000
_cell_angle_beta   90.00000000
_cell_angle_gamma   90.00000000
_symmetry_Int_Tables_number   1
_chemical_formula_structural   ZnCu2H18C48(NO2)4
_chemical_formula_sum   'Zn8 Cu16 H144 C384 N32 O64'
_cell_volume   18350.37977884
_cell_formula_units_Z   8
loop_
 _symmetry_equiv_pos_site_id
 _symmetry_equiv_pos_as_xyz
  1  'x, y, z'
loop_
 _atom_site_type_symbol
 _atom_site_label
 _atom_site_symmetry_multiplicity
 _atom_site_fract_x
 _atom_site_fract_y
 _atom_site_fract_z
 _atom_site_occupancy
 _atom_site_charge
Zn  Zn1  1  0.17136000  0.50213000  0.50000000  1.0 0.6543690633
Zn  Zn2  1  0.82864000  0.49787000  0.50000000  1.0 0.6566173941
Zn  Zn3  1  0.99787000  0.67136000  0.00000000  1.0 0.6543690633
Zn  Zn4  1  0.00213000  0.32864000  0.00000000  1.0 0.6566173941
Zn  Zn5  1  0.32864000  0.00213000  0.00000000  1.0 0.6566173941
Zn  Zn6  1  0.67136000  0.99787000  0.00000000  1.0 0.6543690633
Zn  Zn7  1  0.50213000  0.17136000  0.50000000  1.0 0.6543690633
Zn  Zn8  1  0.49787000  0.82864000  0.50000000  1.0 0.6543690633
Cu  Cu1  1  0.27029000  0.27029000  0.22959000  1.0 0.869848774
Cu  Cu2  1  0.20378000  0.20378000  0.26725000  1.0 0.869848774
Cu  Cu3  1  0.72971000  0.72971000  0.22959000  1.0 0.869848774
Cu  Cu4  1  0.79622000  0.79622000  0.26725000  1.0 0.869848774
Cu  Cu5  1  0.22971000  0.77029000  0.72959000  1.0 0.869848774
Cu  Cu6  1  0.29622000  0.70378000  0.76725000  1.0 0.869848774
Cu  Cu7  1  0.77029000  0.22971000  0.72959000  1.0 0.869848774
Cu  Cu8  1  0.70378000  0.29622000  0.76725000  1.0 0.869848774
Cu  Cu9  1  0.22971000  0.77029000  0.27041000  1.0 0.869848774
Cu  Cu10  1  0.29622000  0.70378000  0.23275000  1.0 0.869848774
Cu  Cu11  1  0.77029000  0.22971000  0.27041000  1.0 0.869848774
Cu  Cu12  1  0.70378000  0.29622000  0.23275000  1.0 0.869848774
Cu  Cu13  1  0.27029000  0.27029000  0.77041000  1.0 0.869848774
Cu  Cu14  1  0.20378000  0.20378000  0.73275000  1.0 0.869848774
Cu  Cu15  1  0.72971000  0.72971000  0.77041000  1.0 0.869848774
Cu  Cu16  1  0.79622000  0.79622000  0.73275000  1.0 0.869848774
H  H1  1  0.27713000  0.59836000  0.41303000  1.0 0.1085049496
H  H2  1  0.22392000  0.60268000  0.32378000  1.0 0.1085049496
H  H3  1  0.24634000  0.48704000  0.25301000  1.0 0.1251062966
H  H4  1  0.20903000  0.36752000  0.32260000  1.0 0.1015280723
H  H5  1  0.10057000  0.37100000  0.41454000  1.0 0.1015280723
H  H6  1  0.13259000  0.58885000  0.40213000  1.0 0.1085049496
H  H7  1  0.14907000  0.59202000  0.35497000  1.0 0.1015280723
H  H8  1  0.22900000  0.37703000  0.40481000  1.0 0.1015280723
H  H9  1  0.22507000  0.37955000  0.35626000  1.0 0.0905518766
H  H10  1  0.72287000  0.40164000  0.41303000  1.0 0.1085049496
H  H11  1  0.77608000  0.39732000  0.32378000  1.0 0.1085049496
H  H12  1  0.75366000  0.51296000  0.25301000  1.0 0.1251062966
H  H13  1  0.79097000  0.63248000  0.32260000  1.0 0.1015280723
H  H14  1  0.89943000  0.62900000  0.41454000  1.0 0.1015280723
H  H15  1  0.86741000  0.41115000  0.40213000  1.0 0.1085049496
H  H16  1  0.85093000  0.40798000  0.35497000  1.0 0.1015280723
H  H17  1  0.77100000  0.62297000  0.40481000  1.0 0.1015280723
H  H18  1  0.77493000  0.62045000  0.35626000  1.0 0.0905518766
H  H19  1  0.90164000  0.77713000  0.91303000  1.0 0.1085049496
H  H20  1  0.89732000  0.72392000  0.82378000  1.0 0.1085049496
H  H21  1  0.01296000  0.74634000  0.75301000  1.0 0.1251062966
H  H22  1  0.13248000  0.70903000  0.82260000  1.0 0.1015280723
H  H23  1  0.12900000  0.60057000  0.91454000  1.0 0.1015280723
H  H24  1  0.91115000  0.63259000  0.90213000  1.0 0.1085049496
H  H25  1  0.90798000  0.64907000  0.85497000  1.0 0.1015280723
H  H26  1  0.12297000  0.72900000  0.90481000  1.0 0.1015280723
H  H27  1  0.12045000  0.72507000  0.85626000  1.0 0.0905518766
H  H28  1  0.09836000  0.22287000  0.91303000  1.0 0.1085049496
H  H29  1  0.10268000  0.27608000  0.82378000  1.0 0.1085049496
H  H30  1  0.98704000  0.25366000  0.75301000  1.0 0.1251062966
H  H31  1  0.86752000  0.29097000  0.82260000  1.0 0.1015280723
H  H32  1  0.87100000  0.39943000  0.91454000  1.0 0.1015280723
H  H33  1  0.08885000  0.36741000  0.90213000  1.0 0.1085049496
H  H34  1  0.09202000  0.35093000  0.85497000  1.0 0.1015280723
H  H35  1  0.87703000  0.27100000  0.90481000  1.0 0.1015280723
H  H36  1  0.87955000  0.27493000  0.85626000  1.0 0.0905518766
H  H37  1  0.22287000  0.09836000  0.08697000  1.0 0.1085049496
H  H38  1  0.27608000  0.10268000  0.17622000  1.0 0.1085049496
H  H39  1  0.25366000  0.98704000  0.24699000  1.0 0.1251062966
H  H40  1  0.29097000  0.86752000  0.17740000  1.0 0.1015280723
H  H41  1  0.39943000  0.87100000  0.08546000  1.0 0.1015280723
H  H42  1  0.36741000  0.08885000  0.09787000  1.0 0.1085049496
H  H43  1  0.35093000  0.09202000  0.14503000  1.0 0.1015280723
H  H44  1  0.27100000  0.87703000  0.09519000  1.0 0.1015280723
H  H45  1  0.27493000  0.87955000  0.14374000  1.0 0.0905518766
H  H46  1  0.77713000  0.90164000  0.08697000  1.0 0.1085049496
H  H47  1  0.72392000  0.89732000  0.17622000  1.0 0.1085049496
H  H48  1  0.74634000  0.01296000  0.24699000  1.0 0.1251062966
H  H49  1  0.70903000  0.13248000  0.17740000  1.0 0.1015280723
H  H50  1  0.60057000  0.12900000  0.08546000  1.0 0.1015280723
H  H51  1  0.63259000  0.91115000  0.09787000  1.0 0.1085049496
H  H52  1  0.64907000  0.90798000  0.14503000  1.0 0.1015280723
H  H53  1  0.72900000  0.12297000  0.09519000  1.0 0.1015280723
H  H54  1  0.72507000  0.12045000  0.14374000  1.0 0.0905518766
H  H55  1  0.59836000  0.27713000  0.58697000  1.0 0.1085049496
H  H56  1  0.60268000  0.22392000  0.67622000  1.0 0.1085049496
H  H57  1  0.48704000  0.24634000  0.74699000  1.0 0.1251062966
H  H58  1  0.36752000  0.20903000  0.67740000  1.0 0.1015280723
H  H59  1  0.37100000  0.10057000  0.58546000  1.0 0.1015280723
H  H60  1  0.58885000  0.13259000  0.59787000  1.0 0.1085049496
H  H61  1  0.59202000  0.14907000  0.64503000  1.0 0.1015280723
H  H62  1  0.37703000  0.22900000  0.59519000  1.0 0.1015280723
H  H63  1  0.37955000  0.22507000  0.64374000  1.0 0.0905518766
H  H64  1  0.40164000  0.72287000  0.58697000  1.0 0.1085049496
H  H65  1  0.39732000  0.77608000  0.67622000  1.0 0.1085049496
H  H66  1  0.51296000  0.75366000  0.74699000  1.0 0.1251062966
H  H67  1  0.63248000  0.79097000  0.67740000  1.0 0.1015280723
H  H68  1  0.62900000  0.89943000  0.58546000  1.0 0.1015280723
H  H69  1  0.41115000  0.86741000  0.59787000  1.0 0.1085049496
H  H70  1  0.40798000  0.85093000  0.64503000  1.0 0.1015280723
H  H71  1  0.62297000  0.77100000  0.59519000  1.0 0.1015280723
H  H72  1  0.62045000  0.77493000  0.64374000  1.0 0.0905518766
H  H73  1  0.72287000  0.40164000  0.58697000  1.0 0.1085049496
H  H74  1  0.77608000  0.39732000  0.67622000  1.0 0.1085049496
H  H75  1  0.75366000  0.51296000  0.74699000  1.0 0.1251062966
H  H76  1  0.79097000  0.63248000  0.67740000  1.0 0.1015280723
H  H77  1  0.89943000  0.62900000  0.58546000  1.0 0.1015280723
H  H78  1  0.86741000  0.41115000  0.59787000  1.0 0.1085049496
H  H79  1  0.85093000  0.40798000  0.64503000  1.0 0.1015280723
H  H80  1  0.77100000  0.62297000  0.59519000  1.0 0.1015280723
H  H81  1  0.77493000  0.62045000  0.64374000  1.0 0.0905518766
H  H82  1  0.27713000  0.59836000  0.58697000  1.0 0.1085049496
H  H83  1  0.22392000  0.60268000  0.67622000  1.0 0.1085049496
H  H84  1  0.24634000  0.48704000  0.74699000  1.0 0.1251062966
H  H85  1  0.20903000  0.36752000  0.67740000  1.0 0.1015280723
H  H86  1  0.10057000  0.37100000  0.58546000  1.0 0.1015280723
H  H87  1  0.13259000  0.58885000  0.59787000  1.0 0.1085049496
H  H88  1  0.14907000  0.59202000  0.64503000  1.0 0.1015280723
H  H89  1  0.22900000  0.37703000  0.59519000  1.0 0.1015280723
H  H90  1  0.22507000  0.37955000  0.64374000  1.0 0.0905518766
H  H91  1  0.09836000  0.22287000  0.08697000  1.0 0.1085049496
H  H92  1  0.10268000  0.27608000  0.17622000  1.0 0.1085049496
H  H93  1  0.98704000  0.25366000  0.24699000  1.0 0.1251062966
H  H94  1  0.86752000  0.29097000  0.17740000  1.0 0.1015280723
H  H95  1  0.87100000  0.39943000  0.08546000  1.0 0.1015280723
H  H96  1  0.08885000  0.36741000  0.09787000  1.0 0.1085049496
H  H97  1  0.09202000  0.35093000  0.14503000  1.0 0.1015280723
H  H98  1  0.87703000  0.27100000  0.09519000  1.0 0.1015280723
H  H99  1  0.87955000  0.27493000  0.14374000  1.0 0.0905518766
H  H100  1  0.90164000  0.77713000  0.08697000  1.0 0.1085049496
H  H101  1  0.89732000  0.72392000  0.17622000  1.0 0.1085049496
H  H102  1  0.01296000  0.74634000  0.24699000  1.0 0.1251062966
H  H103  1  0.13248000  0.70903000  0.17740000  1.0 0.1015280723
H  H104  1  0.12900000  0.60057000  0.08546000  1.0 0.1015280723
H  H105  1  0.91115000  0.63259000  0.09787000  1.0 0.1085049496
H  H106  1  0.90798000  0.64907000  0.14503000  1.0 0.1015280723
H  H107  1  0.12297000  0.72900000  0.09519000  1.0 0.1015280723
H  H108  1  0.12045000  0.72507000  0.14374000  1.0 0.0905518766
H  H109  1  0.77713000  0.90164000  0.91303000  1.0 0.1085049496
H  H110  1  0.72392000  0.89732000  0.82378000  1.0 0.1085049496
H  H111  1  0.74634000  0.01296000  0.75301000  1.0 0.1251062966
H  H112  1  0.70903000  0.13248000  0.82260000  1.0 0.1015280723
H  H113  1  0.60057000  0.12900000  0.91454000  1.0 0.1015280723
H  H114  1  0.63259000  0.91115000  0.90213000  1.0 0.1085049496
H  H115  1  0.64907000  0.90798000  0.85497000  1.0 0.1015280723
H  H116  1  0.72900000  0.12297000  0.90481000  1.0 0.1015280723
H  H117  1  0.72507000  0.12045000  0.85626000  1.0 0.0905518766
H  H118  1  0.22287000  0.09836000  0.91303000  1.0 0.1085049496
H  H119  1  0.27608000  0.10268000  0.82378000  1.0 0.1085049496
H  H120  1  0.25366000  0.98704000  0.75301000  1.0 0.1251062966
H  H121  1  0.29097000  0.86752000  0.82260000  1.0 0.1015280723
H  H122  1  0.39943000  0.87100000  0.91454000  1.0 0.1015280723
H  H123  1  0.36741000  0.08885000  0.90213000  1.0 0.1085049496
H  H124  1  0.35093000  0.09202000  0.85497000  1.0 0.1015280723
H  H125  1  0.27100000  0.87703000  0.90481000  1.0 0.1015280723
H  H126  1  0.27493000  0.87955000  0.85626000  1.0 0.0905518766
H  H127  1  0.40164000  0.72287000  0.41303000  1.0 0.1085049496
H  H128  1  0.39732000  0.77608000  0.32378000  1.0 0.1085049496
H  H129  1  0.51296000  0.75366000  0.25301000  1.0 0.1251062966
H  H130  1  0.63248000  0.79097000  0.32260000  1.0 0.1015280723
H  H131  1  0.62900000  0.89943000  0.41454000  1.0 0.1015280723
H  H132  1  0.41115000  0.86741000  0.40213000  1.0 0.1085049496
H  H133  1  0.40798000  0.85093000  0.35497000  1.0 0.1015280723
H  H134  1  0.62297000  0.77100000  0.40481000  1.0 0.1015280723
H  H135  1  0.62045000  0.77493000  0.35626000  1.0 0.0905518766
H  H136  1  0.59836000  0.27713000  0.41303000  1.0 0.1085049496
H  H137  1  0.60268000  0.22392000  0.32378000  1.0 0.1085049496
H  H138  1  0.48704000  0.24634000  0.25301000  1.0 0.1251062966
H  H139  1  0.36752000  0.20903000  0.32260000  1.0 0.1015280723
H  H140  1  0.37100000  0.10057000  0.41454000  1.0 0.1015280723
H  H141  1  0.58885000  0.13259000  0.40213000  1.0 0.1085049496
H  H142  1  0.59202000  0.14907000  0.35497000  1.0 0.1015280723
H  H143  1  0.37703000  0.22900000  0.40481000  1.0 0.1015280723
H  H144  1  0.37955000  0.22507000  0.35626000  1.0 0.0905518766
C  C1  1  0.22230000  0.54210000  0.44677000  1.0 0.1883873615
C  C2  1  0.21270000  0.42840000  0.39456000  1.0 -0.1340742101
C  C3  1  0.21150000  0.43010000  0.36745000  1.0 -0.0970639194
C  C4  1  0.21780000  0.48380000  0.32638000  1.0 0.0613680609
C  C5  1  0.22560000  0.54940000  0.31316000  1.0 -0.0970639194
C  C6  1  0.23540000  0.55050000  0.28717000  1.0 -0.050042481
C  C7  1  0.23550000  0.48710000  0.27413000  1.0 -0.0636223353
C  C8  1  0.22260000  0.42270000  0.28619000  1.0 -0.0343436365
C  C9  1  0.21600000  0.42110000  0.31244000  1.0 -0.1106312868
C  C10  1  0.22320000  0.35280000  0.27255000  1.0 0.5806185782
C  C11  1  0.24500000  0.61930000  0.27475000  1.0 0.5806185782
C  C12  1  0.18490000  0.49250000  0.43580000  1.0 -0.0970639194
C  C13  1  0.14710000  0.43840000  0.44640000  1.0 0.2060629117
C  C14  1  0.10400000  0.37860000  0.43580000  1.0 -0.1106312868
C  C15  1  0.07750000  0.34510000  0.45280000  1.0 -0.0970639194
C  C16  1  0.08630000  0.36140000  0.47560000  1.0 0.1842392382
C  C17  1  0.19460000  0.48730000  0.40681000  1.0 0.082775571
C  C18  1  0.16280000  0.54340000  0.39233000  1.0 -0.1236514764
C  C19  1  0.26780000  0.61580000  0.47730000  1.0 0.1842392382
C  C20  1  0.29240000  0.63980000  0.45230000  1.0 -0.001376571
C  C21  1  0.26920000  0.59890000  0.43430000  1.0 -0.1709923734
C  C22  1  0.16820000  0.54340000  0.36621000  1.0 -0.1106312868
C  C23  1  0.19530000  0.48780000  0.35380000  1.0 0.0420943062
C  C24  1  0.77770000  0.45790000  0.44677000  1.0 0.1883873615
C  C25  1  0.78730000  0.57160000  0.39456000  1.0 -0.1340742101
C  C26  1  0.78850000  0.56990000  0.36745000  1.0 -0.0970639194
C  C27  1  0.78220000  0.51620000  0.32638000  1.0 0.0613680609
C  C28  1  0.77440000  0.45060000  0.31316000  1.0 -0.0970639194
C  C29  1  0.76460000  0.44950000  0.28717000  1.0 -0.050042481
C  C30  1  0.76450000  0.51290000  0.27413000  1.0 -0.0636223353
C  C31  1  0.77740000  0.57730000  0.28619000  1.0 -0.0343436365
C  C32  1  0.78400000  0.57890000  0.31244000  1.0 -0.1106312868
C  C33  1  0.77680000  0.64720000  0.27255000  1.0 0.5806185782
C  C34  1  0.75500000  0.38070000  0.27475000  1.0 0.5806185782
C  C35  1  0.81510000  0.50750000  0.43580000  1.0 -0.0970639194
C  C36  1  0.85290000  0.56160000  0.44640000  1.0 0.2060629117
C  C37  1  0.89600000  0.62140000  0.43580000  1.0 -0.1106312868
C  C38  1  0.92250000  0.65490000  0.45280000  1.0 -0.0970639194
C  C39  1  0.91370000  0.63860000  0.47560000  1.0 0.1842392382
C  C40  1  0.80540000  0.51270000  0.40681000  1.0 0.082775571
C  C41  1  0.83720000  0.45660000  0.39233000  1.0 -0.1236514764
C  C42  1  0.73220000  0.38420000  0.47730000  1.0 0.1842392382
C  C43  1  0.70760000  0.36020000  0.45230000  1.0 -0.001376571
C  C44  1  0.73080000  0.40110000  0.43430000  1.0 -0.1709923734
C  C45  1  0.83180000  0.45660000  0.36621000  1.0 -0.1106312868
C  C46  1  0.80470000  0.51220000  0.35380000  1.0 0.0420943062
C  C47  1  0.95790000  0.72230000  0.94677000  1.0 0.1883873615
C  C48  1  0.07160000  0.71270000  0.89456000  1.0 -0.1340742101
C  C49  1  0.06990000  0.71150000  0.86745000  1.0 -0.0970639194
C  C50  1  0.01620000  0.71780000  0.82638000  1.0 0.0613680609
C  C51  1  0.95060000  0.72560000  0.81316000  1.0 -0.0970639194
C  C52  1  0.94950000  0.73540000  0.78717000  1.0 -0.050042481
C  C53  1  0.01290000  0.73550000  0.77413000  1.0 -0.0636223353
C  C54  1  0.07730000  0.72260000  0.78619000  1.0 -0.0343436365
C  C55  1  0.07890000  0.71600000  0.81244000  1.0 -0.1106312868
C  C56  1  0.14720000  0.72320000  0.77255000  1.0 0.5806185782
C  C57  1  0.88070000  0.74500000  0.77475000  1.0 0.5806185782
C  C58  1  0.00750000  0.68490000  0.93580000  1.0 -0.0970639194
C  C59  1  0.06160000  0.64710000  0.94640000  1.0 0.2049518834
C  C60  1  0.12140000  0.60400000  0.93580000  1.0 -0.1106312868
C  C61  1  0.15490000  0.57750000  0.95280000  1.0 -0.0970639194
C  C62  1  0.13860000  0.58630000  0.97560000  1.0 0.1842392382
C  C63  1  0.01270000  0.69460000  0.90681000  1.0 0.082775571
C  C64  1  0.95660000  0.66280000  0.89233000  1.0 -0.1236514764
C  C65  1  0.88420000  0.76780000  0.97730000  1.0 0.1842392382
C  C66  1  0.86020000  0.79240000  0.95230000  1.0 -0.001376571
C  C67  1  0.90110000  0.76920000  0.93430000  1.0 -0.1709923734
C  C68  1  0.95660000  0.66820000  0.86621000  1.0 -0.1106312868
C  C69  1  0.01220000  0.69530000  0.85380000  1.0 0.0420943062
C  C70  1  0.04210000  0.27770000  0.94677000  1.0 0.1883873615
C  C71  1  0.92840000  0.28730000  0.89456000  1.0 -0.1340742101
C  C72  1  0.93010000  0.28850000  0.86745000  1.0 -0.0970639194
C  C73  1  0.98380000  0.28220000  0.82638000  1.0 0.0613680609
C  C74  1  0.04940000  0.27440000  0.81316000  1.0 -0.0970639194
C  C75  1  0.05050000  0.26460000  0.78717000  1.0 -0.050042481
C  C76  1  0.98710000  0.26450000  0.77413000  1.0 -0.0636223353
C  C77  1  0.92270000  0.27740000  0.78619000  1.0 -0.0343436365
C  C78  1  0.92110000  0.28400000  0.81244000  1.0 -0.1106312868
C  C79  1  0.85280000  0.27680000  0.77255000  1.0 0.5806185782
C  C80  1  0.11930000  0.25500000  0.77475000  1.0 0.5806185782
C  C81  1  0.99250000  0.31510000  0.93580000  1.0 -0.0970639194
C  C82  1  0.93840000  0.35290000  0.94640000  1.0 0.2060629117
C  C83  1  0.87860000  0.39600000  0.93580000  1.0 -0.1106312868
C  C84  1  0.84510000  0.42250000  0.95280000  1.0 -0.0970639194
C  C85  1  0.86140000  0.41370000  0.97560000  1.0 0.1842392382
C  C86  1  0.98730000  0.30540000  0.90681000  1.0 0.082775571
C  C87  1  0.04340000  0.33720000  0.89233000  1.0 -0.1236514764
C  C88  1  0.11580000  0.23220000  0.97730000  1.0 0.1842392382
C  C89  1  0.13980000  0.20760000  0.95230000  1.0 -0.001376571
C  C90  1  0.09890000  0.23080000  0.93430000  1.0 -0.1709923734
C  C91  1  0.04340000  0.33180000  0.86621000  1.0 -0.1106312868
C  C92  1  0.98780000  0.30470000  0.85380000  1.0 0.0420943062
C  C93  1  0.27770000  0.04210000  0.05323000  1.0 0.1883873615
C  C94  1  0.28730000  0.92840000  0.10544000  1.0 -0.1340742101
C  C95  1  0.28850000  0.93010000  0.13255000  1.0 -0.0970639194
C  C96  1  0.28220000  0.98380000  0.17362000  1.0 0.0613680609
C  C97  1  0.27440000  0.04940000  0.18684000  1.0 -0.0970639194
C  C98  1  0.26460000  0.05050000  0.21283000  1.0 -0.050042481
C  C99  1  0.26450000  0.98710000  0.22587000  1.0 -0.0636223353
C  C100  1  0.27740000  0.92270000  0.21381000  1.0 -0.0343436365
C  C101  1  0.28400000  0.92110000  0.18756000  1.0 -0.1106312868
C  C102  1  0.27680000  0.85280000  0.22745000  1.0 0.5806185782
C  C103  1  0.25500000  0.11930000  0.22525000  1.0 0.5806185782
C  C104  1  0.31510000  0.99250000  0.06420000  1.0 -0.0970639194
C  C105  1  0.35290000  0.93840000  0.05360000  1.0 0.2060629117
C  C106  1  0.39600000  0.87860000  0.06420000  1.0 -0.1106312868
C  C107  1  0.42250000  0.84510000  0.04720000  1.0 -0.0970639194
C  C108  1  0.41370000  0.86140000  0.02440000  1.0 0.1842392382
C  C109  1  0.30540000  0.98730000  0.09319000  1.0 0.082775571
C  C110  1  0.33720000  0.04340000  0.10767000  1.0 -0.1236514764
C  C111  1  0.23220000  0.11580000  0.02270000  1.0 0.1842392382
C  C112  1  0.20760000  0.13980000  0.04770000  1.0 -0.001376571
C  C113  1  0.23080000  0.09890000  0.06570000  1.0 -0.1709923734
C  C114  1  0.33180000  0.04340000  0.13379000  1.0 -0.1106312868
C  C115  1  0.30470000  0.98780000  0.14620000  1.0 0.0420943062
C  C116  1  0.72230000  0.95790000  0.05323000  1.0 0.1883873615
C  C117  1  0.71270000  0.07160000  0.10544000  1.0 -0.1340742101
C  C118  1  0.71150000  0.06990000  0.13255000  1.0 -0.0970639194
C  C119  1  0.71780000  0.01620000  0.17362000  1.0 0.0613680609
C  C120  1  0.72560000  0.95060000  0.18684000  1.0 -0.0970639194
C  C121  1  0.73540000  0.94950000  0.21283000  1.0 -0.050042481
C  C122  1  0.73550000  0.01290000  0.22587000  1.0 -0.0636223353
C  C123  1  0.72260000  0.07730000  0.21381000  1.0 -0.0343436365
C  C124  1  0.71600000  0.07890000  0.18756000  1.0 -0.1106312868
C  C125  1  0.72320000  0.14720000  0.22745000  1.0 0.5806185782
C  C126  1  0.74500000  0.88070000  0.22525000  1.0 0.5806185782
C  C127  1  0.68490000  0.00750000  0.06420000  1.0 -0.0970639194
C  C128  1  0.64710000  0.06160000  0.05360000  1.0 0.2049518834
C  C129  1  0.60400000  0.12140000  0.06420000  1.0 -0.1106312868
C  C130  1  0.57750000  0.15490000  0.04720000  1.0 -0.0970639194
C  C131  1  0.58630000  0.13860000  0.02440000  1.0 0.1842392382
C  C132  1  0.69460000  0.01270000  0.09319000  1.0 0.082775571
C  C133  1  0.66280000  0.95660000  0.10767000  1.0 -0.1236514764
C  C134  1  0.76780000  0.88420000  0.02270000  1.0 0.1842392382
C  C135  1  0.79240000  0.86020000  0.04770000  1.0 -0.001376571
C  C136  1  0.76920000  0.90110000  0.06570000  1.0 -0.1709923734
C  C137  1  0.66820000  0.95660000  0.13379000  1.0 -0.1106312868
C  C138  1  0.69530000  0.01220000  0.14620000  1.0 0.0420943062
C  C139  1  0.54210000  0.22230000  0.55323000  1.0 0.1883873615
C  C140  1  0.42840000  0.21270000  0.60544000  1.0 -0.1340742101
C  C141  1  0.43010000  0.21150000  0.63255000  1.0 -0.0970639194
C  C142  1  0.48380000  0.21780000  0.67362000  1.0 0.0613680609
C  C143  1  0.54940000  0.22560000  0.68684000  1.0 -0.0970639194
C  C144  1  0.55050000  0.23540000  0.71283000  1.0 -0.050042481
C  C145  1  0.48710000  0.23550000  0.72587000  1.0 -0.0636223353
C  C146  1  0.42270000  0.22260000  0.71381000  1.0 -0.0343436365
C  C147  1  0.42110000  0.21600000  0.68756000  1.0 -0.1106312868
C  C148  1  0.35280000  0.22320000  0.72745000  1.0 0.5806185782
C  C149  1  0.61930000  0.24500000  0.72525000  1.0 0.5806185782
C  C150  1  0.49250000  0.18490000  0.56420000  1.0 -0.0970639194
C  C151  1  0.43840000  0.14710000  0.55360000  1.0 0.2060629117
C  C152  1  0.37860000  0.10400000  0.56420000  1.0 -0.1106312868
C  C153  1  0.34510000  0.07750000  0.54720000  1.0 -0.0970639194
C  C154  1  0.36140000  0.08630000  0.52440000  1.0 0.1842392382
C  C155  1  0.48730000  0.19460000  0.59319000  1.0 0.082775571
C  C156  1  0.54340000  0.16280000  0.60767000  1.0 -0.1236514764
C  C157  1  0.61580000  0.26780000  0.52270000  1.0 0.1842392382
C  C158  1  0.63980000  0.29240000  0.54770000  1.0 -0.001376571
C  C159  1  0.59890000  0.26920000  0.56570000  1.0 -0.1709923734
C  C160  1  0.54340000  0.16820000  0.63379000  1.0 -0.1106312868
C  C161  1  0.48780000  0.19530000  0.64620000  1.0 0.0420943062
C  C162  1  0.45790000  0.77770000  0.55323000  1.0 0.1883873615
C  C163  1  0.57160000  0.78730000  0.60544000  1.0 -0.1340742101
C  C164  1  0.56990000  0.78850000  0.63255000  1.0 -0.0970639194
C  C165  1  0.51620000  0.78220000  0.67362000  1.0 0.0613680609
C  C166  1  0.45060000  0.77440000  0.68684000  1.0 -0.0970639194
C  C167  1  0.44950000  0.76460000  0.71283000  1.0 -0.050042481
C  C168  1  0.51290000  0.76450000  0.72587000  1.0 -0.0636223353
C  C169  1  0.57730000  0.77740000  0.71381000  1.0 -0.0343436365
C  C170  1  0.57890000  0.78400000  0.68756000  1.0 -0.1106312868
C  C171  1  0.64720000  0.77680000  0.72745000  1.0 0.5806185782
C  C172  1  0.38070000  0.75500000  0.72525000  1.0 0.5806185782
C  C173  1  0.50750000  0.81510000  0.56420000  1.0 -0.0970639194
C  C174  1  0.56160000  0.85290000  0.55360000  1.0 0.2060629117
C  C175  1  0.62140000  0.89600000  0.56420000  1.0 -0.1106312868
C  C176  1  0.65490000  0.92250000  0.54720000  1.0 -0.0970639194
C  C177  1  0.63860000  0.91370000  0.52440000  1.0 0.1842392382
C  C178  1  0.51270000  0.80540000  0.59319000  1.0 0.082775571
C  C179  1  0.45660000  0.83720000  0.60767000  1.0 -0.1236514764
C  C180  1  0.38420000  0.73220000  0.52270000  1.0 0.1842392382
C  C181  1  0.36020000  0.70760000  0.54770000  1.0 -0.001376571
C  C182  1  0.40110000  0.73080000  0.56570000  1.0 -0.1709923734
C  C183  1  0.45660000  0.83180000  0.63379000  1.0 -0.1106312868
C  C184  1  0.51220000  0.80470000  0.64620000  1.0 0.0420943062
C  C185  1  0.77770000  0.45790000  0.55323000  1.0 0.1883873615
C  C186  1  0.78730000  0.57160000  0.60544000  1.0 -0.1340742101
C  C187  1  0.78850000  0.56990000  0.63255000  1.0 -0.0970639194
C  C188  1  0.78220000  0.51620000  0.67362000  1.0 0.0613680609
C  C189  1  0.77440000  0.45060000  0.68684000  1.0 -0.0970639194
C  C190  1  0.76460000  0.44950000  0.71283000  1.0 -0.050042481
C  C191  1  0.76450000  0.51290000  0.72587000  1.0 -0.0636223353
C  C192  1  0.77740000  0.57730000  0.71381000  1.0 -0.0343436365
C  C193  1  0.78400000  0.57890000  0.68756000  1.0 -0.1106312868
C  C194  1  0.77680000  0.64720000  0.72745000  1.0 0.5806185782
C  C195  1  0.75500000  0.38070000  0.72525000  1.0 0.5806185782
C  C196  1  0.81510000  0.50750000  0.56420000  1.0 -0.0970639194
C  C197  1  0.85290000  0.56160000  0.55360000  1.0 0.2060629117
C  C198  1  0.89600000  0.62140000  0.56420000  1.0 -0.1106312868
C  C199  1  0.92250000  0.65490000  0.54720000  1.0 -0.0970639194
C  C200  1  0.91370000  0.63860000  0.52440000  1.0 0.1842392382
C  C201  1  0.80540000  0.51270000  0.59319000  1.0 0.082775571
C  C202  1  0.83720000  0.45660000  0.60767000  1.0 -0.1236514764
C  C203  1  0.73220000  0.38420000  0.52270000  1.0 0.1842392382
C  C204  1  0.70760000  0.36020000  0.54770000  1.0 -0.001376571
C  C205  1  0.73080000  0.40110000  0.56570000  1.0 -0.1709923734
C  C206  1  0.83180000  0.45660000  0.63379000  1.0 -0.1106312868
C  C207  1  0.80470000  0.51220000  0.64620000  1.0 0.0420943062
C  C208  1  0.22230000  0.54210000  0.55323000  1.0 0.1883873615
C  C209  1  0.21270000  0.42840000  0.60544000  1.0 -0.1340742101
C  C210  1  0.21150000  0.43010000  0.63255000  1.0 -0.0970639194
C  C211  1  0.21780000  0.48380000  0.67362000  1.0 0.0613680609
C  C212  1  0.22560000  0.54940000  0.68684000  1.0 -0.0970639194
C  C213  1  0.23540000  0.55050000  0.71283000  1.0 -0.050042481
C  C214  1  0.23550000  0.48710000  0.72587000  1.0 -0.0636223353
C  C215  1  0.22260000  0.42270000  0.71381000  1.0 -0.0343436365
C  C216  1  0.21600000  0.42110000  0.68756000  1.0 -0.1106312868
C  C217  1  0.22320000  0.35280000  0.72745000  1.0 0.5806185782
C  C218  1  0.24500000  0.61930000  0.72525000  1.0 0.5806185782
C  C219  1  0.18490000  0.49250000  0.56420000  1.0 -0.0970639194
C  C220  1  0.14710000  0.43840000  0.55360000  1.0 0.2060629117
C  C221  1  0.10400000  0.37860000  0.56420000  1.0 -0.1106312868
C  C222  1  0.07750000  0.34510000  0.54720000  1.0 -0.0970639194
C  C223  1  0.08630000  0.36140000  0.52440000  1.0 0.1842392382
C  C224  1  0.19460000  0.48730000  0.59319000  1.0 0.082775571
C  C225  1  0.16280000  0.54340000  0.60767000  1.0 -0.1236514764
C  C226  1  0.26780000  0.61580000  0.52270000  1.0 0.1842392382
C  C227  1  0.29240000  0.63980000  0.54770000  1.0 -0.001376571
C  C228  1  0.26920000  0.59890000  0.56570000  1.0 -0.1709923734
C  C229  1  0.16820000  0.54340000  0.63379000  1.0 -0.1106312868
C  C230  1  0.19530000  0.48780000  0.64620000  1.0 0.0420943062
C  C231  1  0.04210000  0.27770000  0.05323000  1.0 0.1883873615
C  C232  1  0.92840000  0.28730000  0.10544000  1.0 -0.1340742101
C  C233  1  0.93010000  0.28850000  0.13255000  1.0 -0.0970639194
C  C234  1  0.98380000  0.28220000  0.17362000  1.0 0.0613680609
C  C235  1  0.04940000  0.27440000  0.18684000  1.0 -0.0970639194
C  C236  1  0.05050000  0.26460000  0.21283000  1.0 -0.050042481
C  C237  1  0.98710000  0.26450000  0.22587000  1.0 -0.0636223353
C  C238  1  0.92270000  0.27740000  0.21381000  1.0 -0.0343436365
C  C239  1  0.92110000  0.28400000  0.18756000  1.0 -0.1106312868
C  C240  1  0.85280000  0.27680000  0.22745000  1.0 0.5806185782
C  C241  1  0.11930000  0.25500000  0.22525000  1.0 0.5806185782
C  C242  1  0.99250000  0.31510000  0.06420000  1.0 -0.0947096039
C  C243  1  0.93840000  0.35290000  0.05360000  1.0 0.2060629117
C  C244  1  0.87860000  0.39600000  0.06420000  1.0 -0.1106312868
C  C245  1  0.84510000  0.42250000  0.04720000  1.0 -0.0970639194
C  C246  1  0.86140000  0.41370000  0.02440000  1.0 0.1842392382
C  C247  1  0.98730000  0.30540000  0.09319000  1.0 0.082775571
C  C248  1  0.04340000  0.33720000  0.10767000  1.0 -0.1236514764
C  C249  1  0.11580000  0.23220000  0.02270000  1.0 0.1842392382
C  C250  1  0.13980000  0.20760000  0.04770000  1.0 -0.001376571
C  C251  1  0.09890000  0.23080000  0.06570000  1.0 -0.1709923734
C  C252  1  0.04340000  0.33180000  0.13379000  1.0 -0.1106312868
C  C253  1  0.98780000  0.30470000  0.14620000  1.0 0.0420943062
C  C254  1  0.95790000  0.72230000  0.05323000  1.0 0.1883873615
C  C255  1  0.07160000  0.71270000  0.10544000  1.0 -0.1340742101
C  C256  1  0.06990000  0.71150000  0.13255000  1.0 -0.0970639194
C  C257  1  0.01620000  0.71780000  0.17362000  1.0 0.0613680609
C  C258  1  0.95060000  0.72560000  0.18684000  1.0 -0.0970639194
C  C259  1  0.94950000  0.73540000  0.21283000  1.0 -0.050042481
C  C260  1  0.01290000  0.73550000  0.22587000  1.0 -0.0636223353
C  C261  1  0.07730000  0.72260000  0.21381000  1.0 -0.0343436365
C  C262  1  0.07890000  0.71600000  0.18756000  1.0 -0.1106312868
C  C263  1  0.14720000  0.72320000  0.22745000  1.0 0.5806185782
C  C264  1  0.88070000  0.74500000  0.22525000  1.0 0.5806185782
C  C265  1  0.00750000  0.68490000  0.06420000  1.0 -0.0970639194
C  C266  1  0.06160000  0.64710000  0.05360000  1.0 0.2049518834
C  C267  1  0.12140000  0.60400000  0.06420000  1.0 -0.1106312868
C  C268  1  0.15490000  0.57750000  0.04720000  1.0 -0.0970639194
C  C269  1  0.13860000  0.58630000  0.02440000  1.0 0.1842392382
C  C270  1  0.01270000  0.69460000  0.09319000  1.0 0.082775571
C  C271  1  0.95660000  0.66280000  0.10767000  1.0 -0.1236514764
C  C272  1  0.88420000  0.76780000  0.02270000  1.0 0.1842392382
C  C273  1  0.86020000  0.79240000  0.04770000  1.0 -0.001376571
C  C274  1  0.90110000  0.76920000  0.06570000  1.0 -0.1709923734
C  C275  1  0.95660000  0.66820000  0.13379000  1.0 -0.1106312868
C  C276  1  0.01220000  0.69530000  0.14620000  1.0 0.0420943062
C  C277  1  0.72230000  0.95790000  0.94677000  1.0 0.1883873615
C  C278  1  0.71270000  0.07160000  0.89456000  1.0 -0.1340742101
C  C279  1  0.71150000  0.06990000  0.86745000  1.0 -0.0970639194
C  C280  1  0.71780000  0.01620000  0.82638000  1.0 0.0613680609
C  C281  1  0.72560000  0.95060000  0.81316000  1.0 -0.0970639194
C  C282  1  0.73540000  0.94950000  0.78717000  1.0 -0.050042481
C  C283  1  0.73550000  0.01290000  0.77413000  1.0 -0.0636223353
C  C284  1  0.72260000  0.07730000  0.78619000  1.0 -0.0343436365
C  C285  1  0.71600000  0.07890000  0.81244000  1.0 -0.1106312868
C  C286  1  0.72320000  0.14720000  0.77255000  1.0 0.5806185782
C  C287  1  0.74500000  0.88070000  0.77475000  1.0 0.5806185782
C  C288  1  0.68490000  0.00750000  0.93580000  1.0 -0.0970639194
C  C289  1  0.64710000  0.06160000  0.94640000  1.0 0.2060629117
C  C290  1  0.60400000  0.12140000  0.93580000  1.0 -0.1106312868
C  C291  1  0.57750000  0.15490000  0.95280000  1.0 -0.0970639194
C  C292  1  0.58630000  0.13860000  0.97560000  1.0 0.1842392382
C  C293  1  0.69460000  0.01270000  0.90681000  1.0 0.082775571
C  C294  1  0.66280000  0.95660000  0.89233000  1.0 -0.1236514764
C  C295  1  0.76780000  0.88420000  0.97730000  1.0 0.1842392382
C  C296  1  0.79240000  0.86020000  0.95230000  1.0 -0.001376571
C  C297  1  0.76920000  0.90110000  0.93430000  1.0 -0.1709923734
C  C298  1  0.66820000  0.95660000  0.86621000  1.0 -0.1106312868
C  C299  1  0.69530000  0.01220000  0.85380000  1.0 0.0420943062
C  C300  1  0.27770000  0.04210000  0.94677000  1.0 0.1883873615
C  C301  1  0.28730000  0.92840000  0.89456000  1.0 -0.1340742101
C  C302  1  0.28850000  0.93010000  0.86745000  1.0 -0.0970639194
C  C303  1  0.28220000  0.98380000  0.82638000  1.0 0.0613680609
C  C304  1  0.27440000  0.04940000  0.81316000  1.0 -0.0970639194
C  C305  1  0.26460000  0.05050000  0.78717000  1.0 -0.050042481
C  C306  1  0.26450000  0.98710000  0.77413000  1.0 -0.0636223353
C  C307  1  0.27740000  0.92270000  0.78619000  1.0 -0.0343436365
C  C308  1  0.28400000  0.92110000  0.81244000  1.0 -0.1106312868
C  C309  1  0.27680000  0.85280000  0.77255000  1.0 0.5806185782
C  C310  1  0.25500000  0.11930000  0.77475000  1.0 0.5806185782
C  C311  1  0.31510000  0.99250000  0.93580000  1.0 -0.0970639194
C  C312  1  0.35290000  0.93840000  0.94640000  1.0 0.2060629117
C  C313  1  0.39600000  0.87860000  0.93580000  1.0 -0.1106312868
C  C314  1  0.42250000  0.84510000  0.95280000  1.0 -0.0970639194
C  C315  1  0.41370000  0.86140000  0.97560000  1.0 0.1842392382
C  C316  1  0.30540000  0.98730000  0.90681000  1.0 0.082775571
C  C317  1  0.33720000  0.04340000  0.89233000  1.0 -0.1236514764
C  C318  1  0.23220000  0.11580000  0.97730000  1.0 0.1842392382
C  C319  1  0.20760000  0.13980000  0.95230000  1.0 -0.001376571
C  C320  1  0.23080000  0.09890000  0.93430000  1.0 -0.1709923734
C  C321  1  0.33180000  0.04340000  0.86621000  1.0 -0.1106312868
C  C322  1  0.30470000  0.98780000  0.85380000  1.0 0.0420943062
C  C323  1  0.45790000  0.77770000  0.44677000  1.0 0.1883873615
C  C324  1  0.57160000  0.78730000  0.39456000  1.0 -0.1340742101
C  C325  1  0.56990000  0.78850000  0.36745000  1.0 -0.0970639194
C  C326  1  0.51620000  0.78220000  0.32638000  1.0 0.0613680609
C  C327  1  0.45060000  0.77440000  0.31316000  1.0 -0.0970639194
C  C328  1  0.44950000  0.76460000  0.28717000  1.0 -0.050042481
C  C329  1  0.51290000  0.76450000  0.27413000  1.0 -0.0636223353
C  C330  1  0.57730000  0.77740000  0.28619000  1.0 -0.0343436365
C  C331  1  0.57890000  0.78400000  0.31244000  1.0 -0.1106312868
C  C332  1  0.64720000  0.77680000  0.27255000  1.0 0.5806185782
C  C333  1  0.38070000  0.75500000  0.27475000  1.0 0.5806185782
C  C334  1  0.50750000  0.81510000  0.43580000  1.0 -0.0970639194
C  C335  1  0.56160000  0.85290000  0.44640000  1.0 0.2060629117
C  C336  1  0.62140000  0.89600000  0.43580000  1.0 -0.1106312868
C  C337  1  0.65490000  0.92250000  0.45280000  1.0 -0.0970639194
C  C338  1  0.63860000  0.91370000  0.47560000  1.0 0.1842392382
C  C339  1  0.51270000  0.80540000  0.40681000  1.0 0.082775571
C  C340  1  0.45660000  0.83720000  0.39233000  1.0 -0.1236514764
C  C341  1  0.38420000  0.73220000  0.47730000  1.0 0.1842392382
C  C342  1  0.36020000  0.70760000  0.45230000  1.0 -0.001376571
C  C343  1  0.40110000  0.73080000  0.43430000  1.0 -0.1709923734
C  C344  1  0.45660000  0.83180000  0.36621000  1.0 -0.1106312868
C  C345  1  0.51220000  0.80470000  0.35380000  1.0 0.0420943062
C  C346  1  0.54210000  0.22230000  0.44677000  1.0 0.1883873615
C  C347  1  0.42840000  0.21270000  0.39456000  1.0 -0.1340742101
C  C348  1  0.43010000  0.21150000  0.36745000  1.0 -0.0970639194
C  C349  1  0.48380000  0.21780000  0.32638000  1.0 0.0613680609
C  C350  1  0.54940000  0.22560000  0.31316000  1.0 -0.0970639194
C  C351  1  0.55050000  0.23540000  0.28717000  1.0 -0.050042481
C  C352  1  0.48710000  0.23550000  0.27413000  1.0 -0.0636223353
C  C353  1  0.42270000  0.22260000  0.28619000  1.0 -0.0343436365
C  C354  1  0.42110000  0.21600000  0.31244000  1.0 -0.1106312868
C  C355  1  0.35280000  0.22320000  0.27255000  1.0 0.5806185782
C  C356  1  0.61930000  0.24500000  0.27475000  1.0 0.5806185782
C  C357  1  0.49250000  0.18490000  0.43580000  1.0 -0.0970639194
C  C358  1  0.43840000  0.14710000  0.44640000  1.0 0.2060629117
C  C359  1  0.37860000  0.10400000  0.43580000  1.0 -0.1106312868
C  C360  1  0.34510000  0.07750000  0.45280000  1.0 -0.0970639194
C  C361  1  0.36140000  0.08630000  0.47560000  1.0 0.1842392382
C  C362  1  0.48730000  0.19460000  0.40681000  1.0 0.082775571
C  C363  1  0.54340000  0.16280000  0.39233000  1.0 -0.1236514764
C  C364  1  0.61580000  0.26780000  0.47730000  1.0 0.1842392382
C  C365  1  0.63980000  0.29240000  0.45230000  1.0 -0.001376571
C  C366  1  0.59890000  0.26920000  0.43430000  1.0 -0.1709923734
C  C367  1  0.54340000  0.16820000  0.36621000  1.0 -0.1106312868
C  C368  1  0.48780000  0.19530000  0.35380000  1.0 0.0420943062
C  C369  1  0.07110000  0.34660000  0.50000000  1.0 -0.2225138811
C  C370  1  0.28880000  0.64380000  0.50000000  1.0 -0.1106312868
C  C371  1  0.92890000  0.65340000  0.50000000  1.0 -0.2225138811
C  C372  1  0.71120000  0.35620000  0.50000000  1.0 -0.1106312868
C  C373  1  0.15340000  0.57110000  0.00000000  1.0 -0.2225138811
C  C374  1  0.85620000  0.78880000  0.00000000  1.0 -0.1106312868
C  C375  1  0.84660000  0.42890000  0.00000000  1.0 -0.2225138811
C  C376  1  0.14380000  0.21120000  0.00000000  1.0 -0.1106312868
C  C377  1  0.42890000  0.84660000  0.00000000  1.0 -0.2225138811
C  C378  1  0.21120000  0.14380000  0.00000000  1.0 -0.1106312868
C  C379  1  0.57110000  0.15340000  0.00000000  1.0 -0.2250927527
C  C380  1  0.78880000  0.85620000  0.00000000  1.0 -0.1106312868
C  C381  1  0.34660000  0.07110000  0.50000000  1.0 -0.2225138811
C  C382  1  0.64380000  0.28880000  0.50000000  1.0 -0.1106312868
C  C383  1  0.65340000  0.92890000  0.50000000  1.0 -0.2225138811
C  C384  1  0.35620000  0.71120000  0.50000000  1.0 -0.1106312868
N  N1  1  0.22050000  0.55450000  0.47303000  1.0 -0.382202803
N  N2  1  0.13620000  0.43200000  0.47250000  1.0 -0.3517082267
N  N3  1  0.77950000  0.44550000  0.47303000  1.0 -0.382202803
N  N4  1  0.86380000  0.56800000  0.47250000  1.0 -0.3517082267
N  N5  1  0.94550000  0.72050000  0.97303000  1.0 -0.382202803
N  N6  1  0.06800000  0.63620000  0.97250000  1.0 -0.3517082267
N  N7  1  0.05450000  0.27950000  0.97303000  1.0 -0.382202803
N  N8  1  0.93200000  0.36380000  0.97250000  1.0 -0.3517082267
N  N9  1  0.27950000  0.05450000  0.02697000  1.0 -0.382202803
N  N10  1  0.36380000  0.93200000  0.02750000  1.0 -0.3517082267
N  N11  1  0.72050000  0.94550000  0.02697000  1.0 -0.382202803
N  N12  1  0.63620000  0.06800000  0.02750000  1.0 -0.3517082267
N  N13  1  0.55450000  0.22050000  0.52697000  1.0 -0.382202803
N  N14  1  0.43200000  0.13620000  0.52750000  1.0 -0.3517082267
N  N15  1  0.44550000  0.77950000  0.52697000  1.0 -0.382202803
N  N16  1  0.56800000  0.86380000  0.52750000  1.0 -0.3517082267
N  N17  1  0.77950000  0.44550000  0.52697000  1.0 -0.382202803
N  N18  1  0.86380000  0.56800000  0.52750000  1.0 -0.3517082267
N  N19  1  0.22050000  0.55450000  0.52697000  1.0 -0.382202803
N  N20  1  0.13620000  0.43200000  0.52750000  1.0 -0.3517082267
N  N21  1  0.05450000  0.27950000  0.02697000  1.0 -0.382202803
N  N22  1  0.93200000  0.36380000  0.02750000  1.0 -0.3517082267
N  N23  1  0.94550000  0.72050000  0.02697000  1.0 -0.382202803
N  N24  1  0.06800000  0.63620000  0.02750000  1.0 -0.3517082267
N  N25  1  0.72050000  0.94550000  0.97303000  1.0 -0.382202803
N  N26  1  0.63620000  0.06800000  0.97250000  1.0 -0.3517082267
N  N27  1  0.27950000  0.05450000  0.97303000  1.0 -0.382202803
N  N28  1  0.36380000  0.93200000  0.97250000  1.0 -0.3517082267
N  N29  1  0.44550000  0.77950000  0.47303000  1.0 -0.382202803
N  N30  1  0.56800000  0.86380000  0.47250000  1.0 -0.3517082267
N  N31  1  0.55450000  0.22050000  0.47303000  1.0 -0.382202803
N  N32  1  0.43200000  0.13620000  0.47250000  1.0 -0.3517082267
O  O1  1  0.25170000  0.35555000  0.25007000  1.0 -0.5391992953
O  O2  1  0.19560000  0.29860000  0.28269000  1.0 -0.4974283472
O  O3  1  0.22260000  0.67480000  0.28524000  1.0 -0.4974283472
O  O4  1  0.27590000  0.61890000  0.25311000  1.0 -0.5221294452
O  O5  1  0.74830000  0.64445000  0.25007000  1.0 -0.5391992953
O  O6  1  0.80440000  0.70140000  0.28269000  1.0 -0.4974283472
O  O7  1  0.77740000  0.32520000  0.28524000  1.0 -0.4974283472
O  O8  1  0.72410000  0.38110000  0.25311000  1.0 -0.5221294452
O  O9  1  0.14445000  0.75170000  0.75007000  1.0 -0.5391992953
O  O10  1  0.20140000  0.69560000  0.78269000  1.0 -0.4974283472
O  O11  1  0.82520000  0.72260000  0.78524000  1.0 -0.4974283472
O  O12  1  0.88110000  0.77590000  0.75311000  1.0 -0.5221294452
O  O13  1  0.85555000  0.24830000  0.75007000  1.0 -0.5391992953
O  O14  1  0.79860000  0.30440000  0.78269000  1.0 -0.4974283472
O  O15  1  0.17480000  0.27740000  0.78524000  1.0 -0.4974283472
O  O16  1  0.11890000  0.22410000  0.75311000  1.0 -0.5221294452
O  O17  1  0.24830000  0.85555000  0.24993000  1.0 -0.5391992953
O  O18  1  0.30440000  0.79860000  0.21731000  1.0 -0.4974283472
O  O19  1  0.27740000  0.17480000  0.21476000  1.0 -0.4974283472
O  O20  1  0.22410000  0.11890000  0.24689000  1.0 -0.5221294452
O  O21  1  0.75170000  0.14445000  0.24993000  1.0 -0.5391992953
O  O22  1  0.69560000  0.20140000  0.21731000  1.0 -0.4974283472
O  O23  1  0.72260000  0.82520000  0.21476000  1.0 -0.4974283472
O  O24  1  0.77590000  0.88110000  0.24689000  1.0 -0.5221294452
O  O25  1  0.35555000  0.25170000  0.74993000  1.0 -0.5391992953
O  O26  1  0.29860000  0.19560000  0.71731000  1.0 -0.4974283472
O  O27  1  0.67480000  0.22260000  0.71476000  1.0 -0.4974283472
O  O28  1  0.61890000  0.27590000  0.74689000  1.0 -0.5221294452
O  O29  1  0.64445000  0.74830000  0.74993000  1.0 -0.5391992953
O  O30  1  0.70140000  0.80440000  0.71731000  1.0 -0.4974283472
O  O31  1  0.32520000  0.77740000  0.71476000  1.0 -0.4974283472
O  O32  1  0.38110000  0.72410000  0.74689000  1.0 -0.5221294452
O  O33  1  0.74830000  0.64445000  0.74993000  1.0 -0.5391992953
O  O34  1  0.80440000  0.70140000  0.71731000  1.0 -0.4974283472
O  O35  1  0.77740000  0.32520000  0.71476000  1.0 -0.4974283472
O  O36  1  0.72410000  0.38110000  0.74689000  1.0 -0.5221294452
O  O37  1  0.25170000  0.35555000  0.74993000  1.0 -0.5391992953
O  O38  1  0.19560000  0.29860000  0.71731000  1.0 -0.4974283472
O  O39  1  0.22260000  0.67480000  0.71476000  1.0 -0.4974283472
O  O40  1  0.27590000  0.61890000  0.74689000  1.0 -0.5221294452
O  O41  1  0.85555000  0.24830000  0.24993000  1.0 -0.5391992953
O  O42  1  0.79860000  0.30440000  0.21731000  1.0 -0.4974283472
O  O43  1  0.17480000  0.27740000  0.21476000  1.0 -0.4974283472
O  O44  1  0.11890000  0.22410000  0.24689000  1.0 -0.5221294452
O  O45  1  0.14445000  0.75170000  0.24993000  1.0 -0.5391992953
O  O46  1  0.20140000  0.69560000  0.21731000  1.0 -0.4974283472
O  O47  1  0.82520000  0.72260000  0.21476000  1.0 -0.4974283472
O  O48  1  0.88110000  0.77590000  0.24689000  1.0 -0.5221294452
O  O49  1  0.75170000  0.14445000  0.75007000  1.0 -0.5391992953
O  O50  1  0.69560000  0.20140000  0.78269000  1.0 -0.4974283472
O  O51  1  0.72260000  0.82520000  0.78524000  1.0 -0.4974283472
O  O52  1  0.77590000  0.88110000  0.75311000  1.0 -0.5221294452
O  O53  1  0.24830000  0.85555000  0.75007000  1.0 -0.5391992953
O  O54  1  0.30440000  0.79860000  0.78269000  1.0 -0.4974283472
O  O55  1  0.27740000  0.17480000  0.78524000  1.0 -0.4974283472
O  O56  1  0.22410000  0.11890000  0.75311000  1.0 -0.5221294452
O  O57  1  0.64445000  0.74830000  0.25007000  1.0 -0.5391992953
O  O58  1  0.70140000  0.80440000  0.28269000  1.0 -0.4974283472
O  O59  1  0.32520000  0.77740000  0.28524000  1.0 -0.4974283472
O  O60  1  0.38110000  0.72410000  0.25311000  1.0 -0.5221294452
O  O61  1  0.35555000  0.25170000  0.25007000  1.0 -0.5391992953
O  O62  1  0.29860000  0.19560000  0.28269000  1.0 -0.4974283472
O  O63  1  0.67480000  0.22260000  0.28524000  1.0 -0.4974283472
O  O64  1  0.61890000  0.27590000  0.25311000  1.0 -0.5221294452
