# DDEC6 charges by PACMAN v1.1 (https://github.com/mtap-research/PACMAN-charge/)
data_REWNEO_ASR_pacman
_symmetry_space_group_name_H-M   'P 1'
_cell_length_a   31.49770000
_cell_length_b   31.49770000
_cell_length_c   31.49770000
_cell_angle_alpha   120.39200000
_cell_angle_beta   120.39200000
_cell_angle_gamma   89.32250000
_symmetry_Int_Tables_number   1
_chemical_formula_structural   CuH5C12N3O4
_chemical_formula_sum   'Cu24 H120 C288 N72 O96'
_cell_volume   21963.78689062
_cell_formula_units_Z   24
loop_
 _symmetry_equiv_pos_site_id
 _symmetry_equiv_pos_as_xyz
  1  'x, y, z'
loop_
 _atom_site_type_symbol
 _atom_site_label
 _atom_site_symmetry_multiplicity
 _atom_site_fract_x
 _atom_site_fract_y
 _atom_site_fract_z
 _atom_site_occupancy
 _atom_site_charge
Cu  Cu1  1  0.52225000  0.77215000  0.04000000  1.0 0.8804771855
Cu  Cu2  1  0.77215000  0.73215000  0.24990000  1.0 0.8804771855
Cu  Cu3  1  0.73215000  0.48225000  0.96000000  1.0 0.8804771855
Cu  Cu4  1  0.48225000  0.52225000  0.75010000  1.0 0.8804771855
Cu  Cu5  1  0.47775000  0.22785000  0.96000000  1.0 0.8804771855
Cu  Cu6  1  0.22785000  0.26785000  0.75010000  1.0 0.8804771855
Cu  Cu7  1  0.26785000  0.51775000  0.04000000  1.0 0.8804771855
Cu  Cu8  1  0.51775000  0.47775000  0.24990000  1.0 0.8804771855
Cu  Cu9  1  0.52684000  0.86207000  0.05259000  1.0 0.9004537418
Cu  Cu10  1  0.86207000  0.80948000  0.33523000  1.0 0.9004537418
Cu  Cu11  1  0.80948000  0.47425000  0.94741000  1.0 0.9004537418
Cu  Cu12  1  0.47425000  0.52684000  0.66477000  1.0 0.9004537418
Cu  Cu13  1  0.47316000  0.13793000  0.94741000  1.0 0.9004537418
Cu  Cu14  1  0.13793000  0.19052000  0.66477000  1.0 0.9004537418
Cu  Cu15  1  0.19052000  0.52575000  0.05259000  1.0 0.9004537418
Cu  Cu16  1  0.52575000  0.47316000  0.33523000  1.0 0.9004537418
Cu  Cu17  1  0.25052000  0.53852000  0.78904000  1.0 0.9113078072
Cu  Cu18  1  0.53852000  0.74948000  0.28800000  1.0 0.9113078072
Cu  Cu19  1  0.74948000  0.46148000  0.21096000  1.0 0.9113078072
Cu  Cu20  1  0.46148000  0.25052000  0.71200000  1.0 0.9113078072
Cu  Cu21  1  0.16650000  0.55021000  0.71671000  1.0 0.8873817876
Cu  Cu22  1  0.55021000  0.83350000  0.38371000  1.0 0.8873817876
Cu  Cu23  1  0.83350000  0.44979000  0.28329000  1.0 0.8873817876
Cu  Cu24  1  0.44979000  0.16650000  0.61629000  1.0 0.8873817876
H  H1  1  0.17800000  0.08820000  0.71820000  1.0 0.1474546
H  H2  1  0.08820000  0.37000000  0.91020000  1.0 0.1474546
H  H3  1  0.37000000  0.45980000  0.28180000  1.0 0.1474546
H  H4  1  0.45980000  0.17800000  0.08980000  1.0 0.1474546
H  H5  1  0.82200000  0.91180000  0.28180000  1.0 0.1474546
H  H6  1  0.91180000  0.63000000  0.08980000  1.0 0.1474546
H  H7  1  0.63000000  0.54020000  0.71820000  1.0 0.1474546
H  H8  1  0.54020000  0.82200000  0.91020000  1.0 0.1474546
H  H9  1  0.24690000  0.99190000  0.78860000  1.0 0.1329121242
H  H10  1  0.99190000  0.20330000  0.74500000  1.0 0.1329121242
H  H11  1  0.20330000  0.45830000  0.21140000  1.0 0.1329121242
H  H12  1  0.45830000  0.24690000  0.25500000  1.0 0.1329121242
H  H13  1  0.75310000  0.00810000  0.21140000  1.0 0.1329121242
H  H14  1  0.00810000  0.79670000  0.25500000  1.0 0.1329121242
H  H15  1  0.79670000  0.54170000  0.78860000  1.0 0.1329121242
H  H16  1  0.54170000  0.75310000  0.74500000  1.0 0.1329121242
H  H17  1  0.23280000  0.90820000  0.77500000  1.0 0.1193904482
H  H18  1  0.90820000  0.13320000  0.67540000  1.0 0.1193904482
H  H19  1  0.13320000  0.45780000  0.22500000  1.0 0.1193904482
H  H20  1  0.45780000  0.23280000  0.32460000  1.0 0.1193904482
H  H21  1  0.76720000  0.09180000  0.22500000  1.0 0.1193904482
H  H22  1  0.09180000  0.86680000  0.32460000  1.0 0.1193904482
H  H23  1  0.86680000  0.54220000  0.77500000  1.0 0.1193904482
H  H24  1  0.54220000  0.76720000  0.67540000  1.0 0.1193904482
H  H25  1  0.13640000  0.76580000  0.67740000  1.0 0.1193904482
H  H26  1  0.76580000  0.08840000  0.62940000  1.0 0.1193904482
H  H27  1  0.08840000  0.45900000  0.32260000  1.0 0.1193904482
H  H28  1  0.45900000  0.13640000  0.37060000  1.0 0.1193904482
H  H29  1  0.86360000  0.23420000  0.32260000  1.0 0.1193904482
H  H30  1  0.23420000  0.91160000  0.37060000  1.0 0.1193904482
H  H31  1  0.91160000  0.54100000  0.67740000  1.0 0.1193904482
H  H32  1  0.54100000  0.86360000  0.62940000  1.0 0.1193904482
H  H33  1  0.08760000  0.85950000  0.62670000  1.0 0.1193904482
H  H34  1  0.85950000  0.23280000  0.77190000  1.0 0.1193904482
H  H35  1  0.23280000  0.46090000  0.37330000  1.0 0.1193904482
H  H36  1  0.46090000  0.08760000  0.22810000  1.0 0.1193904482
H  H37  1  0.91240000  0.14050000  0.37330000  1.0 0.1193904482
H  H38  1  0.14050000  0.76720000  0.22810000  1.0 0.1193904482
H  H39  1  0.76720000  0.53910000  0.62670000  1.0 0.1193904482
H  H40  1  0.53910000  0.91240000  0.77190000  1.0 0.1193904482
H  H41  1  0.01540000  0.78320000  0.52720000  1.0 0.1403355215
H  H42  1  0.78320000  0.25600000  0.76780000  1.0 0.1403355215
H  H43  1  0.25600000  0.48820000  0.47280000  1.0 0.1403355215
H  H44  1  0.48820000  0.01540000  0.23220000  1.0 0.1403355215
H  H45  1  0.98460000  0.21680000  0.47280000  1.0 0.1403355215
H  H46  1  0.21680000  0.74400000  0.23220000  1.0 0.1403355215
H  H47  1  0.74400000  0.51180000  0.52720000  1.0 0.1403355215
H  H48  1  0.51180000  0.98460000  0.76780000  1.0 0.1403355215
H  H49  1  0.93740000  0.75120000  0.44260000  1.0 0.1193904482
H  H50  1  0.75120000  0.30860000  0.81380000  1.0 0.1193904482
H  H51  1  0.30860000  0.49480000  0.55740000  1.0 0.1193904482
H  H52  1  0.49480000  0.93740000  0.18620000  1.0 0.1193904482
H  H53  1  0.06260000  0.24880000  0.55740000  1.0 0.1193904482
H  H54  1  0.24880000  0.69140000  0.18620000  1.0 0.1193904482
H  H55  1  0.69140000  0.50520000  0.44260000  1.0 0.1193904482
H  H56  1  0.50520000  0.06260000  0.81380000  1.0 0.1193904482
H  H57  1  0.81490000  0.62690000  0.29880000  1.0 0.1329121242
H  H58  1  0.62690000  0.32810000  0.81200000  1.0 0.1329121242
H  H59  1  0.32810000  0.51610000  0.70120000  1.0 0.1329121242
H  H60  1  0.51610000  0.81490000  0.18800000  1.0 0.1329121242
H  H61  1  0.18510000  0.37310000  0.70120000  1.0 0.1329121242
H  H62  1  0.37310000  0.67190000  0.18800000  1.0 0.1329121242
H  H63  1  0.67190000  0.48390000  0.29880000  1.0 0.1329121242
H  H64  1  0.48390000  0.18510000  0.81200000  1.0 0.1329121242
H  H65  1  0.92200000  0.61530000  0.42670000  1.0 0.1403355215
H  H66  1  0.61530000  0.18860000  0.69330000  1.0 0.1403355215
H  H67  1  0.18860000  0.49530000  0.57330000  1.0 0.1403355215
H  H68  1  0.49530000  0.92200000  0.30670000  1.0 0.1403355215
H  H69  1  0.07800000  0.38470000  0.57330000  1.0 0.1403355215
H  H70  1  0.38470000  0.81140000  0.30670000  1.0 0.1403355215
H  H71  1  0.81140000  0.50470000  0.42670000  1.0 0.1403355215
H  H72  1  0.50470000  0.07800000  0.69330000  1.0 0.1403355215
H  H73  1  0.35760000  0.69580000  0.91080000  1.0 0.1403355215
H  H74  1  0.69580000  0.78500000  0.33820000  1.0 0.1403355215
H  H75  1  0.78500000  0.44680000  0.08920000  1.0 0.1403355215
H  H76  1  0.44680000  0.35760000  0.66180000  1.0 0.1403355215
H  H77  1  0.64240000  0.30420000  0.08920000  1.0 0.1403355215
H  H78  1  0.30420000  0.21500000  0.66180000  1.0 0.1403355215
H  H79  1  0.21500000  0.55320000  0.91080000  1.0 0.1403355215
H  H80  1  0.55320000  0.64240000  0.33820000  1.0 0.1403355215
H  H81  1  0.22980000  0.71500000  0.80800000  1.0 0.1403355215
H  H82  1  0.71500000  0.90700000  0.48520000  1.0 0.1403355215
H  H83  1  0.90700000  0.42180000  0.19200000  1.0 0.1403355215
H  H84  1  0.42180000  0.22980000  0.51480000  1.0 0.1403355215
H  H85  1  0.77020000  0.28500000  0.19200000  1.0 0.1403355215
H  H86  1  0.28500000  0.09300000  0.51480000  1.0 0.1403355215
H  H87  1  0.09300000  0.57820000  0.80800000  1.0 0.1403355215
H  H88  1  0.57820000  0.77020000  0.48520000  1.0 0.1403355215
H  H89  1  0.36610000  0.83040000  0.93130000  1.0 0.1403355215
H  H90  1  0.83040000  0.89910000  0.46430000  1.0 0.1403355215
H  H91  1  0.89910000  0.43480000  0.06870000  1.0 0.1403355215
H  H92  1  0.43480000  0.36610000  0.53570000  1.0 0.1403355215
H  H93  1  0.63390000  0.16960000  0.06870000  1.0 0.1403355215
H  H94  1  0.16960000  0.10090000  0.53570000  1.0 0.1403355215
H  H95  1  0.10090000  0.56520000  0.93130000  1.0 0.1403355215
H  H96  1  0.56520000  0.63390000  0.46430000  1.0 0.1403355215
H  H97  1  0.20810000  0.75410000  0.74720000  1.0 0.1403355215
H  H98  1  0.75410000  0.00690000  0.54600000  1.0 0.1403355215
H  H99  1  0.00690000  0.46090000  0.25280000  1.0 0.1403355215
H  H100  1  0.46090000  0.20810000  0.45400000  1.0 0.1403355215
H  H101  1  0.79190000  0.24590000  0.25280000  1.0 0.1403355215
H  H102  1  0.24590000  0.99310000  0.45400000  1.0 0.1403355215
H  H103  1  0.99310000  0.53910000  0.74720000  1.0 0.1403355215
H  H104  1  0.53910000  0.79190000  0.54600000  1.0 0.1403355215
H  H105  1  0.31730000  0.19920000  0.84270000  1.0 0.1403355215
H  H106  1  0.19920000  0.35650000  0.88190000  1.0 0.1403355215
H  H107  1  0.35650000  0.47460000  0.15730000  1.0 0.1403355215
H  H108  1  0.47460000  0.31730000  0.11810000  1.0 0.1403355215
H  H109  1  0.68270000  0.80080000  0.15730000  1.0 0.1403355215
H  H110  1  0.80080000  0.64350000  0.11810000  1.0 0.1403355215
H  H111  1  0.64350000  0.52540000  0.84270000  1.0 0.1403355215
H  H112  1  0.52540000  0.68270000  0.88190000  1.0 0.1403355215
H  H113  1  0.30500000  0.06320000  0.82300000  1.0 0.1329121242
H  H114  1  0.06320000  0.24020000  0.75820000  1.0 0.1329121242
H  H115  1  0.24020000  0.48200000  0.17700000  1.0 0.1329121242
H  H116  1  0.48200000  0.30500000  0.24180000  1.0 0.1329121242
H  H117  1  0.69500000  0.93680000  0.17700000  1.0 0.1329121242
H  H118  1  0.93680000  0.75980000  0.24180000  1.0 0.1329121242
H  H119  1  0.75980000  0.51800000  0.82300000  1.0 0.1329121242
H  H120  1  0.51800000  0.69500000  0.75820000  1.0 0.1329121242
C  C1  1  0.22270000  0.18050000  0.75180000  1.0 0.5864097729
C  C2  1  0.18050000  0.42870000  0.95780000  1.0 0.5864097729
C  C3  1  0.42870000  0.47090000  0.24820000  1.0 0.5864097729
C  C4  1  0.47090000  0.22270000  0.04220000  1.0 0.5864097729
C  C5  1  0.77730000  0.81950000  0.24820000  1.0 0.5864097729
C  C6  1  0.81950000  0.57130000  0.04220000  1.0 0.5864097729
C  C7  1  0.57130000  0.52910000  0.75180000  1.0 0.5864097729
C  C8  1  0.52910000  0.77730000  0.95780000  1.0 0.5864097729
C  C9  1  0.24450000  0.14260000  0.77030000  1.0 -0.0096958061
C  C10  1  0.14260000  0.37230000  0.89810000  1.0 -0.0096958061
C  C11  1  0.37230000  0.47420000  0.22970000  1.0 -0.0096958061
C  C12  1  0.47420000  0.24450000  0.10190000  1.0 -0.0096958061
C  C13  1  0.75550000  0.85740000  0.22970000  1.0 -0.0096958061
C  C14  1  0.85740000  0.62770000  0.10190000  1.0 -0.0096958061
C  C15  1  0.62770000  0.52580000  0.77030000  1.0 -0.0096958061
C  C16  1  0.52580000  0.75550000  0.89810000  1.0 -0.0096958061
C  C17  1  0.21410000  0.09900000  0.74710000  1.0 -0.1115294235
C  C18  1  0.09900000  0.35190000  0.88490000  1.0 -0.1115294235
C  C19  1  0.35190000  0.46700000  0.25290000  1.0 -0.1115294235
C  C20  1  0.46700000  0.21410000  0.11510000  1.0 -0.1115294235
C  C21  1  0.78590000  0.90100000  0.25290000  1.0 -0.1115294235
C  C22  1  0.90100000  0.64810000  0.11510000  1.0 -0.1115294235
C  C23  1  0.64810000  0.53300000  0.74710000  1.0 -0.1115294235
C  C24  1  0.53300000  0.78590000  0.88490000  1.0 -0.1115294235
C  C25  1  0.23540000  0.06900000  0.76520000  1.0 0.0929774905
C  C26  1  0.06900000  0.30380000  0.83360000  1.0 0.0929774905
C  C27  1  0.30380000  0.47020000  0.23480000  1.0 0.0929774905
C  C28  1  0.47020000  0.23540000  0.16640000  1.0 0.0929774905
C  C29  1  0.76460000  0.93100000  0.23480000  1.0 0.0955421134
C  C30  1  0.93100000  0.69620000  0.16640000  1.0 0.0929774905
C  C31  1  0.69620000  0.52980000  0.76520000  1.0 0.0929774905
C  C32  1  0.52980000  0.76460000  0.83360000  1.0 0.0929774905
C  C33  1  0.21580000  0.98630000  0.75470000  1.0 -0.1173522994
C  C34  1  0.98630000  0.23160000  0.77050000  1.0 -0.1115294235
C  C35  1  0.23160000  0.46110000  0.24530000  1.0 -0.1173522994
C  C36  1  0.46110000  0.21580000  0.22950000  1.0 -0.1173522994
C  C37  1  0.78420000  0.01370000  0.24530000  1.0 -0.1173522994
C  C38  1  0.01370000  0.76840000  0.22950000  1.0 -0.1173522994
C  C39  1  0.76840000  0.53890000  0.75470000  1.0 -0.1173522994
C  C40  1  0.53890000  0.78420000  0.77050000  1.0 -0.1173522994
C  C41  1  0.16860000  0.94050000  0.70890000  1.0 0.1403355215
C  C42  1  0.94050000  0.23160000  0.77190000  1.0 0.1403355215
C  C43  1  0.23160000  0.45970000  0.29110000  1.0 0.1403355215
C  C44  1  0.45970000  0.16860000  0.22810000  1.0 0.1403355215
C  C45  1  0.83140000  0.05950000  0.29110000  1.0 0.1403355215
C  C46  1  0.05950000  0.76840000  0.22810000  1.0 0.1403355215
C  C47  1  0.76840000  0.54030000  0.70890000  1.0 0.1403355215
C  C48  1  0.54030000  0.83140000  0.77190000  1.0 0.1403355215
C  C49  1  0.15850000  0.89650000  0.70940000  1.0 0.0259576326
C  C50  1  0.89650000  0.18710000  0.73800000  1.0 0.0259576326
C  C51  1  0.18710000  0.44910000  0.29060000  1.0 0.0259576326
C  C52  1  0.44910000  0.15850000  0.26200000  1.0 0.0259576326
C  C53  1  0.84150000  0.10350000  0.29060000  1.0 0.0259576326
C  C54  1  0.10350000  0.81290000  0.26200000  1.0 0.0230733055
C  C55  1  0.81290000  0.55090000  0.70940000  1.0 0.0259576326
C  C56  1  0.55090000  0.84150000  0.73800000  1.0 0.0259576326
C  C57  1  0.19820000  0.88580000  0.74840000  1.0 -0.1302415209
C  C58  1  0.88580000  0.13740000  0.68760000  1.0 -0.1302415209
C  C59  1  0.13740000  0.44980000  0.25160000  1.0 -0.1302415209
C  C60  1  0.44980000  0.19820000  0.31240000  1.0 -0.1302415209
C  C61  1  0.80180000  0.11420000  0.25160000  1.0 -0.1302415209
C  C62  1  0.11420000  0.86260000  0.31240000  1.0 -0.1302415209
C  C63  1  0.86260000  0.55020000  0.74840000  1.0 -0.1302415209
C  C64  1  0.55020000  0.80180000  0.68760000  1.0 -0.1302415209
C  C65  1  0.18810000  0.84770000  0.74780000  1.0 0.05989631
C  C66  1  0.84770000  0.09990000  0.65960000  1.0 0.05989631
C  C67  1  0.09990000  0.44030000  0.25220000  1.0 0.05989631
C  C68  1  0.44030000  0.18810000  0.34040000  1.0 0.05989631
C  C69  1  0.81190000  0.15230000  0.25220000  1.0 0.05989631
C  C70  1  0.15230000  0.90010000  0.34040000  1.0 0.05989631
C  C71  1  0.90010000  0.55970000  0.74780000  1.0 0.05989631
C  C72  1  0.55970000  0.81190000  0.65960000  1.0 0.05989631
C  C73  1  0.14030000  0.79830000  0.68340000  1.0 -0.1410846252
C  C74  1  0.79830000  0.11490000  0.65800000  1.0 -0.1410846252
C  C75  1  0.11490000  0.45690000  0.31660000  1.0 -0.1410846252
C  C76  1  0.45690000  0.14030000  0.34200000  1.0 -0.1410846252
C  C77  1  0.85970000  0.20170000  0.31660000  1.0 -0.1410846252
C  C78  1  0.20170000  0.88510000  0.34200000  1.0 -0.1410846252
C  C79  1  0.88510000  0.54310000  0.68340000  1.0 -0.1410846252
C  C80  1  0.54310000  0.85970000  0.65800000  1.0 -0.1410846252
C  C81  1  0.10660000  0.80060000  0.63900000  1.0 0.0378767398
C  C82  1  0.80060000  0.16160000  0.69400000  1.0 0.0378767398
C  C83  1  0.16160000  0.46760000  0.36100000  1.0 0.0378767398
C  C84  1  0.46760000  0.10660000  0.30600000  1.0 0.0378767398
C  C85  1  0.89340000  0.19940000  0.36100000  1.0 0.0378767398
C  C86  1  0.19940000  0.83840000  0.30600000  1.0 0.0378767398
C  C87  1  0.83840000  0.53240000  0.63900000  1.0 0.0378767398
C  C88  1  0.53240000  0.89340000  0.69400000  1.0 0.0378767398
C  C89  1  0.11340000  0.85370000  0.65410000  1.0 -0.2027417424
C  C90  1  0.85370000  0.19960000  0.74030000  1.0 -0.2027417424
C  C91  1  0.19960000  0.45930000  0.34590000  1.0 -0.2027417424
C  C92  1  0.45930000  0.11340000  0.25970000  1.0 -0.2027417424
C  C93  1  0.88660000  0.14630000  0.34590000  1.0 -0.2027417424
C  C94  1  0.14630000  0.80040000  0.25970000  1.0 -0.2068972335
C  C95  1  0.80040000  0.54070000  0.65410000  1.0 -0.2027417424
C  C96  1  0.54070000  0.88660000  0.74030000  1.0 -0.2027417424
C  C97  1  0.06200000  0.75980000  0.59080000  1.0 0.1193904482
C  C98  1  0.75980000  0.16900000  0.69780000  1.0 0.1193904482
C  C99  1  0.16900000  0.47120000  0.40920000  1.0 0.1193904482
C  C100  1  0.47120000  0.06200000  0.30220000  1.0 0.1193904482
C  C101  1  0.93800000  0.24020000  0.40920000  1.0 0.1193904482
C  C102  1  0.24020000  0.83100000  0.30220000  1.0 0.1193904482
C  C103  1  0.83100000  0.52880000  0.59080000  1.0 0.1193904482
C  C104  1  0.52880000  0.93800000  0.69780000  1.0 0.1193904482
C  C105  1  0.01790000  0.75730000  0.53420000  1.0 -0.0798266277
C  C106  1  0.75730000  0.22310000  0.73940000  1.0 -0.0798266277
C  C107  1  0.22310000  0.48370000  0.46580000  1.0 -0.0798266277
C  C108  1  0.48370000  0.01790000  0.26060000  1.0 -0.0798266277
C  C109  1  0.98210000  0.24270000  0.46580000  1.0 -0.0798266277
C  C110  1  0.24270000  0.77690000  0.26060000  1.0 -0.0798266277
C  C111  1  0.77690000  0.51630000  0.53420000  1.0 -0.0798266277
C  C112  1  0.51630000  0.98210000  0.73940000  1.0 -0.0798266277
C  C113  1  0.94070000  0.68300000  0.44370000  1.0 0.1403355215
C  C114  1  0.68300000  0.23930000  0.74230000  1.0 0.1403355215
C  C115  1  0.23930000  0.49700000  0.55630000  1.0 0.1403355215
C  C116  1  0.49700000  0.94070000  0.25770000  1.0 0.1403355215
C  C117  1  0.05930000  0.31700000  0.55630000  1.0 0.1403355215
C  C118  1  0.31700000  0.76070000  0.25770000  1.0 0.1403355215
C  C119  1  0.76070000  0.50300000  0.44370000  1.0 0.1403355215
C  C120  1  0.50300000  0.05930000  0.74230000  1.0 0.1403355215
C  C121  1  0.92000000  0.71540000  0.41920000  1.0 -0.1677421935
C  C122  1  0.71540000  0.29620000  0.79540000  1.0 -0.1677421935
C  C123  1  0.29620000  0.50080000  0.58080000  1.0 -0.1677421935
C  C124  1  0.50080000  0.92000000  0.20460000  1.0 -0.1677421935
C  C125  1  0.08000000  0.28460000  0.58080000  1.0 -0.1677421935
C  C126  1  0.28460000  0.70380000  0.20460000  1.0 -0.1677421935
C  C127  1  0.70380000  0.49920000  0.41920000  1.0 -0.1677421935
C  C128  1  0.49920000  0.08000000  0.79540000  1.0 -0.1677421935
C  C129  1  0.87290000  0.68920000  0.35910000  1.0 -0.0374072826
C  C130  1  0.68920000  0.33010000  0.81630000  1.0 -0.0374072826
C  C131  1  0.33010000  0.51380000  0.64090000  1.0 -0.0374072826
C  C132  1  0.51380000  0.87290000  0.18370000  1.0 -0.0374072826
C  C133  1  0.12710000  0.31080000  0.64090000  1.0 -0.0374072826
C  C134  1  0.31080000  0.66990000  0.18370000  1.0 -0.0374072826
C  C135  1  0.66990000  0.48620000  0.35910000  1.0 -0.0374072826
C  C136  1  0.48620000  0.12710000  0.81630000  1.0 -0.0374072826
C  C137  1  0.84970000  0.64060000  0.33230000  1.0 -0.0674263471
C  C138  1  0.64060000  0.30830000  0.79090000  1.0 -0.0674263471
C  C139  1  0.30830000  0.51740000  0.66770000  1.0 -0.0674263471
C  C140  1  0.51740000  0.84970000  0.20910000  1.0 -0.0674263471
C  C141  1  0.15030000  0.35940000  0.66770000  1.0 -0.0674263471
C  C142  1  0.35940000  0.69170000  0.20910000  1.0 -0.0674263471
C  C143  1  0.69170000  0.48260000  0.33230000  1.0 -0.0674263471
C  C144  1  0.48260000  0.15030000  0.79090000  1.0 -0.0674263471
C  C145  1  0.86900000  0.60550000  0.34590000  1.0 -0.0461238733
C  C146  1  0.60550000  0.25960000  0.73650000  1.0 -0.0461238733
C  C147  1  0.25960000  0.52310000  0.65410000  1.0 -0.0461238733
C  C148  1  0.52310000  0.86900000  0.26350000  1.0 -0.0461238733
C  C149  1  0.13100000  0.39450000  0.65410000  1.0 -0.0461238733
C  C150  1  0.39450000  0.74040000  0.26350000  1.0 -0.0461238733
C  C151  1  0.74040000  0.47690000  0.34590000  1.0 -0.0461238733
C  C152  1  0.47690000  0.13100000  0.73650000  1.0 -0.0461238733
C  C153  1  0.91290000  0.63370000  0.40920000  1.0 -0.1607760199
C  C154  1  0.63370000  0.22450000  0.72080000  1.0 -0.1607760199
C  C155  1  0.22450000  0.50370000  0.59080000  1.0 -0.1607760199
C  C156  1  0.50370000  0.91290000  0.27920000  1.0 -0.1607760199
C  C157  1  0.08710000  0.36630000  0.59080000  1.0 -0.1607760199
C  C158  1  0.36630000  0.77550000  0.27920000  1.0 -0.1607760199
C  C159  1  0.77550000  0.49630000  0.40920000  1.0 -0.1607760199
C  C160  1  0.49630000  0.08710000  0.72080000  1.0 -0.1607760199
C  C161  1  0.84080000  0.55090000  0.31030000  1.0 0.5803802564
C  C162  1  0.55090000  0.24060000  0.71010000  1.0 0.5803802564
C  C163  1  0.24060000  0.53050000  0.68970000  1.0 0.5803802564
C  C164  1  0.53050000  0.84080000  0.28990000  1.0 0.5803802564
C  C165  1  0.15920000  0.44910000  0.68970000  1.0 0.5803802564
C  C166  1  0.44910000  0.75940000  0.28990000  1.0 0.5803802564
C  C167  1  0.75940000  0.46950000  0.31030000  1.0 0.5803802564
C  C168  1  0.46950000  0.15920000  0.71010000  1.0 0.5803802564
C  C169  1  0.42720000  0.78070000  0.96870000  1.0 0.5803802564
C  C170  1  0.78070000  0.81200000  0.35350000  1.0 0.5803802564
C  C171  1  0.81200000  0.45850000  0.03130000  1.0 0.5803802564
C  C172  1  0.45850000  0.42720000  0.64650000  1.0 0.5803802564
C  C173  1  0.57280000  0.21930000  0.03130000  1.0 0.5803802564
C  C174  1  0.21930000  0.18800000  0.64650000  1.0 0.5803802564
C  C175  1  0.18800000  0.54150000  0.96870000  1.0 0.5803802564
C  C176  1  0.54150000  0.57280000  0.35350000  1.0 0.5803802564
C  C177  1  0.37010000  0.76460000  0.92470000  1.0 -0.0096958061
C  C178  1  0.76460000  0.83990000  0.39450000  1.0 -0.0096958061
C  C179  1  0.83990000  0.44540000  0.07530000  1.0 -0.0096958061
C  C180  1  0.44540000  0.37010000  0.60550000  1.0 -0.0096958061
C  C181  1  0.62990000  0.23540000  0.07530000  1.0 -0.0096958061
C  C182  1  0.23540000  0.16010000  0.60550000  1.0 -0.0096958061
C  C183  1  0.16010000  0.55460000  0.92470000  1.0 -0.0096958061
C  C184  1  0.55460000  0.62990000  0.39450000  1.0 -0.0096958061
C  C185  1  0.34180000  0.71610000  0.89750000  1.0 -0.1009964951
C  C186  1  0.71610000  0.81860000  0.37430000  1.0 -0.1009964951
C  C187  1  0.81860000  0.44430000  0.10250000  1.0 -0.1009964951
C  C188  1  0.44430000  0.34180000  0.62570000  1.0 -0.1009964951
C  C189  1  0.65820000  0.28390000  0.10250000  1.0 -0.1009964951
C  C190  1  0.28390000  0.18140000  0.62570000  1.0 -0.1009964951
C  C191  1  0.18140000  0.55570000  0.89750000  1.0 -0.1009964951
C  C192  1  0.55570000  0.65820000  0.37430000  1.0 -0.1009964951
C  C193  1  0.28750000  0.69470000  0.84820000  1.0 -0.0374072826
C  C194  1  0.69470000  0.84650000  0.40720000  1.0 -0.0374072826
C  C195  1  0.84650000  0.43930000  0.15180000  1.0 -0.0374072826
C  C196  1  0.43930000  0.28750000  0.59280000  1.0 -0.0374072826
C  C197  1  0.71250000  0.30530000  0.15180000  1.0 -0.0374072826
C  C198  1  0.30530000  0.15350000  0.59280000  1.0 -0.0374072826
C  C199  1  0.15350000  0.56070000  0.84820000  1.0 -0.0374072826
C  C200  1  0.56070000  0.71250000  0.40720000  1.0 -0.0374072826
C  C201  1  0.26640000  0.72610000  0.83450000  1.0 -0.1302415209
C  C202  1  0.72610000  0.89160000  0.45970000  1.0 -0.1302415209
C  C203  1  0.89160000  0.43190000  0.16550000  1.0 -0.1302415209
C  C204  1  0.43190000  0.26640000  0.54030000  1.0 -0.1302415209
C  C205  1  0.73360000  0.27390000  0.16550000  1.0 -0.1302415209
C  C206  1  0.27390000  0.10840000  0.54030000  1.0 -0.1302415209
C  C207  1  0.10840000  0.56810000  0.83450000  1.0 -0.1302415209
C  C208  1  0.56810000  0.73360000  0.45970000  1.0 -0.1302415209
C  C209  1  0.29440000  0.77400000  0.85640000  1.0 0.1329121242
C  C210  1  0.77400000  0.91760000  0.47960000  1.0 0.1403355215
C  C211  1  0.91760000  0.43800000  0.14360000  1.0 0.1329121242
C  C212  1  0.43800000  0.29440000  0.52040000  1.0 0.1329121242
C  C213  1  0.70560000  0.22600000  0.14360000  1.0 0.1403355215
C  C214  1  0.22600000  0.08240000  0.52040000  1.0 0.1329121242
C  C215  1  0.08240000  0.56200000  0.85640000  1.0 0.1329121242
C  C216  1  0.56200000  0.70560000  0.47960000  1.0 0.1329121242
C  C217  1  0.34720000  0.79500000  0.90840000  1.0 -0.1302415209
C  C218  1  0.79500000  0.88660000  0.44780000  1.0 -0.1302415209
C  C219  1  0.88660000  0.43880000  0.09160000  1.0 -0.1302415209
C  C220  1  0.43880000  0.34720000  0.55220000  1.0 -0.1302415209
C  C221  1  0.65280000  0.20500000  0.09160000  1.0 -0.1302415209
C  C222  1  0.20500000  0.11340000  0.55220000  1.0 -0.1302415209
C  C223  1  0.11340000  0.56120000  0.90840000  1.0 -0.1302415209
C  C224  1  0.56120000  0.65280000  0.44780000  1.0 -0.1302415209
C  C225  1  0.25720000  0.64420000  0.81800000  1.0 0.5265788018
C  C226  1  0.64420000  0.82620000  0.38700000  1.0 0.5265788018
C  C227  1  0.82620000  0.43920000  0.18200000  1.0 0.5265788018
C  C228  1  0.43920000  0.25720000  0.61300000  1.0 0.5265788018
C  C229  1  0.74280000  0.35580000  0.18200000  1.0 0.5265788018
C  C230  1  0.35580000  0.17380000  0.61300000  1.0 0.5265788018
C  C231  1  0.17380000  0.56080000  0.81800000  1.0 0.5265788018
C  C232  1  0.56080000  0.74280000  0.38700000  1.0 0.5265788018
C  C233  1  0.22740000  0.78800000  0.78300000  1.0 -0.2199259551
C  C234  1  0.78800000  0.00500000  0.56060000  1.0 -0.2199259551
C  C235  1  0.00500000  0.44440000  0.21700000  1.0 -0.2199259551
C  C236  1  0.44440000  0.22740000  0.43940000  1.0 -0.2199259551
C  C237  1  0.77260000  0.21200000  0.21700000  1.0 -0.2199259551
C  C238  1  0.21200000  0.99500000  0.43940000  1.0 -0.2199259551
C  C239  1  0.99500000  0.55560000  0.78300000  1.0 -0.2199259551
C  C240  1  0.55560000  0.77260000  0.56060000  1.0 -0.2199259551
C  C241  1  0.85540000  0.71820000  0.33740000  1.0 0.4998772099
C  C242  1  0.71820000  0.38080000  0.86280000  1.0 0.4998772099
C  C243  1  0.38080000  0.51800000  0.66260000  1.0 0.4998772099
C  C244  1  0.51800000  0.85540000  0.13720000  1.0 0.4998772099
C  C245  1  0.14460000  0.28180000  0.66260000  1.0 0.4998772099
C  C246  1  0.28180000  0.61920000  0.13720000  1.0 0.4998772099
C  C247  1  0.61920000  0.48200000  0.33740000  1.0 0.4998772099
C  C248  1  0.48200000  0.14460000  0.86280000  1.0 0.4998772099
C  C249  1  0.22420000  0.83790000  0.79430000  1.0 0.1896122686
C  C250  1  0.83790000  0.04360000  0.61370000  1.0 0.1896122686
C  C251  1  0.04360000  0.42990000  0.20570000  1.0 0.1896122686
C  C252  1  0.42990000  0.22420000  0.38630000  1.0 0.1896122686
C  C253  1  0.77580000  0.16210000  0.20570000  1.0 0.1896122686
C  C254  1  0.16210000  0.95640000  0.38630000  1.0 0.1896122686
C  C255  1  0.95640000  0.57010000  0.79430000  1.0 0.1896122686
C  C256  1  0.57010000  0.77580000  0.61370000  1.0 0.1896122686
C  C257  1  0.29820000  0.16410000  0.82030000  1.0 -0.1009964951
C  C258  1  0.16410000  0.34380000  0.86590000  1.0 -0.1009964951
C  C259  1  0.34380000  0.47790000  0.17970000  1.0 -0.1009964951
C  C260  1  0.47790000  0.29820000  0.13410000  1.0 -0.1009964951
C  C261  1  0.70180000  0.83590000  0.17970000  1.0 -0.1009964951
C  C262  1  0.83590000  0.65620000  0.13410000  1.0 -0.1009964951
C  C263  1  0.65620000  0.52210000  0.82030000  1.0 -0.1009964951
C  C264  1  0.52210000  0.70180000  0.86590000  1.0 -0.1009964951
C  C265  1  0.32020000  0.13200000  0.83400000  1.0 -0.0215513649
C  C266  1  0.13200000  0.29800000  0.81180000  1.0 -0.0215513649
C  C267  1  0.29800000  0.48620000  0.16600000  1.0 -0.0215513649
C  C268  1  0.48620000  0.32020000  0.18820000  1.0 -0.0215513649
C  C269  1  0.67980000  0.86800000  0.16600000  1.0 -0.0215513649
C  C270  1  0.86800000  0.70200000  0.18820000  1.0 -0.0215513649
C  C271  1  0.70200000  0.51380000  0.83400000  1.0 -0.0215513649
C  C272  1  0.51380000  0.67980000  0.81180000  1.0 -0.0215513649
C  C273  1  0.29060000  0.08440000  0.81060000  1.0 -0.1607760199
C  C274  1  0.08440000  0.27380000  0.79380000  1.0 -0.1607760199
C  C275  1  0.27380000  0.48000000  0.18940000  1.0 -0.1607760199
C  C276  1  0.48000000  0.29060000  0.20620000  1.0 -0.1607760199
C  C277  1  0.70940000  0.91560000  0.18940000  1.0 -0.1607760199
C  C278  1  0.91560000  0.72620000  0.20620000  1.0 -0.1607760199
C  C279  1  0.72620000  0.52000000  0.81060000  1.0 -0.1607760199
C  C280  1  0.52000000  0.70940000  0.79380000  1.0 -0.1607760199
C  C281  1  0.37590000  0.15150000  0.87920000  1.0 0.5707688882
C  C282  1  0.15150000  0.27230000  0.77560000  1.0 0.5707688882
C  C283  1  0.27230000  0.49670000  0.12080000  1.0 0.5707688882
C  C284  1  0.49670000  0.37590000  0.22440000  1.0 0.5707688882
C  C285  1  0.62410000  0.84850000  0.12080000  1.0 0.5707688882
C  C286  1  0.84850000  0.72770000  0.22440000  1.0 0.5707688882
C  C287  1  0.72770000  0.50330000  0.87920000  1.0 0.5707688882
C  C288  1  0.50330000  0.62410000  0.77560000  1.0 0.5707688882
N  N1  1  0.20560000  0.01540000  0.73900000  1.0 0.1403355215
N  N2  1  0.01540000  0.27640000  0.80980000  1.0 0.1403355215
N  N3  1  0.27640000  0.46660000  0.26100000  1.0 0.1403355215
N  N4  1  0.46660000  0.20560000  0.19020000  1.0 0.1403355215
N  N5  1  0.79440000  0.98460000  0.26100000  1.0 0.1403355215
N  N6  1  0.98460000  0.72360000  0.19020000  1.0 0.1403355215
N  N7  1  0.72360000  0.53340000  0.73900000  1.0 0.1403355215
N  N8  1  0.53340000  0.79440000  0.80980000  1.0 0.1403355215
N  N9  1  0.16070000  0.99030000  0.67720000  1.0 -0.2199259551
N  N10  1  0.99030000  0.31310000  0.82960000  1.0 -0.2199259551
N  N11  1  0.31310000  0.48350000  0.32280000  1.0 -0.2199259551
N  N12  1  0.48350000  0.16070000  0.17040000  1.0 -0.2199259551
N  N13  1  0.83930000  0.00970000  0.32280000  1.0 -0.2199259551
N  N14  1  0.00970000  0.68690000  0.17040000  1.0 -0.2199259551
N  N15  1  0.68690000  0.51650000  0.67720000  1.0 -0.2199259551
N  N16  1  0.51650000  0.83930000  0.82960000  1.0 -0.2199259551
N  N17  1  0.14170000  0.94990000  0.67620000  1.0 -0.0096958061
N  N18  1  0.94990000  0.27370000  0.80820000  1.0 -0.0096958061
N  N19  1  0.27370000  0.46550000  0.32380000  1.0 -0.0096958061
N  N20  1  0.46550000  0.14170000  0.19180000  1.0 -0.0096958061
N  N21  1  0.85830000  0.05010000  0.32380000  1.0 -0.0096958061
N  N22  1  0.05010000  0.72630000  0.19180000  1.0 0.0104023145
N  N23  1  0.72630000  0.53450000  0.67620000  1.0 -0.0096958061
N  N24  1  0.53450000  0.85830000  0.80820000  1.0 -0.0096958061
N  N25  1  0.04010000  0.72000000  0.58290000  1.0 -0.2199259551
N  N26  1  0.72000000  0.13710000  0.67990000  1.0 -0.2199259551
N  N27  1  0.13710000  0.45720000  0.41710000  1.0 -0.2199259551
N  N28  1  0.45720000  0.04010000  0.32010000  1.0 -0.2199259551
N  N29  1  0.95990000  0.28000000  0.41710000  1.0 -0.2199259551
N  N30  1  0.28000000  0.86290000  0.32010000  1.0 -0.2199259551
N  N31  1  0.86290000  0.54280000  0.58290000  1.0 -0.2199259551
N  N32  1  0.54280000  0.95990000  0.67990000  1.0 -0.2199259551
N  N33  1  0.99310000  0.69130000  0.53200000  1.0 -0.1173522994
N  N34  1  0.69130000  0.15930000  0.69820000  1.0 -0.1173522994
N  N35  1  0.15930000  0.46110000  0.46800000  1.0 -0.1173522994
N  N36  1  0.46110000  0.99310000  0.30180000  1.0 -0.1173522994
N  N37  1  0.00690000  0.30870000  0.46800000  1.0 -0.1173522994
N  N38  1  0.30870000  0.84070000  0.30180000  1.0 -0.1173522994
N  N39  1  0.84070000  0.53890000  0.53200000  1.0 -0.1173522994
N  N40  1  0.53890000  0.00690000  0.69820000  1.0 -0.1173522994
N  N41  1  0.98640000  0.71090000  0.50030000  1.0 0.1193904482
N  N42  1  0.71090000  0.21060000  0.72450000  1.0 0.1193904482
N  N43  1  0.21060000  0.48610000  0.49970000  1.0 0.1193904482
N  N44  1  0.48610000  0.98640000  0.27550000  1.0 0.1193904482
N  N45  1  0.01360000  0.28910000  0.49970000  1.0 0.1193904482
N  N46  1  0.28910000  0.78940000  0.27550000  1.0 0.1193904482
N  N47  1  0.78940000  0.51390000  0.50030000  1.0 0.1193904482
N  N48  1  0.51390000  0.01360000  0.72450000  1.0 0.1193904482
N  N49  1  0.26740000  0.80540000  0.84080000  1.0 0.1608818128
N  N50  1  0.80540000  0.96460000  0.53800000  1.0 0.1608818128
N  N51  1  0.96460000  0.42660000  0.15920000  1.0 0.1608818128
N  N52  1  0.42660000  0.26740000  0.46200000  1.0 0.1608818128
N  N53  1  0.73260000  0.19460000  0.15920000  1.0 0.1608818128
N  N54  1  0.19460000  0.03540000  0.46200000  1.0 0.1608818128
N  N55  1  0.03540000  0.57340000  0.84080000  1.0 0.1608818128
N  N56  1  0.57340000  0.73260000  0.53800000  1.0 0.1608818128
N  N57  1  0.29310000  0.85770000  0.87720000  1.0 -0.1862352536
N  N58  1  0.85770000  0.98050000  0.56460000  1.0 -0.1862352536
N  N59  1  0.98050000  0.41590000  0.12280000  1.0 -0.1862352536
N  N60  1  0.41590000  0.29310000  0.43540000  1.0 -0.1862352536
N  N61  1  0.70690000  0.14230000  0.12280000  1.0 -0.1862352536
N  N62  1  0.14230000  0.01950000  0.43540000  1.0 -0.1862352536
N  N63  1  0.01950000  0.58410000  0.87720000  1.0 -0.1862352536
N  N64  1  0.58410000  0.70690000  0.56460000  1.0 -0.1862352536
N  N65  1  0.25800000  0.87250000  0.84190000  1.0 -0.1832068254
N  N66  1  0.87250000  0.03060000  0.61450000  1.0 -0.1832068254
N  N67  1  0.03060000  0.41610000  0.15810000  1.0 -0.1832068254
N  N68  1  0.41610000  0.25800000  0.38550000  1.0 -0.1832068254
N  N69  1  0.74200000  0.12750000  0.15810000  1.0 -0.1832068254
N  N70  1  0.12750000  0.96940000  0.38550000  1.0 -0.1832068254
N  N71  1  0.96940000  0.58390000  0.84190000  1.0 -0.1832068254
N  N72  1  0.58390000  0.74200000  0.61450000  1.0 -0.1832068254
O  O1  1  0.24968000  0.22182000  0.77466000  1.0 -0.4576447949
O  O2  1  0.22182000  0.44716000  0.97214000  1.0 -0.4576447949
O  O3  1  0.44716000  0.47502000  0.22534000  1.0 -0.4576447949
O  O4  1  0.47502000  0.24968000  0.02786000  1.0 -0.4576447949
O  O5  1  0.75032000  0.77818000  0.22534000  1.0 -0.4576447949
O  O6  1  0.77818000  0.55284000  0.02786000  1.0 -0.4576447949
O  O7  1  0.55284000  0.52498000  0.77466000  1.0 -0.4576447949
O  O8  1  0.52498000  0.75032000  0.97214000  1.0 -0.4576447949
O  O9  1  0.17292000  0.16040000  0.70892000  1.0 -0.5363610283
O  O10  1  0.16040000  0.45148000  0.98748000  1.0 -0.5363610283
O  O11  1  0.45148000  0.46400000  0.29108000  1.0 -0.5363610283
O  O12  1  0.46400000  0.17292000  0.01252000  1.0 -0.5363610283
O  O13  1  0.82708000  0.83960000  0.29108000  1.0 -0.5363610283
O  O14  1  0.83960000  0.54852000  0.01252000  1.0 -0.5363610283
O  O15  1  0.54852000  0.53600000  0.70892000  1.0 -0.5363610283
O  O16  1  0.53600000  0.82708000  0.98748000  1.0 -0.5363610283
O  O17  1  0.44604000  0.75482000  0.98750000  1.0 -0.4524523288
O  O18  1  0.75482000  0.76732000  0.30878000  1.0 -0.4524523288
O  O19  1  0.76732000  0.45854000  0.01250000  1.0 -0.4524523288
O  O20  1  0.45854000  0.44604000  0.69122000  1.0 -0.4524523288
O  O21  1  0.55396000  0.24518000  0.01250000  1.0 -0.4524523288
O  O22  1  0.24518000  0.23268000  0.69122000  1.0 -0.4524523288
O  O23  1  0.23268000  0.54146000  0.98750000  1.0 -0.4524523288
O  O24  1  0.54146000  0.55396000  0.30878000  1.0 -0.4524523288
O  O25  1  0.45095000  0.83052000  0.99463000  1.0 -0.5472329751
O  O26  1  0.83052000  0.83589000  0.37957000  1.0 -0.5472329751
O  O27  1  0.83589000  0.45632000  0.00537000  1.0 -0.5472329751
O  O28  1  0.45632000  0.45095000  0.62043000  1.0 -0.5472329751
O  O29  1  0.54905000  0.16948000  0.00537000  1.0 -0.5472329751
O  O30  1  0.16948000  0.16411000  0.62043000  1.0 -0.5472329751
O  O31  1  0.16411000  0.54368000  0.99463000  1.0 -0.5472329751
O  O32  1  0.54368000  0.54905000  0.37957000  1.0 -0.5472329751
O  O33  1  0.80649000  0.69913000  0.28600000  1.0 -0.556266968
O  O34  1  0.69913000  0.41313000  0.89264000  1.0 -0.556266968
O  O35  1  0.41313000  0.52049000  0.71400000  1.0 -0.556266968
O  O36  1  0.52049000  0.80649000  0.10736000  1.0 -0.556266968
O  O37  1  0.19351000  0.30087000  0.71400000  1.0 -0.556266968
O  O38  1  0.30087000  0.58687000  0.10736000  1.0 -0.556266968
O  O39  1  0.58687000  0.47951000  0.28600000  1.0 -0.556266968
O  O40  1  0.47951000  0.19351000  0.89264000  1.0 -0.556266968
O  O41  1  0.88206000  0.76687000  0.36499000  1.0 -0.519409604
O  O42  1  0.76687000  0.40188000  0.88481000  1.0 -0.519409604
O  O43  1  0.40188000  0.51707000  0.63501000  1.0 -0.519409604
O  O44  1  0.51707000  0.88206000  0.11519000  1.0 -0.5321287558
O  O45  1  0.11794000  0.23313000  0.63501000  1.0 -0.519409604
O  O46  1  0.23313000  0.59812000  0.11519000  1.0 -0.519409604
O  O47  1  0.59812000  0.48293000  0.36499000  1.0 -0.519409604
O  O48  1  0.48293000  0.11794000  0.88481000  1.0 -0.519409604
O  O49  1  0.40355000  0.19809000  0.90634000  1.0 -0.5112563268
O  O50  1  0.19809000  0.29175000  0.79454000  1.0 -0.5112563268
O  O51  1  0.29175000  0.49721000  0.09366000  1.0 -0.5112563268
O  O52  1  0.49721000  0.40355000  0.20546000  1.0 -0.5112563268
O  O53  1  0.59645000  0.80191000  0.09366000  1.0 -0.5112563268
O  O54  1  0.80191000  0.70825000  0.20546000  1.0 -0.5112563268
O  O55  1  0.70825000  0.50279000  0.90634000  1.0 -0.5112563268
O  O56  1  0.50279000  0.59645000  0.79454000  1.0 -0.5112563268
O  O57  1  0.39729000  0.11833000  0.89056000  1.0 -0.5472329751
O  O58  1  0.11833000  0.22777000  0.72104000  1.0 -0.5472329751
O  O59  1  0.22777000  0.50673000  0.10944000  1.0 -0.5472329751
O  O60  1  0.50673000  0.39729000  0.27896000  1.0 -0.5472329751
O  O61  1  0.60271000  0.88167000  0.10944000  1.0 -0.5472329751
O  O62  1  0.88167000  0.77223000  0.27896000  1.0 -0.5472329751
O  O63  1  0.77223000  0.49327000  0.89056000  1.0 -0.5472329751
O  O64  1  0.49327000  0.60271000  0.72104000  1.0 -0.5472329751
O  O65  1  0.28235000  0.61393000  0.83562000  1.0 -0.5746935651
O  O66  1  0.61393000  0.77831000  0.33158000  1.0 -0.5746935651
O  O67  1  0.77831000  0.44673000  0.16438000  1.0 -0.5746935651
O  O68  1  0.44673000  0.28235000  0.66842000  1.0 -0.5746935651
O  O69  1  0.71765000  0.38607000  0.16438000  1.0 -0.5746935651
O  O70  1  0.38607000  0.22169000  0.66842000  1.0 -0.5746935651
O  O71  1  0.22169000  0.55327000  0.83562000  1.0 -0.5746935651
O  O72  1  0.55327000  0.71765000  0.33158000  1.0 -0.5746935651
O  O73  1  0.20990000  0.62340000  0.77150000  1.0 -0.519409604
O  O74  1  0.62340000  0.85190000  0.41350000  1.0 -0.519409604
O  O75  1  0.85190000  0.43840000  0.22850000  1.0 -0.519409604
O  O76  1  0.43840000  0.20990000  0.58650000  1.0 -0.519409604
O  O77  1  0.79010000  0.37660000  0.22850000  1.0 -0.519409604
O  O78  1  0.37660000  0.14810000  0.58650000  1.0 -0.519409604
O  O79  1  0.14810000  0.56160000  0.77150000  1.0 -0.519409604
O  O80  1  0.56160000  0.79010000  0.41350000  1.0 -0.519409604
O  O81  1  0.79257000  0.53362000  0.26565000  1.0 -0.5321287558
O  O82  1  0.53362000  0.26797000  0.74105000  1.0 -0.5321287558
O  O83  1  0.26797000  0.52692000  0.73435000  1.0 -0.5321287558
O  O84  1  0.52692000  0.79257000  0.25895000  1.0 -0.5321287558
O  O85  1  0.20743000  0.46638000  0.73435000  1.0 -0.5321287558
O  O86  1  0.46638000  0.73203000  0.25895000  1.0 -0.5321287558
O  O87  1  0.73203000  0.47308000  0.26565000  1.0 -0.5321287558
O  O88  1  0.47308000  0.20743000  0.74105000  1.0 -0.5321287558
O  O89  1  0.86405000  0.52450000  0.32891000  1.0 -0.519409604
O  O90  1  0.52450000  0.19559000  0.66045000  1.0 -0.519409604
O  O91  1  0.19559000  0.53514000  0.67109000  1.0 -0.519409604
O  O92  1  0.53514000  0.86405000  0.33955000  1.0 -0.519409604
O  O93  1  0.13595000  0.47550000  0.67109000  1.0 -0.519409604
O  O94  1  0.47550000  0.80441000  0.33955000  1.0 -0.519409604
O  O95  1  0.80441000  0.46486000  0.32891000  1.0 -0.519409604
O  O96  1  0.46486000  0.13595000  0.66045000  1.0 -0.519409604
