# DDEC6 charges by PACMAN v1.1 (https://github.com/mtap-research/PACMAN-charge/)
data_REXDEF_FSR_pacman
_symmetry_space_group_name_H-M   'P 1'
_cell_length_a   14.95200000
_cell_length_b   18.58400000
_cell_length_c   30.23160000
_cell_angle_alpha   98.81970000
_cell_angle_beta   92.08680000
_cell_angle_gamma   111.61500000
_symmetry_Int_Tables_number   1
_chemical_formula_structural   ZnH8C12(IN2)2
_chemical_formula_sum   'Zn12 H96 C144 I24 N48'
_cell_volume   7677.78059295
_cell_formula_units_Z   12
loop_
 _symmetry_equiv_pos_site_id
 _symmetry_equiv_pos_as_xyz
  1  'x, y, z'
loop_
 _atom_site_type_symbol
 _atom_site_label
 _atom_site_symmetry_multiplicity
 _atom_site_fract_x
 _atom_site_fract_y
 _atom_site_fract_z
 _atom_site_occupancy
 _atom_site_charge
Zn  Zn1  1  0.53499000  0.32599000  0.78499000  1.0 0.4590047819
Zn  Zn2  1  0.44359000  0.70329000  0.97229000  1.0 0.4788844985
Zn  Zn3  1  0.95111000  0.15642000  0.09203000  1.0 0.4590047819
Zn  Zn4  1  0.82348000  0.35738000  0.26048000  1.0 0.4499491257
Zn  Zn5  1  0.28563000  0.75625000  0.43375000  1.0 0.4745022458
Zn  Zn6  1  0.20735000  0.15863000  0.59633000  1.0 0.4499491257
Zn  Zn7  1  0.46501000  0.67401000  0.21501000  1.0 0.4590047819
Zn  Zn8  1  0.55641000  0.29671000  0.02771000  1.0 0.4788844985
Zn  Zn9  1  0.04889000  0.84358000  0.90797000  1.0 0.4590047819
Zn  Zn10  1  0.17652000  0.64262000  0.73952000  1.0 0.4435837072
Zn  Zn11  1  0.71437000  0.24375000  0.56625000  1.0 0.4745022458
Zn  Zn12  1  0.79265000  0.84137000  0.40367000  1.0 0.4590047819
H  H1  1  0.66570000  0.25190000  0.74250000  1.0 0.1084647409
H  H2  1  0.82950000  0.27200000  0.74310000  1.0 0.1388616442
H  H3  1  0.88540000  0.45690000  0.84330000  1.0 0.1388616442
H  H4  1  0.72140000  0.43540000  0.83990000  1.0 0.1084647409
H  H5  1  0.30950000  0.29150000  0.67590000  1.0 0.1084647409
H  H6  1  0.27560000  0.37680000  0.73020000  1.0 0.1308774625
H  H7  1  0.99370000  0.25350000  0.69310000  1.0 0.1308774625
H  H8  1  0.04020000  0.17970000  0.63800000  1.0 0.1084647409
H  H9  1  0.23640000  0.65600000  0.94000000  1.0 0.1084647409
H  H10  1  0.12440000  0.57060000  0.88290000  1.0 0.1388616442
H  H11  1  0.32650000  0.50410000  0.82540000  1.0 0.1308774625
H  H12  1  0.43030000  0.58870000  0.88520000  1.0 0.1084647409
H  H13  1  0.37830000  0.81800000  0.02780000  1.0 0.1084647409
H  H14  1  0.33400000  0.92270000  0.02860000  1.0 0.1388616442
H  H15  1  0.43380000  0.93160000  0.90700000  1.0 0.1388616442
H  H16  1  0.45800000  0.81840000  0.90910000  1.0 0.1084647409
H  H17  1  0.04970000  0.19560000  0.01210000  1.0 0.1084647409
H  H18  1  0.18460000  0.18890000  0.97790000  1.0 0.1388616442
H  H19  1  0.15140000  0.99610000  0.03760000  1.0 0.1388616442
H  H20  1  0.02830000  0.02160000  0.07330000  1.0 0.1084647409
H  H21  1  0.54410000  0.18530000  0.81500000  1.0 0.1084647409
H  H22  1  0.49690000  0.10670000  0.86680000  1.0 0.1308774625
H  H23  1  0.34370000  0.23390000  0.90860000  1.0 0.1388616442
H  H24  1  0.40700000  0.31540000  0.85970000  1.0 0.1084647409
H  H25  1  0.14000000  0.17310000  0.13340000  1.0 0.1002874066
H  H26  1  0.27120000  0.25780000  0.18580000  1.0 0.1308774625
H  H27  1  0.12470000  0.40710000  0.20370000  1.0 0.1388616442
H  H28  1  0.00410000  0.31720000  0.15060000  1.0 0.1084647409
H  H29  1  0.74700000  0.47010000  0.31890000  1.0 0.1084647409
H  H30  1  0.60360000  0.49040000  0.32240000  1.0 0.1458836299
H  H31  1  0.48590000  0.31850000  0.21560000  1.0 0.1388616442
H  H32  1  0.63470000  0.31020000  0.21080000  1.0 0.1084647409
H  H33  1  0.18280000  0.64100000  0.34890000  1.0 0.1084647409
H  H34  1  0.20560000  0.54640000  0.29730000  1.0 0.1308774625
H  H35  1  0.46380000  0.59300000  0.36350000  1.0 0.1388616442
H  H36  1  0.42990000  0.68230000  0.41790000  1.0 0.1084647409
H  H37  1  0.47030000  0.84920000  0.50210000  1.0 0.1178946448
H  H38  1  0.60720000  0.96040000  0.50430000  1.0 0.1388616442
H  H39  1  0.54100000  0.96980000  0.37730000  1.0 0.1388616442
H  H40  1  0.39330000  0.87160000  0.37770000  1.0 0.1084647409
H  H41  1  0.13480000  0.23460000  0.53010000  1.0 0.1084647409
H  H42  1  0.00880000  0.22450000  0.47950000  1.0 0.1308774625
H  H43  1  0.86370000  0.01860000  0.52440000  1.0 0.1388616442
H  H44  1  0.00260000  0.03620000  0.56870000  1.0 0.1084647409
H  H45  1  0.69070000  0.20880000  0.27990000  1.0 0.1084647409
H  H46  1  0.64990000  0.14950000  0.34170000  1.0 0.1388616442
H  H47  1  0.91010000  0.28330000  0.40420000  1.0 0.1388616442
H  H48  1  0.92760000  0.36230000  0.34940000  1.0 0.1084647409
H  H49  1  0.33430000  0.74810000  0.25750000  1.0 0.1084647409
H  H50  1  0.17050000  0.72800000  0.25690000  1.0 0.1388616442
H  H51  1  0.11460000  0.54310000  0.15670000  1.0 0.1388616442
H  H52  1  0.27860000  0.56460000  0.16010000  1.0 0.1084647409
H  H53  1  0.69050000  0.70850000  0.32410000  1.0 0.1084647409
H  H54  1  0.72440000  0.62320000  0.26980000  1.0 0.1308774625
H  H55  1  0.00630000  0.74650000  0.30690000  1.0 0.1308774625
H  H56  1  0.95980000  0.82030000  0.36200000  1.0 0.1084647409
H  H57  1  0.76360000  0.34400000  0.06000000  1.0 0.1084647409
H  H58  1  0.87560000  0.42940000  0.11710000  1.0 0.1388616442
H  H59  1  0.67350000  0.49590000  0.17460000  1.0 0.1308774625
H  H60  1  0.56970000  0.41130000  0.11480000  1.0 0.1084647409
H  H61  1  0.62170000  0.18200000  0.97220000  1.0 0.1084647409
H  H62  1  0.66600000  0.07730000  0.97140000  1.0 0.1388616442
H  H63  1  0.56620000  0.06840000  0.09300000  1.0 0.1388616442
H  H64  1  0.54200000  0.18160000  0.09090000  1.0 0.1084647409
H  H65  1  0.95030000  0.80440000  0.98790000  1.0 0.1084647409
H  H66  1  0.81540000  0.81110000  0.02210000  1.0 0.1388616442
H  H67  1  0.84860000  0.00390000  0.96240000  1.0 0.1388616442
H  H68  1  0.97170000  0.97840000  0.92670000  1.0 0.1084647409
H  H69  1  0.45590000  0.81470000  0.18500000  1.0 0.1084647409
H  H70  1  0.50310000  0.89330000  0.13320000  1.0 0.1388616442
H  H71  1  0.65630000  0.76610000  0.09140000  1.0 0.1388616442
H  H72  1  0.59300000  0.68460000  0.14030000  1.0 0.1084647409
H  H73  1  0.86000000  0.82690000  0.86660000  1.0 0.1002874066
H  H74  1  0.72880000  0.74220000  0.81420000  1.0 0.1308774625
H  H75  1  0.87530000  0.59290000  0.79630000  1.0 0.1388616442
H  H76  1  0.99590000  0.68280000  0.84940000  1.0 0.1084647409
H  H77  1  0.25300000  0.52990000  0.68110000  1.0 0.1084647409
H  H78  1  0.39640000  0.50960000  0.67760000  1.0 0.1458836299
H  H79  1  0.51410000  0.68150000  0.78440000  1.0 0.1388616442
H  H80  1  0.36530000  0.68980000  0.78920000  1.0 0.1084647409
H  H81  1  0.81720000  0.35900000  0.65110000  1.0 0.1084647409
H  H82  1  0.79440000  0.45360000  0.70270000  1.0 0.1308774625
H  H83  1  0.53620000  0.40700000  0.63650000  1.0 0.1388616442
H  H84  1  0.57010000  0.31770000  0.58210000  1.0 0.1084647409
H  H85  1  0.52970000  0.15080000  0.49790000  1.0 0.1178946448
H  H86  1  0.39280000  0.03960000  0.49570000  1.0 0.1388616442
H  H87  1  0.45900000  0.03020000  0.62270000  1.0 0.1388616442
H  H88  1  0.60670000  0.12840000  0.62230000  1.0 0.1084647409
H  H89  1  0.86520000  0.76540000  0.46990000  1.0 0.1084647409
H  H90  1  0.99120000  0.77550000  0.52050000  1.0 0.1308774625
H  H91  1  0.13630000  0.98140000  0.47560000  1.0 0.1388616442
H  H92  1  0.99740000  0.96380000  0.43130000  1.0 0.1084647409
H  H93  1  0.30930000  0.79120000  0.72010000  1.0 0.1084647409
H  H94  1  0.35010000  0.85050000  0.65830000  1.0 0.1388616442
H  H95  1  0.08990000  0.71670000  0.59580000  1.0 0.1388616442
H  H96  1  0.07240000  0.63770000  0.65060000  1.0 0.1084647409
C  C1  1  0.71210000  0.29540000  0.76220000  1.0 0.0794586058
C  C2  1  0.80830000  0.30680000  0.76220000  1.0 -0.1402329067
C  C3  1  0.87220000  0.37100000  0.79120000  1.0 0.0688233304
C  C4  1  0.84070000  0.41630000  0.82130000  1.0 -0.1496646435
C  C5  1  0.74410000  0.40310000  0.81970000  1.0 0.0794586058
C  C6  1  0.98020000  0.39070000  0.79170000  1.0 0.370306353
C  C7  1  0.10150000  0.36510000  0.75620000  1.0 0.370306353
C  C8  1  0.13290000  0.45510000  0.81800000  1.0 0.370306353
C  C9  1  0.24470000  0.28820000  0.67680000  1.0 0.0688233304
C  C10  1  0.22450000  0.33540000  0.71130000  1.0 -0.1496646435
C  C11  1  0.13060000  0.32250000  0.71830000  1.0 0.0462169004
C  C12  1  0.06030000  0.26500000  0.68980000  1.0 -0.1325374917
C  C13  1  0.08970000  0.22400000  0.65580000  1.0 0.0688233304
C  C14  1  0.25560000  0.62460000  0.91750000  1.0 0.0794586058
C  C15  1  0.18900000  0.57280000  0.88350000  1.0 -0.1402329067
C  C16  1  0.21030000  0.52400000  0.85030000  1.0 0.0589982919
C  C17  1  0.30470000  0.53200000  0.84880000  1.0 -0.1496646435
C  C18  1  0.36510000  0.58460000  0.88470000  1.0 0.0688233304
C  C19  1  0.38780000  0.84060000  0.00140000  1.0 0.0688233304
C  C20  1  0.36240000  0.90480000  0.00380000  1.0 -0.1600285294
C  C21  1  0.38160000  0.94040000  0.96710000  1.0 0.0688233304
C  C22  1  0.41900000  0.90740000  0.93270000  1.0 -0.1496646435
C  C23  1  0.43570000  0.84050000  0.93480000  1.0 0.0688233304
C  C24  1  0.35220000  0.01110000  0.96050000  1.0 0.3594218991
C  C25  1  0.26340000  0.07690000  0.97800000  1.0 0.3507639619
C  C26  1  0.36410000  0.10910000  0.92500000  1.0 0.3127366704
C  C27  1  0.07680000  0.15950000  0.01940000  1.0 0.0794586058
C  C28  1  0.15230000  0.15270000  0.99660000  1.0 -0.1496646435
C  C29  1  0.17850000  0.09060000  0.00240000  1.0 0.1002874066
C  C30  1  0.13380000  0.03870000  0.03290000  1.0 -0.1706909332
C  C31  1  0.06340000  0.05630000  0.05440000  1.0 0.0688233304
C  C32  1  0.50310000  0.19750000  0.83560000  1.0 0.0794586058
C  C33  1  0.47270000  0.14710000  0.86570000  1.0 -0.1600285294
C  C34  1  0.40620000  0.15640000  0.89440000  1.0 0.0268924962
C  C35  1  0.38720000  0.22180000  0.88950000  1.0 -0.1325374917
C  C36  1  0.42450000  0.27120000  0.85970000  1.0 0.0688233304
C  C37  1  0.13890000  0.22180000  0.14810000  1.0 0.0688233304
C  C38  1  0.21650000  0.27020000  0.17940000  1.0 -0.1496646435
C  C39  1  0.20640000  0.33890000  0.20060000  1.0 0.0873145382
C  C40  1  0.12910000  0.35910000  0.18990000  1.0 -0.1706909332
C  C41  1  0.05890000  0.30540000  0.15800000  1.0 0.1002874066
C  C42  1  0.28960000  0.39190000  0.23630000  1.0 0.3507639619
C  C43  1  0.43680000  0.42540000  0.26860000  1.0 0.3594218991
C  C44  1  0.34970000  0.49420000  0.29280000  1.0 0.3594218991
C  C45  1  0.69460000  0.44070000  0.29650000  1.0 0.0794586058
C  C46  1  0.60890000  0.45280000  0.29860000  1.0 -0.1706909332
C  C47  1  0.53150000  0.41170000  0.26710000  1.0 0.0873145382
C  C48  1  0.53980000  0.35350000  0.23580000  1.0 -0.1496646435
C  C49  1  0.62790000  0.34730000  0.23450000  1.0 0.0688233304
C  C50  1  0.24040000  0.63110000  0.35240000  1.0 0.0794586058
C  C51  1  0.25460000  0.57470000  0.32140000  1.0 -0.1402329067
C  C52  1  0.33600000  0.55740000  0.32370000  1.0 0.0400651953
C  C53  1  0.40470000  0.60060000  0.36020000  1.0 -0.1325374917
C  C54  1  0.38490000  0.65590000  0.39210000  1.0 0.1002874066
C  C55  1  0.48170000  0.87600000  0.47730000  1.0 0.0400651953
C  C56  1  0.56390000  0.94100000  0.47760000  1.0 -0.1174452725
C  C57  1  0.58830000  0.98020000  0.44220000  1.0 0.0400651953
C  C58  1  0.52470000  0.94890000  0.40400000  1.0 -0.1325374917
C  C59  1  0.43800000  0.88770000  0.40380000  1.0 0.1002874066
C  C60  1  0.67840000  0.04530000  0.44400000  1.0 0.3507639619
C  C61  1  0.83760000  0.10510000  0.46700000  1.0 0.370306353
C  C62  1  0.77380000  0.14540000  0.40990000  1.0 0.3933025998
C  C63  1  0.07880000  0.18770000  0.52680000  1.0 0.0589982919
C  C64  1  0.00430000  0.18530000  0.49710000  1.0 -0.1402329067
C  C65  1  0.92320000  0.11900000  0.49640000  1.0 0.0400651953
C  C66  1  0.92140000  0.06300000  0.52420000  1.0 -0.1496646435
C  C67  1  0.00410000  0.07410000  0.55060000  1.0 0.0589982919
C  C68  1  0.72900000  0.22950000  0.30800000  1.0 0.0794586058
C  C69  1  0.71240000  0.18830000  0.34140000  1.0 -0.1788548726
C  C70  1  0.78210000  0.19960000  0.37490000  1.0 0.0873145382
C  C71  1  0.86180000  0.26870000  0.37960000  1.0 -0.1496646435
C  C72  1  0.87040000  0.31670000  0.34790000  1.0 0.0873145382
C  C73  1  0.28790000  0.70460000  0.23780000  1.0 0.0794586058
C  C74  1  0.19170000  0.69320000  0.23780000  1.0 -0.1402329067
C  C75  1  0.12780000  0.62900000  0.20880000  1.0 0.0688233304
C  C76  1  0.15930000  0.58370000  0.17870000  1.0 -0.1496646435
C  C77  1  0.25590000  0.59690000  0.18030000  1.0 0.0794586058
C  C78  1  0.01980000  0.60930000  0.20830000  1.0 0.370306353
C  C79  1  0.89850000  0.63490000  0.24380000  1.0 0.370306353
C  C80  1  0.86710000  0.54490000  0.18200000  1.0 0.370306353
C  C81  1  0.75530000  0.71180000  0.32320000  1.0 0.0688233304
C  C82  1  0.77550000  0.66460000  0.28870000  1.0 -0.1496646435
C  C83  1  0.86940000  0.67750000  0.28170000  1.0 0.0462169004
C  C84  1  0.93970000  0.73500000  0.31020000  1.0 -0.1325374917
C  C85  1  0.91030000  0.77600000  0.34420000  1.0 0.0688233304
C  C86  1  0.74440000  0.37540000  0.08250000  1.0 0.0794586058
C  C87  1  0.81100000  0.42720000  0.11650000  1.0 -0.1402329067
C  C88  1  0.78970000  0.47600000  0.14970000  1.0 0.0589982919
C  C89  1  0.69530000  0.46800000  0.15120000  1.0 -0.1496646435
C  C90  1  0.63490000  0.41540000  0.11530000  1.0 0.0688233304
C  C91  1  0.61220000  0.15940000  0.99860000  1.0 0.0688233304
C  C92  1  0.63760000  0.09520000  0.99620000  1.0 -0.1600285294
C  C93  1  0.61840000  0.05960000  0.03290000  1.0 0.0688233304
C  C94  1  0.58100000  0.09260000  0.06730000  1.0 -0.1496646435
C  C95  1  0.56430000  0.15950000  0.06520000  1.0 0.0688233304
C  C96  1  0.64780000  0.98890000  0.03950000  1.0 0.3594218991
C  C97  1  0.73660000  0.92310000  0.02200000  1.0 0.3507639619
C  C98  1  0.63590000  0.89090000  0.07500000  1.0 0.3127366704
C  C99  1  0.92320000  0.84050000  0.98060000  1.0 0.0794586058
C  C100  1  0.84770000  0.84730000  0.00340000  1.0 -0.1496646435
C  C101  1  0.82150000  0.90940000  0.99760000  1.0 0.1002874066
C  C102  1  0.86620000  0.96130000  0.96710000  1.0 -0.1706909332
C  C103  1  0.93660000  0.94370000  0.94560000  1.0 0.0688233304
C  C104  1  0.49690000  0.80250000  0.16440000  1.0 0.0794586058
C  C105  1  0.52730000  0.85290000  0.13430000  1.0 -0.1600285294
C  C106  1  0.59380000  0.84360000  0.10560000  1.0 0.0268924962
C  C107  1  0.61280000  0.77820000  0.11050000  1.0 -0.1325374917
C  C108  1  0.57550000  0.72880000  0.14030000  1.0 0.0688233304
C  C109  1  0.86110000  0.77820000  0.85190000  1.0 0.0688233304
C  C110  1  0.78350000  0.72980000  0.82060000  1.0 -0.1496646435
C  C111  1  0.79360000  0.66110000  0.79940000  1.0 0.0873145382
C  C112  1  0.87090000  0.64090000  0.81010000  1.0 -0.1706909332
C  C113  1  0.94110000  0.69460000  0.84200000  1.0 0.1002874066
C  C114  1  0.71040000  0.60810000  0.76370000  1.0 0.3507639619
C  C115  1  0.56320000  0.57460000  0.73140000  1.0 0.3594218991
C  C116  1  0.65030000  0.50580000  0.70720000  1.0 0.3594218991
C  C117  1  0.30540000  0.55930000  0.70350000  1.0 0.0794586058
C  C118  1  0.39110000  0.54720000  0.70140000  1.0 -0.1706909332
C  C119  1  0.46850000  0.58830000  0.73290000  1.0 0.0873145382
C  C120  1  0.46020000  0.64650000  0.76420000  1.0 -0.1496646435
C  C121  1  0.37210000  0.65270000  0.76550000  1.0 0.0688233304
C  C122  1  0.75960000  0.36890000  0.64760000  1.0 0.0794586058
C  C123  1  0.74540000  0.42530000  0.67860000  1.0 -0.1402329067
C  C124  1  0.66400000  0.44260000  0.67630000  1.0 0.0400651953
C  C125  1  0.59530000  0.39940000  0.63980000  1.0 -0.1325374917
C  C126  1  0.61510000  0.34410000  0.60790000  1.0 0.1002874066
C  C127  1  0.51830000  0.12400000  0.52270000  1.0 0.0400651953
C  C128  1  0.43610000  0.05900000  0.52240000  1.0 -0.1174452725
C  C129  1  0.41170000  0.01980000  0.55780000  1.0 0.0400651953
C  C130  1  0.47530000  0.05110000  0.59600000  1.0 -0.1325374917
C  C131  1  0.56200000  0.11230000  0.59620000  1.0 0.1002874066
C  C132  1  0.32160000  0.95470000  0.55600000  1.0 0.3507639619
C  C133  1  0.16240000  0.89490000  0.53300000  1.0 0.370306353
C  C134  1  0.22620000  0.85460000  0.59010000  1.0 0.3933025998
C  C135  1  0.92120000  0.81230000  0.47320000  1.0 0.0589982919
C  C136  1  0.99570000  0.81470000  0.50290000  1.0 -0.1402329067
C  C137  1  0.07680000  0.88100000  0.50360000  1.0 0.0400651953
C  C138  1  0.07860000  0.93700000  0.47580000  1.0 -0.1496646435
C  C139  1  0.99590000  0.92590000  0.44940000  1.0 0.0589982919
C  C140  1  0.27100000  0.77050000  0.69200000  1.0 0.0794586058
C  C141  1  0.28760000  0.81170000  0.65860000  1.0 -0.1788548726
C  C142  1  0.21790000  0.80040000  0.62510000  1.0 0.0794586058
C  C143  1  0.13820000  0.73130000  0.62040000  1.0 -0.1496646435
C  C144  1  0.12960000  0.68330000  0.65210000  1.0 0.0873145382
I  I1  1  0.46481000  0.24249000  0.70739000  1.0 -0.4354080556
I  I2  1  0.51498000  0.45477000  0.81459000  1.0 -0.4278432625
I  I3  1  0.37653000  0.64773000  0.04063000  1.0 -0.4190207618
I  I4  1  0.60973000  0.72943000  0.94183000  1.0 -0.4737764197
I  I5  1  0.87647000  0.23036000  0.04853000  1.0 -0.4278432625
I  I6  1  0.86524000  0.04462000  0.13297000  1.0 -0.4190207618
I  I7  1  0.79739000  0.26090000  0.18672000  1.0 -0.4278432625
I  I8  1  0.97605000  0.47831000  0.28608000  1.0 -0.4278432625
I  I9  1  0.16060000  0.79715000  0.39677000  1.0 -0.4564568448
I  I10  1  0.27379000  0.70487000  0.50772000  1.0 -0.4190207618
I  I11  1  0.35250000  0.23461000  0.55955000  1.0 -0.4278432625
I  I12  1  0.18243000  0.03997000  0.63218000  1.0 -0.4190207618
I  I13  1  0.53519000  0.75751000  0.29261000  1.0 -0.4354080556
I  I14  1  0.48502000  0.54523000  0.18541000  1.0 -0.4278432625
I  I15  1  0.62347000  0.35227000  0.95937000  1.0 -0.4190207618
I  I16  1  0.39027000  0.27057000  0.05817000  1.0 -0.4737764197
I  I17  1  0.12353000  0.76964000  0.95147000  1.0 -0.4278432625
I  I18  1  0.13476000  0.95538000  0.86703000  1.0 -0.4190207618
I  I19  1  0.20261000  0.73910000  0.81328000  1.0 -0.4278432625
I  I20  1  0.02395000  0.52169000  0.71392000  1.0 -0.4278432625
I  I21  1  0.83940000  0.20285000  0.60323000  1.0 -0.4564568448
I  I22  1  0.72621000  0.29513000  0.49228000  1.0 -0.4278432625
I  I23  1  0.64750000  0.76539000  0.44045000  1.0 -0.4354080556
I  I24  1  0.81757000  0.96003000  0.36782000  1.0 -0.4190207618
N  N1  1  0.68260000  0.34400000  0.78940000  1.0 -0.1706909332
N  N2  1  0.00710000  0.34830000  0.75910000  1.0 -0.3783746175
N  N3  1  0.16970000  0.42270000  0.78470000  1.0 -0.3783746175
N  N4  1  0.04430000  0.44540000  0.82250000  1.0 -0.3705119787
N  N5  1  0.17880000  0.23850000  0.64470000  1.0 -0.1788548726
N  N6  1  0.34720000  0.63040000  0.91860000  1.0 -0.1884288171
N  N7  1  0.42280000  0.80360000  0.96980000  1.0 -0.1978503782
N  N8  1  0.28550000  0.01720000  0.98750000  1.0 -0.3783746175
N  N9  1  0.29860000  0.12400000  0.94910000  1.0 -0.3705119787
N  N10  1  0.39380000  0.05170000  0.93080000  1.0 -0.3705119787
N  N11  1  0.04010000  0.11810000  0.05110000  1.0 -0.1884288171
N  N12  1  0.48500000  0.25910000  0.83080000  1.0 -0.1884288171
N  N13  1  0.06150000  0.24000000  0.13720000  1.0 -0.1884288171
N  N14  1  0.36800000  0.37370000  0.23740000  1.0 -0.3783746175
N  N15  1  0.43340000  0.48350000  0.29780000  1.0 -0.3783746175
N  N16  1  0.27380000  0.45420000  0.26290000  1.0 -0.3783746175
N  N17  1  0.70460000  0.38880000  0.26370000  1.0 -0.1706909332
N  N18  1  0.30610000  0.67240000  0.38740000  1.0 -0.1884288171
N  N19  1  0.41310000  0.84990000  0.43800000  1.0 -0.1884288171
N  N20  1  0.75270000  0.05240000  0.47310000  1.0 -0.3783746175
N  N21  1  0.84910000  0.15620000  0.43890000  1.0 -0.38532265
N  N22  1  0.68260000  0.09180000  0.41200000  1.0 -0.4010582315
N  N23  1  0.08600000  0.13590000  0.55160000  1.0 -0.1978503782
N  N24  1  0.79910000  0.29980000  0.31510000  1.0 -0.1788548726
N  N25  1  0.31740000  0.65600000  0.21060000  1.0 -0.1706909332
N  N26  1  0.99290000  0.65170000  0.24090000  1.0 -0.3783746175
N  N27  1  0.83030000  0.57730000  0.21530000  1.0 -0.3783746175
N  N28  1  0.95570000  0.55460000  0.17750000  1.0 -0.3705119787
N  N29  1  0.82120000  0.76150000  0.35530000  1.0 -0.1788548726
N  N30  1  0.65280000  0.36960000  0.08140000  1.0 -0.1884288171
N  N31  1  0.57720000  0.19640000  0.03020000  1.0 -0.1978503782
N  N32  1  0.71450000  0.98280000  0.01250000  1.0 -0.3783746175
N  N33  1  0.70140000  0.87600000  0.05090000  1.0 -0.3705119787
N  N34  1  0.60620000  0.94830000  0.06920000  1.0 -0.3705119787
N  N35  1  0.95990000  0.88190000  0.94890000  1.0 -0.1978503782
N  N36  1  0.51500000  0.74090000  0.16920000  1.0 -0.1884288171
N  N37  1  0.93850000  0.76000000  0.86280000  1.0 -0.1884288171
N  N38  1  0.63200000  0.62630000  0.76260000  1.0 -0.3783746175
N  N39  1  0.56660000  0.51650000  0.70220000  1.0 -0.3783746175
N  N40  1  0.72620000  0.54580000  0.73710000  1.0 -0.3783746175
N  N41  1  0.29540000  0.61120000  0.73630000  1.0 -0.1706909332
N  N42  1  0.69390000  0.32760000  0.61260000  1.0 -0.1884288171
N  N43  1  0.58690000  0.15010000  0.56200000  1.0 -0.1884288171
N  N44  1  0.24730000  0.94760000  0.52690000  1.0 -0.3783746175
N  N45  1  0.15090000  0.84380000  0.56110000  1.0 -0.38532265
N  N46  1  0.31740000  0.90820000  0.58800000  1.0 -0.4010582315
N  N47  1  0.91400000  0.86410000  0.44840000  1.0 -0.1978503782
N  N48  1  0.20090000  0.70020000  0.68490000  1.0 -0.1788548726
