# DDEC6 charges by PACMAN v1.1 (https://github.com/mtap-research/PACMAN-charge/)
data_REXGAE_ASR_pacman
_symmetry_space_group_name_H-M   'P 1'
_cell_length_a   26.37900000
_cell_length_b   26.37900000
_cell_length_c   26.38800000
_cell_angle_alpha   59.99580000
_cell_angle_beta   120.00400000
_cell_angle_gamma   90.03840000
_symmetry_Int_Tables_number   1
_chemical_formula_structural   Co3H96C126S11N30
_chemical_formula_sum   'Co6 H192 C252 S22 N60'
_cell_volume   12986.72542768
_cell_formula_units_Z   2
loop_
 _symmetry_equiv_pos_site_id
 _symmetry_equiv_pos_as_xyz
  1  'x, y, z'
loop_
 _atom_site_type_symbol
 _atom_site_label
 _atom_site_symmetry_multiplicity
 _atom_site_fract_x
 _atom_site_fract_y
 _atom_site_fract_z
 _atom_site_occupancy
 _atom_site_charge
Co  Co1  1  0.00000000  0.00000000  0.50000000  1.0 0.4901540057
Co  Co2  1  0.50000000  0.00000000  0.00000000  1.0 0.4901540057
Co  Co3  1  0.00000000  0.50000000  0.00000000  1.0 0.4901540057
Co  Co4  1  0.50000000  0.00000000  0.50000000  1.0 0.4901540057
Co  Co5  1  0.00000000  0.50000000  0.50000000  1.0 0.4901540057
Co  Co6  1  0.50000000  0.50000000  0.50000000  1.0 0.4901540057
H  H1  1  0.11770000  0.94590000  0.65410000  1.0 0.0774464097
H  H2  1  0.94590000  0.11770000  0.34590000  1.0 0.0774464097
H  H3  1  0.88230000  0.05410000  0.34590000  1.0 0.0774464097
H  H4  1  0.05410000  0.88230000  0.65410000  1.0 0.0774464097
H  H5  1  0.22200000  0.93460000  0.71130000  1.0 0.1084646211
H  H6  1  0.93460000  0.22200000  0.28870000  1.0 0.1084646211
H  H7  1  0.77800000  0.06540000  0.28870000  1.0 0.1084646211
H  H8  1  0.06540000  0.77800000  0.71130000  1.0 0.1084646211
H  H9  1  0.20170000  0.01270000  0.52520000  1.0 0.1084646211
H  H10  1  0.01270000  0.20170000  0.47480000  1.0 0.1084646211
H  H11  1  0.79830000  0.98730000  0.47480000  1.0 0.1084646211
H  H12  1  0.98730000  0.79830000  0.52520000  1.0 0.1084646211
H  H13  1  0.09480000  0.02980000  0.46710000  1.0 0.0717224783
H  H14  1  0.02980000  0.09480000  0.53290000  1.0 0.0717224783
H  H15  1  0.90520000  0.97020000  0.53290000  1.0 0.0717224783
H  H16  1  0.97020000  0.90520000  0.46710000  1.0 0.0717224783
H  H17  1  0.50040000  0.03380000  0.87230000  1.0 0.0717224783
H  H18  1  0.03380000  0.50040000  0.12770000  1.0 0.0717224783
H  H19  1  0.49960000  0.96620000  0.12770000  1.0 0.0717224783
H  H20  1  0.96620000  0.49960000  0.87230000  1.0 0.0717224783
H  H21  1  0.46170000  0.01290000  0.78490000  1.0 0.1084646211
H  H22  1  0.01290000  0.46170000  0.21510000  1.0 0.1084646211
H  H23  1  0.53830000  0.98710000  0.21510000  1.0 0.1084646211
H  H24  1  0.98710000  0.53830000  0.78490000  1.0 0.1084646211
H  H25  1  0.35380000  0.93620000  0.84310000  1.0 0.1084646211
H  H26  1  0.93620000  0.35380000  0.15690000  1.0 0.1084646211
H  H27  1  0.64620000  0.06380000  0.15690000  1.0 0.1084646211
H  H28  1  0.06380000  0.64620000  0.84310000  1.0 0.1084646211
H  H29  1  0.40070000  0.94530000  0.93700000  1.0 0.0774464097
H  H30  1  0.94530000  0.40070000  0.06300000  1.0 0.0774464097
H  H31  1  0.59930000  0.05470000  0.06300000  1.0 0.0774464097
H  H32  1  0.05470000  0.59930000  0.93700000  1.0 0.0774464097
H  H33  1  0.39910000  0.94690000  0.51560000  1.0 0.0774464097
H  H34  1  0.94690000  0.39910000  0.48440000  1.0 0.0774464097
H  H35  1  0.60090000  0.05310000  0.48440000  1.0 0.0774464097
H  H36  1  0.05310000  0.60090000  0.51560000  1.0 0.0774464097
H  H37  1  0.35500000  0.93340000  0.57780000  1.0 0.1084646211
H  H38  1  0.93340000  0.35500000  0.42220000  1.0 0.1084646211
H  H39  1  0.64500000  0.06660000  0.42220000  1.0 0.1084646211
H  H40  1  0.06660000  0.64500000  0.57780000  1.0 0.1084646211
H  H41  1  0.46380000  0.01240000  0.66490000  1.0 0.1084646211
H  H42  1  0.01240000  0.46380000  0.33510000  1.0 0.1084646211
H  H43  1  0.53620000  0.98760000  0.33510000  1.0 0.1084646211
H  H44  1  0.98760000  0.53620000  0.66490000  1.0 0.1084646211
H  H45  1  0.50220000  0.03200000  0.59670000  1.0 0.0717224783
H  H46  1  0.03200000  0.50220000  0.40330000  1.0 0.0717224783
H  H47  1  0.49780000  0.96800000  0.40330000  1.0 0.0717224783
H  H48  1  0.96800000  0.49780000  0.59670000  1.0 0.0717224783
H  H49  1  0.59620000  0.88380000  0.65270000  1.0 0.0717224783
H  H50  1  0.88380000  0.59620000  0.34730000  1.0 0.0717224783
H  H51  1  0.40380000  0.11620000  0.34730000  1.0 0.0717224783
H  H52  1  0.11620000  0.40380000  0.65270000  1.0 0.0717224783
H  H53  1  0.64650000  0.77770000  0.71210000  1.0 0.1084646211
H  H54  1  0.77770000  0.64650000  0.28790000  1.0 0.1084646211
H  H55  1  0.35350000  0.22230000  0.28790000  1.0 0.1084646211
H  H56  1  0.22230000  0.35350000  0.71210000  1.0 0.1084646211
H  H57  1  0.53720000  0.79780000  0.52550000  1.0 0.1084646211
H  H58  1  0.79780000  0.53720000  0.47450000  1.0 0.1084646211
H  H59  1  0.46280000  0.20220000  0.47450000  1.0 0.1084646211
H  H60  1  0.20220000  0.46280000  0.52550000  1.0 0.1084646211
H  H61  1  0.49500000  0.90560000  0.46650000  1.0 0.0717224783
H  H62  1  0.90560000  0.49500000  0.53350000  1.0 0.0717224783
H  H63  1  0.50500000  0.09440000  0.53350000  1.0 0.0717224783
H  H64  1  0.09440000  0.50500000  0.46650000  1.0 0.0717224783
H  H65  1  0.90480000  0.49960000  0.87240000  1.0 0.0717224783
H  H66  1  0.49960000  0.90480000  0.12760000  1.0 0.0717224783
H  H67  1  0.09520000  0.50040000  0.12760000  1.0 0.0717224783
H  H68  1  0.50040000  0.09520000  0.87240000  1.0 0.0717224783
H  H69  1  0.79510000  0.53770000  0.78460000  1.0 0.1084646211
H  H70  1  0.53770000  0.79510000  0.21540000  1.0 0.1084646211
H  H71  1  0.20490000  0.46230000  0.21540000  1.0 0.1084646211
H  H72  1  0.46230000  0.20490000  0.78460000  1.0 0.1084646211
H  H73  1  0.77990000  0.64510000  0.84590000  1.0 0.1084646211
H  H74  1  0.64510000  0.77990000  0.15410000  1.0 0.1084646211
H  H75  1  0.22010000  0.35490000  0.15410000  1.0 0.1084646211
H  H76  1  0.35490000  0.22010000  0.84590000  1.0 0.1084646211
H  H77  1  0.88340000  0.59960000  0.93640000  1.0 0.0774464097
H  H78  1  0.59960000  0.88340000  0.06360000  1.0 0.0774464097
H  H79  1  0.11660000  0.40040000  0.06360000  1.0 0.0774464097
H  H80  1  0.40040000  0.11660000  0.93640000  1.0 0.0774464097
H  H81  1  0.46290000  0.59870000  0.51780000  1.0 0.0774464097
H  H82  1  0.59870000  0.46290000  0.48220000  1.0 0.0774464097
H  H83  1  0.53710000  0.40130000  0.48220000  1.0 0.0774464097
H  H84  1  0.40130000  0.53710000  0.51780000  1.0 0.0774464097
H  H85  1  0.51110000  0.64330000  0.58060000  1.0 0.1084646211
H  H86  1  0.64330000  0.51110000  0.41940000  1.0 0.1084646211
H  H87  1  0.48890000  0.35670000  0.41940000  1.0 0.1084646211
H  H88  1  0.35670000  0.48890000  0.58060000  1.0 0.1084646211
H  H89  1  0.67660000  0.53760000  0.66260000  1.0 0.1084646211
H  H90  1  0.53760000  0.67660000  0.33740000  1.0 0.1084646211
H  H91  1  0.32340000  0.46240000  0.33740000  1.0 0.1084646211
H  H92  1  0.46240000  0.32340000  0.66260000  1.0 0.1084646211
H  H93  1  0.62710000  0.49790000  0.59690000  1.0 0.0717224783
H  H94  1  0.49790000  0.62710000  0.40310000  1.0 0.0717224783
H  H95  1  0.37290000  0.50210000  0.40310000  1.0 0.0717224783
H  H96  1  0.50210000  0.37290000  0.59690000  1.0 0.0717224783
H  H97  1  0.09590000  0.02990000  0.59760000  1.0 0.0717224783
H  H98  1  0.02990000  0.09590000  0.40240000  1.0 0.0717224783
H  H99  1  0.90410000  0.97010000  0.40240000  1.0 0.0717224783
H  H100  1  0.97010000  0.90410000  0.59760000  1.0 0.0717224783
H  H101  1  0.20030000  0.01210000  0.66470000  1.0 0.1084646211
H  H102  1  0.01210000  0.20030000  0.33530000  1.0 0.1084646211
H  H103  1  0.79970000  0.98790000  0.33530000  1.0 0.1084646211
H  H104  1  0.98790000  0.79970000  0.66470000  1.0 0.1084646211
H  H105  1  0.22240000  0.93480000  0.57640000  1.0 0.1084646211
H  H106  1  0.93480000  0.22240000  0.42360000  1.0 0.1084646211
H  H107  1  0.77760000  0.06520000  0.42360000  1.0 0.1084646211
H  H108  1  0.06520000  0.77760000  0.57640000  1.0 0.1084646211
H  H109  1  0.11790000  0.94690000  0.51710000  1.0 0.0774464097
H  H110  1  0.94690000  0.11790000  0.48290000  1.0 0.0774464097
H  H111  1  0.88210000  0.05310000  0.48290000  1.0 0.0774464097
H  H112  1  0.05310000  0.88210000  0.51710000  1.0 0.0774464097
H  H113  1  0.53540000  0.94800000  0.93560000  1.0 0.0774464097
H  H114  1  0.94800000  0.53540000  0.06440000  1.0 0.0774464097
H  H115  1  0.46460000  0.05200000  0.06440000  1.0 0.0774464097
H  H116  1  0.05200000  0.46460000  0.93560000  1.0 0.0774464097
H  H117  1  0.48980000  0.93520000  0.84400000  1.0 0.1084646211
H  H118  1  0.93520000  0.48980000  0.15600000  1.0 0.1084646211
H  H119  1  0.51020000  0.06480000  0.15600000  1.0 0.1084646211
H  H120  1  0.06480000  0.51020000  0.84400000  1.0 0.1084646211
H  H121  1  0.32250000  0.01150000  0.78600000  1.0 0.1084646211
H  H122  1  0.01150000  0.32250000  0.21400000  1.0 0.1084646211
H  H123  1  0.67750000  0.98850000  0.21400000  1.0 0.1084646211
H  H124  1  0.98850000  0.67750000  0.78600000  1.0 0.1084646211
H  H125  1  0.37220000  0.02960000  0.87440000  1.0 0.0717224783
H  H126  1  0.02960000  0.37220000  0.12560000  1.0 0.0717224783
H  H127  1  0.62780000  0.97040000  0.12560000  1.0 0.0717224783
H  H128  1  0.97040000  0.62780000  0.87440000  1.0 0.0717224783
H  H129  1  0.37170000  0.02890000  0.46710000  1.0 0.0717224783
H  H130  1  0.02890000  0.37170000  0.53290000  1.0 0.0717224783
H  H131  1  0.62830000  0.97110000  0.53290000  1.0 0.0717224783
H  H132  1  0.97110000  0.62830000  0.46710000  1.0 0.0717224783
H  H133  1  0.32310000  0.01310000  0.52540000  1.0 0.1084646211
H  H134  1  0.01310000  0.32310000  0.47460000  1.0 0.1084646211
H  H135  1  0.67690000  0.98690000  0.47460000  1.0 0.1084646211
H  H136  1  0.98690000  0.67690000  0.52540000  1.0 0.1084646211
H  H137  1  0.48950000  0.93410000  0.71160000  1.0 0.1084646211
H  H138  1  0.93410000  0.48950000  0.28840000  1.0 0.1084646211
H  H139  1  0.51050000  0.06590000  0.28840000  1.0 0.1084646211
H  H140  1  0.06590000  0.51050000  0.71160000  1.0 0.1084646211
H  H141  1  0.53590000  0.94990000  0.65120000  1.0 0.0774464097
H  H142  1  0.94990000  0.53590000  0.34880000  1.0 0.0774464097
H  H143  1  0.46410000  0.05010000  0.34880000  1.0 0.0774464097
H  H144  1  0.05010000  0.46410000  0.65120000  1.0 0.0774464097
H  H145  1  0.62770000  0.90430000  0.59920000  1.0 0.0717224783
H  H146  1  0.90430000  0.62770000  0.40080000  1.0 0.0717224783
H  H147  1  0.37230000  0.09570000  0.40080000  1.0 0.0717224783
H  H148  1  0.09570000  0.37230000  0.59920000  1.0 0.0717224783
H  H149  1  0.67680000  0.79820000  0.66430000  1.0 0.1084646211
H  H150  1  0.79820000  0.67680000  0.33570000  1.0 0.1084646211
H  H151  1  0.32320000  0.20180000  0.33570000  1.0 0.1084646211
H  H152  1  0.20180000  0.32320000  0.66430000  1.0 0.1084646211
H  H153  1  0.51090000  0.77650000  0.57930000  1.0 0.1084646211
H  H154  1  0.77650000  0.51090000  0.42070000  1.0 0.1084646211
H  H155  1  0.48910000  0.22350000  0.42070000  1.0 0.1084646211
H  H156  1  0.22350000  0.48910000  0.57930000  1.0 0.1084646211
H  H157  1  0.46260000  0.88380000  0.51590000  1.0 0.0774464097
H  H158  1  0.88380000  0.46260000  0.48410000  1.0 0.0774464097
H  H159  1  0.53740000  0.11620000  0.48410000  1.0 0.0774464097
H  H160  1  0.11620000  0.53740000  0.51590000  1.0 0.0774464097
H  H161  1  0.88350000  0.46430000  0.93810000  1.0 0.0774464097
H  H162  1  0.46430000  0.88350000  0.06190000  1.0 0.0774464097
H  H163  1  0.11650000  0.53570000  0.06190000  1.0 0.0774464097
H  H164  1  0.53570000  0.11650000  0.93810000  1.0 0.0774464097
H  H165  1  0.78090000  0.50890000  0.84400000  1.0 0.1084646211
H  H166  1  0.50890000  0.78090000  0.15600000  1.0 0.1084646211
H  H167  1  0.21910000  0.49110000  0.15600000  1.0 0.1084646211
H  H168  1  0.49110000  0.21910000  0.84400000  1.0 0.1084646211
H  H169  1  0.79620000  0.67620000  0.78670000  1.0 0.1084646211
H  H170  1  0.67620000  0.79620000  0.21330000  1.0 0.1084646211
H  H171  1  0.20380000  0.32380000  0.21330000  1.0 0.1084646211
H  H172  1  0.32380000  0.20380000  0.78670000  1.0 0.1084646211
H  H173  1  0.90370000  0.62870000  0.87290000  1.0 0.0717224783
H  H174  1  0.62870000  0.90370000  0.12710000  1.0 0.0717224783
H  H175  1  0.09630000  0.37130000  0.12710000  1.0 0.0717224783
H  H176  1  0.37130000  0.09630000  0.87290000  1.0 0.0717224783
H  H177  1  0.49720000  0.62800000  0.46750000  1.0 0.0717224783
H  H178  1  0.62800000  0.49720000  0.53250000  1.0 0.0717224783
H  H179  1  0.50280000  0.37200000  0.53250000  1.0 0.0717224783
H  H180  1  0.37200000  0.50280000  0.46750000  1.0 0.0717224783
H  H181  1  0.53560000  0.67520000  0.52590000  1.0 0.1084646211
H  H182  1  0.67520000  0.53560000  0.47410000  1.0 0.1084646211
H  H183  1  0.46440000  0.32480000  0.47410000  1.0 0.1084646211
H  H184  1  0.32480000  0.46440000  0.52590000  1.0 0.1084646211
H  H185  1  0.64690000  0.51030000  0.71140000  1.0 0.1084646211
H  H186  1  0.51030000  0.64690000  0.28860000  1.0 0.1084646211
H  H187  1  0.35310000  0.48970000  0.28860000  1.0 0.1084646211
H  H188  1  0.48970000  0.35310000  0.71140000  1.0 0.1084646211
H  H189  1  0.59980000  0.46400000  0.65280000  1.0 0.0774464097
H  H190  1  0.46400000  0.59980000  0.34720000  1.0 0.0774464097
H  H191  1  0.40020000  0.53600000  0.34720000  1.0 0.0774464097
H  H192  1  0.53600000  0.40020000  0.65280000  1.0 0.0774464097
C  C1  1  0.99980000  0.00020000  0.62060000  1.0 0.2059807406
C  C2  1  0.00020000  0.99980000  0.37940000  1.0 0.2021429168
C  C3  1  0.62241000  0.99983000  0.00010000  1.0 0.0517379889
C  C4  1  0.99983000  0.62241000  0.99990000  1.0 0.0517379889
C  C5  1  0.37759000  0.00017000  0.99990000  1.0 0.0517379889
C  C6  1  0.00017000  0.37759000  0.00010000  1.0 0.0517379889
C  C7  1  0.62231000  0.00013000  0.62200000  1.0 0.0517379889
C  C8  1  0.00013000  0.62231000  0.37800000  1.0 0.0517379889
C  C9  1  0.37769000  0.99987000  0.37800000  1.0 0.0517379889
C  C10  1  0.99987000  0.37769000  0.62200000  1.0 0.0517379889
C  C11  1  0.62070000  0.37930000  0.62040000  1.0 0.0517379889
C  C12  1  0.37930000  0.62070000  0.37960000  1.0 0.0517379889
C  C13  1  0.13450000  0.95950000  0.62690000  1.0 0.0102842926
C  C14  1  0.95950000  0.13450000  0.37310000  1.0 0.0102842926
C  C15  1  0.86550000  0.04050000  0.37310000  1.0 0.0102842926
C  C16  1  0.04050000  0.86550000  0.62690000  1.0 0.0102842926
C  C17  1  0.19690000  0.95290000  0.66130000  1.0 -0.0897979308
C  C18  1  0.95290000  0.19690000  0.33870000  1.0 -0.0897979308
C  C19  1  0.80310000  0.04710000  0.33870000  1.0 -0.0897979308
C  C20  1  0.04710000  0.80310000  0.66130000  1.0 -0.0897979308
C  C21  1  0.22168000  0.97216000  0.62482000  1.0 0.002281691
C  C22  1  0.97216000  0.22168000  0.37518000  1.0 0.002281691
C  C23  1  0.77832000  0.02784000  0.37518000  1.0 0.002281691
C  C24  1  0.02784000  0.77832000  0.62482000  1.0 -0.0025092685
C  C25  1  0.18430000  0.99950000  0.55190000  1.0 -0.0830770111
C  C26  1  0.99950000  0.18430000  0.44810000  1.0 -0.0830770111
C  C27  1  0.81570000  0.00050000  0.44810000  1.0 -0.0830770111
C  C28  1  0.00050000  0.81570000  0.55190000  1.0 -0.0830770111
C  C29  1  0.12110000  0.00770000  0.51780000  1.0 -0.0075397765
C  C30  1  0.00770000  0.12110000  0.48220000  1.0 -0.0075397765
C  C31  1  0.87890000  0.99230000  0.48220000  1.0 -0.0025092685
C  C32  1  0.99230000  0.87890000  0.51780000  1.0 -0.0075397765
C  C33  1  0.28785000  0.96715000  0.66038000  1.0 0.29153411
C  C34  1  0.96715000  0.28785000  0.33962000  1.0 0.29153411
C  C35  1  0.71215000  0.03285000  0.33962000  1.0 0.29153411
C  C36  1  0.03285000  0.71215000  0.66038000  1.0 0.29153411
C  C37  1  0.37249000  0.96651000  0.74540000  1.0 0.29153411
C  C38  1  0.96651000  0.37249000  0.25460000  1.0 0.29153411
C  C39  1  0.62751000  0.03349000  0.25460000  1.0 0.29153411
C  C40  1  0.03349000  0.62751000  0.74540000  1.0 0.29153411
C  C41  1  0.37239000  0.96713000  0.66030000  1.0 0.3000657187
C  C42  1  0.96713000  0.37239000  0.33970000  1.0 0.3000657187
C  C43  1  0.62761000  0.03287000  0.33970000  1.0 0.3000657187
C  C44  1  0.03287000  0.62761000  0.66030000  1.0 0.3000657187
C  C45  1  0.47340000  0.01000000  0.86950000  1.0 -0.0075397765
C  C46  1  0.01000000  0.47340000  0.13050000  1.0 -0.0075397765
C  C47  1  0.52660000  0.99000000  0.13050000  1.0 -0.0075397765
C  C48  1  0.99000000  0.52660000  0.86950000  1.0 -0.0075397765
C  C49  1  0.44800000  0.00020000  0.81520000  1.0 -0.0830770111
C  C50  1  0.00020000  0.44800000  0.18480000  1.0 -0.0830770111
C  C51  1  0.55200000  0.99980000  0.18480000  1.0 -0.0830770111
C  C52  1  0.99980000  0.55200000  0.81520000  1.0 -0.0830770111
C  C53  1  0.40274000  0.97178000  0.80606000  1.0 -0.0025092685
C  C54  1  0.97178000  0.40274000  0.19394000  1.0 0.002281691
C  C55  1  0.59726000  0.02822000  0.19394000  1.0 0.002281691
C  C56  1  0.02822000  0.59726000  0.80606000  1.0 0.002281691
C  C57  1  0.38610000  0.95370000  0.85010000  1.0 -0.0897979308
C  C58  1  0.95370000  0.38610000  0.14990000  1.0 -0.0897979308
C  C59  1  0.61390000  0.04630000  0.14990000  1.0 -0.0897979308
C  C60  1  0.04630000  0.61390000  0.85010000  1.0 -0.0897979308
C  C61  1  0.41380000  0.95960000  0.90600000  1.0 0.0102842926
C  C62  1  0.95960000  0.41380000  0.09400000  1.0 0.0102842926
C  C63  1  0.58620000  0.04040000  0.09400000  1.0 0.0102842926
C  C64  1  0.04040000  0.58620000  0.90600000  1.0 0.0102842926
C  C65  1  0.41320000  0.95980000  0.54680000  1.0 0.0206000818
C  C66  1  0.95980000  0.41320000  0.45320000  1.0 0.0206000818
C  C67  1  0.58680000  0.04020000  0.45320000  1.0 0.0206000818
C  C68  1  0.04020000  0.58680000  0.54680000  1.0 0.0206000818
C  C69  1  0.38590000  0.95270000  0.58320000  1.0 -0.0897979308
C  C70  1  0.95270000  0.38590000  0.41680000  1.0 -0.0897979308
C  C71  1  0.61410000  0.04730000  0.41680000  1.0 -0.0897979308
C  C72  1  0.04730000  0.61410000  0.58320000  1.0 -0.0897979308
C  C73  1  0.40268000  0.97228000  0.62451000  1.0 0.002281691
C  C74  1  0.97228000  0.40268000  0.37549000  1.0 0.002281691
C  C75  1  0.59732000  0.02772000  0.37549000  1.0 0.002281691
C  C76  1  0.02772000  0.59732000  0.62451000  1.0 0.002281691
C  C77  1  0.44960000  0.00000000  0.63330000  1.0 -0.0830770111
C  C78  1  0.00000000  0.44960000  0.36670000  1.0 -0.0830770111
C  C79  1  0.55040000  0.00000000  0.36670000  1.0 -0.0830770111
C  C80  1  0.00000000  0.55040000  0.63330000  1.0 -0.0830770111
C  C81  1  0.47440000  0.00900000  0.59560000  1.0 -0.0166893457
C  C82  1  0.00900000  0.47440000  0.40440000  1.0 -0.0166893457
C  C83  1  0.52560000  0.99100000  0.40440000  1.0 -0.0166893457
C  C84  1  0.99100000  0.52560000  0.59560000  1.0 -0.0166893457
C  C85  1  0.58440000  0.86660000  0.62590000  1.0 0.0206000818
C  C86  1  0.86660000  0.58440000  0.37410000  1.0 0.0206000818
C  C87  1  0.41560000  0.13340000  0.37410000  1.0 0.0206000818
C  C88  1  0.13340000  0.41560000  0.62590000  1.0 0.0206000818
C  C89  1  0.61450000  0.80250000  0.66220000  1.0 -0.0897979308
C  C90  1  0.80250000  0.61450000  0.33780000  1.0 -0.0897979308
C  C91  1  0.38550000  0.19750000  0.33780000  1.0 -0.0897979308
C  C92  1  0.19750000  0.38550000  0.66220000  1.0 -0.0897979308
C  C93  1  0.59700000  0.77786000  0.62512000  1.0 0.0102842926
C  C94  1  0.77786000  0.59700000  0.37488000  1.0 0.0102842926
C  C95  1  0.40300000  0.22214000  0.37488000  1.0 0.0102842926
C  C96  1  0.22214000  0.40300000  0.62512000  1.0 0.0102842926
C  C97  1  0.55090000  0.81530000  0.55200000  1.0 -0.0830770111
C  C98  1  0.81530000  0.55090000  0.44800000  1.0 -0.0830770111
C  C99  1  0.44910000  0.18470000  0.44800000  1.0 -0.0830770111
C  C100  1  0.18470000  0.44910000  0.55200000  1.0 -0.0830770111
C  C101  1  0.52430000  0.87930000  0.51710000  1.0 -0.0075397765
C  C102  1  0.87930000  0.52430000  0.48290000  1.0 -0.0075397765
C  C103  1  0.47570000  0.12070000  0.48290000  1.0 -0.0075397765
C  C104  1  0.12070000  0.47570000  0.51710000  1.0 -0.0075397765
C  C105  1  0.62722000  0.71182000  0.66064000  1.0 0.3000657187
C  C106  1  0.71182000  0.62722000  0.33936000  1.0 0.3000657187
C  C107  1  0.37278000  0.28818000  0.33936000  1.0 0.29153411
C  C108  1  0.28818000  0.37278000  0.66064000  1.0 0.29153411
C  C109  1  0.71161000  0.62735000  0.74482000  1.0 0.3000657187
C  C110  1  0.62735000  0.71161000  0.25518000  1.0 0.3000657187
C  C111  1  0.28839000  0.37265000  0.25518000  1.0 0.3000657187
C  C112  1  0.37265000  0.28839000  0.74482000  1.0 0.3000657187
C  C113  1  0.62729000  0.62715000  0.66075000  1.0 0.29153411
C  C114  1  0.62715000  0.62729000  0.33925000  1.0 0.29153411
C  C115  1  0.37271000  0.37285000  0.33925000  1.0 0.29153411
C  C116  1  0.37285000  0.37271000  0.66075000  1.0 0.29153411
C  C117  1  0.87820000  0.52680000  0.86960000  1.0 0.0102842926
C  C118  1  0.52680000  0.87820000  0.13040000  1.0 0.0102842926
C  C119  1  0.12180000  0.47320000  0.13040000  1.0 0.0102842926
C  C120  1  0.47320000  0.12180000  0.86960000  1.0 0.0102842926
C  C121  1  0.81320000  0.55180000  0.81440000  1.0 -0.0897979308
C  C122  1  0.55180000  0.81320000  0.18560000  1.0 -0.0897979308
C  C123  1  0.18680000  0.44820000  0.18560000  1.0 -0.0897979308
C  C124  1  0.44820000  0.18680000  0.81440000  1.0 -0.0897979308
C  C125  1  0.77796000  0.59682000  0.80625000  1.0 -0.0025092685
C  C126  1  0.59682000  0.77796000  0.19375000  1.0 -0.0025092685
C  C127  1  0.22204000  0.40318000  0.19375000  1.0 -0.0025092685
C  C128  1  0.40318000  0.22204000  0.80625000  1.0 -0.0025092685
C  C129  1  0.80450000  0.61370000  0.85170000  1.0 -0.0897979308
C  C130  1  0.61370000  0.80450000  0.14830000  1.0 -0.0897979308
C  C131  1  0.19550000  0.38630000  0.14830000  1.0 -0.0897979308
C  C132  1  0.38630000  0.19550000  0.85170000  1.0 -0.0897979308
C  C133  1  0.86610000  0.58610000  0.90590000  1.0 0.0206000818
C  C134  1  0.58610000  0.86610000  0.09410000  1.0 0.0206000818
C  C135  1  0.13390000  0.41390000  0.09410000  1.0 0.0102842926
C  C136  1  0.41390000  0.13390000  0.90590000  1.0 0.0206000818
C  C137  1  0.50690000  0.58530000  0.54850000  1.0 0.0206000818
C  C138  1  0.58530000  0.50690000  0.45150000  1.0 0.0206000818
C  C139  1  0.49310000  0.41470000  0.45150000  1.0 0.0206000818
C  C140  1  0.41470000  0.49310000  0.54850000  1.0 0.0206000818
C  C141  1  0.53580000  0.61320000  0.58500000  1.0 -0.0897979308
C  C142  1  0.61320000  0.53580000  0.41500000  1.0 -0.0897979308
C  C143  1  0.46420000  0.38680000  0.41500000  1.0 -0.0897979308
C  C144  1  0.38680000  0.46420000  0.58500000  1.0 -0.0897979308
C  C145  1  0.59707000  0.59685000  0.62520000  1.0 0.002281691
C  C146  1  0.59685000  0.59707000  0.37480000  1.0 0.002281691
C  C147  1  0.40293000  0.40315000  0.37480000  1.0 0.002281691
C  C148  1  0.40315000  0.40293000  0.62520000  1.0 0.002281691
C  C149  1  0.63260000  0.55120000  0.63240000  1.0 -0.0830770111
C  C150  1  0.55120000  0.63260000  0.36760000  1.0 -0.0897979308
C  C151  1  0.36740000  0.44880000  0.36760000  1.0 -0.0830770111
C  C152  1  0.44880000  0.36740000  0.63240000  1.0 -0.0830770111
C  C153  1  0.60310000  0.52610000  0.59530000  1.0 -0.0025092685
C  C154  1  0.52610000  0.60310000  0.40470000  1.0 -0.0025092685
C  C155  1  0.39690000  0.47390000  0.40470000  1.0 -0.0025092685
C  C156  1  0.47390000  0.39690000  0.59530000  1.0 -0.0025092685
C  C157  1  0.12230000  0.00730000  0.59590000  1.0 -0.0075397765
C  C158  1  0.00730000  0.12230000  0.40410000  1.0 -0.0025092685
C  C159  1  0.87770000  0.99270000  0.40410000  1.0 -0.0025092685
C  C160  1  0.99270000  0.87770000  0.59590000  1.0 -0.0025092685
C  C161  1  0.18350000  0.99950000  0.63330000  1.0 -0.0830770111
C  C162  1  0.99950000  0.18350000  0.36670000  1.0 -0.0830770111
C  C163  1  0.81650000  0.00050000  0.36670000  1.0 -0.0830770111
C  C164  1  0.00050000  0.81650000  0.63330000  1.0 -0.0830770111
C  C165  1  0.19700000  0.95320000  0.58280000  1.0 -0.0897979308
C  C166  1  0.95320000  0.19700000  0.41720000  1.0 -0.0897979308
C  C167  1  0.80300000  0.04680000  0.41720000  1.0 -0.0897979308
C  C168  1  0.04680000  0.80300000  0.58280000  1.0 -0.0897979308
C  C169  1  0.13480000  0.96000000  0.54810000  1.0 0.0102842926
C  C170  1  0.96000000  0.13480000  0.45190000  1.0 0.0102842926
C  C171  1  0.86520000  0.04000000  0.45190000  1.0 0.0102842926
C  C172  1  0.04000000  0.86520000  0.54810000  1.0 0.0102842926
C  C173  1  0.49150000  0.96090000  0.90540000  1.0 0.0206000818
C  C174  1  0.96090000  0.49150000  0.09460000  1.0 0.0206000818
C  C175  1  0.50850000  0.03910000  0.09460000  1.0 0.0206000818
C  C176  1  0.03910000  0.50850000  0.90540000  1.0 0.0206000818
C  C177  1  0.46440000  0.95340000  0.85040000  1.0 -0.0897979308
C  C178  1  0.95340000  0.46440000  0.14960000  1.0 -0.0897979308
C  C179  1  0.53560000  0.04660000  0.14960000  1.0 -0.0897979308
C  C180  1  0.04660000  0.53560000  0.85040000  1.0 -0.0897979308
C  C181  1  0.36650000  0.99890000  0.81580000  1.0 -0.0897979308
C  C182  1  0.99890000  0.36650000  0.18420000  1.0 -0.0897979308
C  C183  1  0.63350000  0.00110000  0.18420000  1.0 -0.0897979308
C  C184  1  0.00110000  0.63350000  0.81580000  1.0 -0.0897979308
C  C185  1  0.39650000  0.00730000  0.87040000  1.0 0.002281691
C  C186  1  0.00730000  0.39650000  0.12960000  1.0 0.002281691
C  C187  1  0.60350000  0.99270000  0.12960000  1.0 0.002281691
C  C188  1  0.99270000  0.60350000  0.87040000  1.0 0.002281691
C  C189  1  0.39620000  0.00740000  0.51770000  1.0 -0.0025092685
C  C190  1  0.00740000  0.39620000  0.48230000  1.0 -0.0025092685
C  C191  1  0.60380000  0.99260000  0.48230000  1.0 -0.0025092685
C  C192  1  0.99260000  0.60380000  0.51770000  1.0 -0.0025092685
C  C193  1  0.36710000  0.99970000  0.55200000  1.0 -0.0897979308
C  C194  1  0.99970000  0.36710000  0.44800000  1.0 -0.0897979308
C  C195  1  0.63290000  0.00030000  0.44800000  1.0 -0.0897979308
C  C196  1  0.00030000  0.63290000  0.55200000  1.0 -0.0897979308
C  C197  1  0.46450000  0.95310000  0.66150000  1.0 -0.0897979308
C  C198  1  0.95310000  0.46450000  0.33850000  1.0 -0.0897979308
C  C199  1  0.53550000  0.04690000  0.33850000  1.0 -0.0897979308
C  C200  1  0.04690000  0.53550000  0.66150000  1.0 -0.0897979308
C  C201  1  0.49200000  0.96140000  0.62510000  1.0 0.0284304173
C  C202  1  0.96140000  0.49200000  0.37490000  1.0 0.0284304173
C  C203  1  0.50800000  0.03860000  0.37490000  1.0 0.0284304173
C  C204  1  0.03860000  0.50800000  0.62510000  1.0 0.0284304173
C  C205  1  0.60330000  0.87810000  0.59640000  1.0 -0.0025092685
C  C206  1  0.87810000  0.60330000  0.40360000  1.0 -0.0025092685
C  C207  1  0.39670000  0.12190000  0.40360000  1.0 -0.0025092685
C  C208  1  0.12190000  0.39670000  0.59640000  1.0 -0.0025092685
C  C209  1  0.63270000  0.81530000  0.63360000  1.0 -0.0897979308
C  C210  1  0.81530000  0.63270000  0.36640000  1.0 -0.0897979308
C  C211  1  0.36730000  0.18470000  0.36640000  1.0 -0.0897979308
C  C212  1  0.18470000  0.36730000  0.63360000  1.0 -0.0897979308
C  C213  1  0.53560000  0.80220000  0.58410000  1.0 -0.0897979308
C  C214  1  0.80220000  0.53560000  0.41590000  1.0 -0.0897979308
C  C215  1  0.46440000  0.19780000  0.41590000  1.0 -0.0897979308
C  C216  1  0.19780000  0.46440000  0.58410000  1.0 -0.0897979308
C  C217  1  0.50660000  0.86640000  0.54730000  1.0 0.0206000818
C  C218  1  0.86640000  0.50660000  0.45270000  1.0 0.0206000818
C  C219  1  0.49340000  0.13360000  0.45270000  1.0 0.0206000818
C  C220  1  0.13360000  0.49340000  0.54730000  1.0 0.0206000818
C  C221  1  0.86630000  0.50830000  0.90640000  1.0 0.0102842926
C  C222  1  0.50830000  0.86630000  0.09360000  1.0 0.0102842926
C  C223  1  0.13370000  0.49170000  0.09360000  1.0 0.0102842926
C  C224  1  0.49170000  0.13370000  0.90640000  1.0 0.0102842926
C  C225  1  0.80480000  0.53460000  0.85100000  1.0 -0.0897979308
C  C226  1  0.53460000  0.80480000  0.14900000  1.0 -0.0897979308
C  C227  1  0.19520000  0.46540000  0.14900000  1.0 -0.0897979308
C  C228  1  0.46540000  0.19520000  0.85100000  1.0 -0.0897979308
C  C229  1  0.81410000  0.63230000  0.81620000  1.0 -0.0897979308
C  C230  1  0.63230000  0.81410000  0.18380000  1.0 -0.0897979308
C  C231  1  0.18590000  0.36770000  0.18380000  1.0 -0.0897979308
C  C232  1  0.36770000  0.18590000  0.81620000  1.0 -0.0897979308
C  C233  1  0.87770000  0.60390000  0.86990000  1.0 0.002281691
C  C234  1  0.60390000  0.87770000  0.13010000  1.0 0.002281691
C  C235  1  0.12230000  0.39610000  0.13010000  1.0 0.002281691
C  C236  1  0.39610000  0.12230000  0.86990000  1.0 0.002281691
C  C237  1  0.52540000  0.60340000  0.51820000  1.0 -0.0166893457
C  C238  1  0.60340000  0.52540000  0.48180000  1.0 -0.0166893457
C  C239  1  0.47460000  0.39660000  0.48180000  1.0 -0.0166893457
C  C240  1  0.39660000  0.47460000  0.51820000  1.0 -0.0166893457
C  C241  1  0.55050000  0.63130000  0.55250000  1.0 -0.0830770111
C  C242  1  0.63130000  0.55050000  0.44750000  1.0 -0.0830770111
C  C243  1  0.44950000  0.36870000  0.44750000  1.0 -0.0830770111
C  C244  1  0.36870000  0.44950000  0.55250000  1.0 -0.0830770111
C  C245  1  0.61480000  0.53540000  0.66150000  1.0 -0.0897979308
C  C246  1  0.53540000  0.61480000  0.33850000  1.0 -0.0897979308
C  C247  1  0.38520000  0.46460000  0.33850000  1.0 -0.0897979308
C  C248  1  0.46460000  0.38520000  0.66150000  1.0 -0.0897979308
C  C249  1  0.58620000  0.50800000  0.62610000  1.0 0.0206000818
C  C250  1  0.50800000  0.58620000  0.37390000  1.0 0.0206000818
C  C251  1  0.41380000  0.49200000  0.37390000  1.0 0.0206000818
C  C252  1  0.49200000  0.41380000  0.62610000  1.0 0.0206000818
S  S1  1  0.66376000  0.30248000  0.68030000  1.0 -0.0897979308
S  S2  1  0.30248000  0.66376000  0.31970000  1.0 -0.0897979308
S  S3  1  0.33624000  0.69752000  0.31970000  1.0 -0.0897979308
S  S4  1  0.69752000  0.33624000  0.68030000  1.0 -0.0897979308
S  S5  1  0.00032000  0.99968000  0.68187000  1.0 -0.2294943331
S  S6  1  0.99968000  0.00032000  0.31813000  1.0 -0.2294943331
S  S7  1  0.69722000  0.98302000  0.68100000  1.0 -0.0995867291
S  S8  1  0.98302000  0.69722000  0.31900000  1.0 -0.0995867291
S  S9  1  0.30278000  0.01698000  0.31900000  1.0 -0.0995867291
S  S10  1  0.01698000  0.30278000  0.68100000  1.0 -0.0995867291
S  S11  1  0.69734000  0.98354000  0.03310000  1.0 -0.0995867291
S  S12  1  0.98354000  0.69734000  0.96690000  1.0 -0.0995867291
S  S13  1  0.30266000  0.01646000  0.96690000  1.0 -0.0995867291
S  S14  1  0.01646000  0.30266000  0.03310000  1.0 -0.0995867291
S  S15  1  0.66503000  0.01563000  0.68100000  1.0 -0.0897979308
S  S16  1  0.01563000  0.66503000  0.31900000  1.0 -0.0897979308
S  S17  1  0.33497000  0.98437000  0.31900000  1.0 -0.0897979308
S  S18  1  0.98437000  0.33497000  0.68100000  1.0 -0.0995867291
S  S19  1  0.66449000  0.01569000  0.96730000  1.0 -0.0995867291
S  S20  1  0.01569000  0.66449000  0.03270000  1.0 -0.0995867291
S  S21  1  0.33551000  0.98431000  0.03270000  1.0 -0.0995867291
S  S22  1  0.98431000  0.33551000  0.96730000  1.0 -0.0995867291
N  N1  1  0.99986000  0.00014000  0.57898000  1.0 -0.4544281288
N  N2  1  0.00014000  0.99986000  0.42102000  1.0 -0.4544281288
N  N3  1  0.57985000  0.99987000  0.99992000  1.0 -0.3310992476
N  N4  1  0.99987000  0.57985000  0.00008000  1.0 -0.3310992476
N  N5  1  0.42015000  0.00013000  0.00008000  1.0 -0.3310992476
N  N6  1  0.00013000  0.42015000  0.99992000  1.0 -0.3310992476
N  N7  1  0.57992000  0.00006000  0.57966000  1.0 -0.3310992476
N  N8  1  0.00006000  0.57992000  0.42034000  1.0 -0.3310992476
N  N9  1  0.42008000  0.99994000  0.42034000  1.0 -0.3310992476
N  N10  1  0.99994000  0.42008000  0.57966000  1.0 -0.3310992476
N  N11  1  0.57919000  0.42081000  0.57910000  1.0 -0.3310992476
N  N12  1  0.42081000  0.57919000  0.42090000  1.0 -0.338955216
N  N13  1  0.09655000  0.98443000  0.55606000  1.0 -0.1995496004
N  N14  1  0.98443000  0.09655000  0.44394000  1.0 -0.1995496004
N  N15  1  0.90345000  0.01557000  0.44394000  1.0 -0.1995496004
N  N16  1  0.01557000  0.90345000  0.55606000  1.0 -0.1995496004
N  N17  1  0.31437000  0.96755000  0.71773000  1.0 -0.39031555
N  N18  1  0.96755000  0.31437000  0.28227000  1.0 -0.39031555
N  N19  1  0.68563000  0.03245000  0.28227000  1.0 -0.39031555
N  N20  1  0.03245000  0.68563000  0.71773000  1.0 -0.39031555
N  N21  1  0.40326000  0.96800000  0.71749000  1.0 -0.3978101038
N  N22  1  0.96800000  0.40326000  0.28251000  1.0 -0.3978101038
N  N23  1  0.59674000  0.03200000  0.28251000  1.0 -0.3978101038
N  N24  1  0.03200000  0.59674000  0.71749000  1.0 -0.3978101038
N  N25  1  0.31446000  0.96804000  0.62852000  1.0 -0.3978101038
N  N26  1  0.96804000  0.31446000  0.37148000  1.0 -0.3978101038
N  N27  1  0.68554000  0.03196000  0.37148000  1.0 -0.3978101038
N  N28  1  0.03196000  0.68554000  0.62852000  1.0 -0.3978101038
N  N29  1  0.45911000  0.98511000  0.91809000  1.0 -0.1940311614
N  N30  1  0.98511000  0.45911000  0.08191000  1.0 -0.1940311614
N  N31  1  0.54089000  0.01489000  0.08191000  1.0 -0.1940311614
N  N32  1  0.01489000  0.54089000  0.91809000  1.0 -0.1940311614
N  N33  1  0.45919000  0.98471000  0.55598000  1.0 -0.1995496004
N  N34  1  0.98471000  0.45919000  0.44402000  1.0 -0.1940311614
N  N35  1  0.54081000  0.01529000  0.44402000  1.0 -0.1940311614
N  N36  1  0.01529000  0.54081000  0.55598000  1.0 -0.1995496004
N  N37  1  0.54058000  0.90306000  0.55616000  1.0 -0.1940311614
N  N38  1  0.90306000  0.54058000  0.44384000  1.0 -0.1940311614
N  N39  1  0.45942000  0.09694000  0.44384000  1.0 -0.1940311614
N  N40  1  0.09694000  0.45942000  0.55616000  1.0 -0.1940311614
N  N41  1  0.68565000  0.68545000  0.71786000  1.0 -0.3978101038
N  N42  1  0.68545000  0.68565000  0.28214000  1.0 -0.3978101038
N  N43  1  0.31435000  0.31455000  0.28214000  1.0 -0.3978101038
N  N44  1  0.31455000  0.31435000  0.71786000  1.0 -0.3978101038
N  N45  1  0.68537000  0.59659000  0.71770000  1.0 -0.39031555
N  N46  1  0.59659000  0.68537000  0.28230000  1.0 -0.39031555
N  N47  1  0.31463000  0.40341000  0.28230000  1.0 -0.39031555
N  N48  1  0.40341000  0.31463000  0.71770000  1.0 -0.39031555
N  N49  1  0.59692000  0.68524000  0.62931000  1.0 -0.39031555
N  N50  1  0.68524000  0.59692000  0.37069000  1.0 -0.39031555
N  N51  1  0.40308000  0.31476000  0.37069000  1.0 -0.39031555
N  N52  1  0.31476000  0.40308000  0.62931000  1.0 -0.39031555
N  N53  1  0.90315000  0.54095000  0.91818000  1.0 -0.1940311614
N  N54  1  0.54095000  0.90315000  0.08182000  1.0 -0.1940311614
N  N55  1  0.09685000  0.45905000  0.08182000  1.0 -0.1940311614
N  N56  1  0.45905000  0.09685000  0.91818000  1.0 -0.1940311614
N  N57  1  0.54077000  0.54053000  0.55672000  1.0 -0.1940311614
N  N58  1  0.54053000  0.54077000  0.44328000  1.0 -0.1940311614
N  N59  1  0.45923000  0.45947000  0.44328000  1.0 -0.1940311614
N  N60  1  0.45947000  0.45923000  0.55672000  1.0 -0.1940311614
