# DDEC6 charges by PACMAN v1.1 (https://github.com/mtap-research/PACMAN-charge/)
data_REYMOZ_FSR_pacman
_symmetry_space_group_name_H-M   'P 1'
_cell_length_a   18.59800000
_cell_length_b   18.59800000
_cell_length_c   18.59800000
_cell_angle_alpha   60.00000000
_cell_angle_beta   60.00000000
_cell_angle_gamma   60.00000000
_symmetry_Int_Tables_number   1
_chemical_formula_structural   Cu12Mo12PH24(C9O13)8
_chemical_formula_sum   'Cu12 Mo12 P1 H24 C72 O104'
_cell_volume   4548.66268741
_cell_formula_units_Z   1
loop_
 _symmetry_equiv_pos_site_id
 _symmetry_equiv_pos_as_xyz
  1  'x, y, z'
loop_
 _atom_site_type_symbol
 _atom_site_label
 _atom_site_symmetry_multiplicity
 _atom_site_fract_x
 _atom_site_fract_y
 _atom_site_fract_z
 _atom_site_occupancy
 _atom_site_charge
Cu  Cu1  1  0.92974000  0.50000000  0.07026000  1.0 0.9087954951
Cu  Cu2  1  0.50000000  0.92974000  0.50000000  1.0 0.9087954951
Cu  Cu3  1  0.07026000  0.50000000  0.92974000  1.0 0.9087954951
Cu  Cu4  1  0.50000000  0.07026000  0.50000000  1.0 0.9087954951
Cu  Cu5  1  0.07026000  0.92974000  0.50000000  1.0 0.9087954951
Cu  Cu6  1  0.50000000  0.50000000  0.92974000  1.0 0.9087954951
Cu  Cu7  1  0.92974000  0.07026000  0.50000000  1.0 0.9087954951
Cu  Cu8  1  0.50000000  0.50000000  0.07026000  1.0 0.9087954951
Cu  Cu9  1  0.50000000  0.07026000  0.92974000  1.0 0.9087954951
Cu  Cu10  1  0.92974000  0.50000000  0.50000000  1.0 0.9087954951
Cu  Cu11  1  0.50000000  0.92974000  0.07026000  1.0 0.9087954951
Cu  Cu12  1  0.07026000  0.50000000  0.50000000  1.0 0.9087954951
Mo  Mo1  1  0.00000000  0.19052000  0.00000000  1.0 2.1592864288
Mo  Mo2  1  0.19052000  0.00000000  0.80948000  1.0 2.1592864288
Mo  Mo3  1  0.00000000  0.80948000  0.00000000  1.0 2.1592864288
Mo  Mo4  1  0.80948000  0.00000000  0.19052000  1.0 2.1592864288
Mo  Mo5  1  0.00000000  0.00000000  0.19052000  1.0 2.1592864288
Mo  Mo6  1  0.80948000  0.19052000  0.00000000  1.0 2.1592864288
Mo  Mo7  1  0.00000000  0.00000000  0.80948000  1.0 2.1592864288
Mo  Mo8  1  0.19052000  0.80948000  0.00000000  1.0 2.1592864288
Mo  Mo9  1  0.19052000  0.00000000  0.00000000  1.0 2.1592864288
Mo  Mo10  1  0.00000000  0.80948000  0.19052000  1.0 2.1592864288
Mo  Mo11  1  0.80948000  0.00000000  0.00000000  1.0 2.1592864288
Mo  Mo12  1  0.00000000  0.19052000  0.80948000  1.0 2.1592864288
P  P1  1  0.00000000  0.00000000  0.00000000  1.0 0.7908341381
H  H1  1  0.22730000  0.22730000  0.01170000  1.0 0.1464530769
H  H2  1  0.22730000  0.22730000  0.53370000  1.0 0.1464530769
H  H3  1  0.01170000  0.53370000  0.22730000  1.0 0.1464530769
H  H4  1  0.53370000  0.01170000  0.22730000  1.0 0.1464530769
H  H5  1  0.01170000  0.22730000  0.22730000  1.0 0.1464530769
H  H6  1  0.53370000  0.22730000  0.22730000  1.0 0.1464530769
H  H7  1  0.22730000  0.01170000  0.53370000  1.0 0.1464530769
H  H8  1  0.22730000  0.53370000  0.01170000  1.0 0.1464530769
H  H9  1  0.22730000  0.01170000  0.22730000  1.0 0.1464530769
H  H10  1  0.22730000  0.53370000  0.22730000  1.0 0.1464530769
H  H11  1  0.53370000  0.22730000  0.01170000  1.0 0.1464530769
H  H12  1  0.01170000  0.22730000  0.53370000  1.0 0.1464530769
H  H13  1  0.77270000  0.77270000  0.46630000  1.0 0.1464530769
H  H14  1  0.77270000  0.77270000  0.98830000  1.0 0.1464530769
H  H15  1  0.98830000  0.46630000  0.77270000  1.0 0.1464530769
H  H16  1  0.46630000  0.98830000  0.77270000  1.0 0.1464530769
H  H17  1  0.98830000  0.77270000  0.46630000  1.0 0.1464530769
H  H18  1  0.46630000  0.77270000  0.98830000  1.0 0.1464530769
H  H19  1  0.77270000  0.98830000  0.77270000  1.0 0.1464530769
H  H20  1  0.77270000  0.46630000  0.77270000  1.0 0.1464530769
H  H21  1  0.77270000  0.98830000  0.46630000  1.0 0.1464530769
H  H22  1  0.77270000  0.46630000  0.98830000  1.0 0.1464530769
H  H23  1  0.46630000  0.77270000  0.77270000  1.0 0.1464530769
H  H24  1  0.98830000  0.77270000  0.77270000  1.0 0.1464530769
C  C1  1  0.11220000  0.24164000  0.11220000  1.0 -0.0159310191
C  C2  1  0.24164000  0.11220000  0.53396000  1.0 -0.0159310191
C  C3  1  0.11220000  0.53396000  0.11220000  1.0 -0.0159310191
C  C4  1  0.53396000  0.11220000  0.24164000  1.0 -0.0159310191
C  C5  1  0.11220000  0.11220000  0.24164000  1.0 -0.0159310191
C  C6  1  0.53396000  0.24164000  0.11220000  1.0 -0.0159310191
C  C7  1  0.11220000  0.11220000  0.53396000  1.0 -0.0159310191
C  C8  1  0.24164000  0.53396000  0.11220000  1.0 -0.0159310191
C  C9  1  0.24164000  0.11220000  0.11220000  1.0 -0.0159310191
C  C10  1  0.11220000  0.53396000  0.24164000  1.0 -0.0159310191
C  C11  1  0.53396000  0.11220000  0.11220000  1.0 -0.0159310191
C  C12  1  0.11220000  0.24164000  0.53396000  1.0 -0.0159310191
C  C13  1  0.88780000  0.75836000  0.46604000  1.0 -0.0159310191
C  C14  1  0.75836000  0.88780000  0.88780000  1.0 -0.0159310191
C  C15  1  0.88780000  0.46604000  0.75836000  1.0 -0.0159310191
C  C16  1  0.46604000  0.88780000  0.88780000  1.0 -0.0159310191
C  C17  1  0.88780000  0.88780000  0.46604000  1.0 -0.0159310191
C  C18  1  0.46604000  0.75836000  0.88780000  1.0 -0.0159310191
C  C19  1  0.88780000  0.88780000  0.75836000  1.0 -0.0159310191
C  C20  1  0.75836000  0.46604000  0.88780000  1.0 -0.0159310191
C  C21  1  0.75836000  0.88780000  0.46604000  1.0 -0.0159310191
C  C22  1  0.88780000  0.46604000  0.88780000  1.0 -0.0159310191
C  C23  1  0.46604000  0.88780000  0.75836000  1.0 -0.0159310191
C  C24  1  0.88780000  0.75836000  0.88780000  1.0 -0.0159310191
C  C25  1  0.19830000  0.19830000  0.06952000  1.0 -0.0830696095
C  C26  1  0.19830000  0.19830000  0.53388000  1.0 -0.0830696095
C  C27  1  0.06952000  0.53388000  0.19830000  1.0 -0.0830696095
C  C28  1  0.53388000  0.06952000  0.19830000  1.0 -0.0830696095
C  C29  1  0.06952000  0.19830000  0.19830000  1.0 -0.0830696095
C  C30  1  0.53388000  0.19830000  0.19830000  1.0 -0.0830696095
C  C31  1  0.19830000  0.06952000  0.53388000  1.0 -0.0830696095
C  C32  1  0.19830000  0.53388000  0.06952000  1.0 -0.0830696095
C  C33  1  0.19830000  0.06952000  0.19830000  1.0 -0.0830696095
C  C34  1  0.19830000  0.53388000  0.19830000  1.0 -0.0830696095
C  C35  1  0.53388000  0.19830000  0.06952000  1.0 -0.0830696095
C  C36  1  0.06952000  0.19830000  0.53388000  1.0 -0.0830696095
C  C37  1  0.80170000  0.80170000  0.46612000  1.0 -0.0830696095
C  C38  1  0.80170000  0.80170000  0.93048000  1.0 -0.0830696095
C  C39  1  0.93048000  0.46612000  0.80170000  1.0 -0.0830696095
C  C40  1  0.46612000  0.93048000  0.80170000  1.0 -0.0830696095
C  C41  1  0.93048000  0.80170000  0.46612000  1.0 -0.0830696095
C  C42  1  0.46612000  0.80170000  0.93048000  1.0 -0.0830696095
C  C43  1  0.80170000  0.93048000  0.80170000  1.0 -0.0830696095
C  C44  1  0.80170000  0.46612000  0.80170000  1.0 -0.0830696095
C  C45  1  0.80170000  0.93048000  0.46612000  1.0 -0.0830696095
C  C46  1  0.80170000  0.46612000  0.93048000  1.0 -0.0830696095
C  C47  1  0.46612000  0.80170000  0.80170000  1.0 -0.0830696095
C  C48  1  0.93048000  0.80170000  0.80170000  1.0 -0.0830696095
C  C49  1  0.06875000  0.33677000  0.06875000  1.0 0.5936803016
C  C50  1  0.33677000  0.06875000  0.52573000  1.0 0.5936803016
C  C51  1  0.06875000  0.52573000  0.06875000  1.0 0.5936803016
C  C52  1  0.52573000  0.06875000  0.33677000  1.0 0.5936803016
C  C53  1  0.06875000  0.06875000  0.33677000  1.0 0.5936803016
C  C54  1  0.52573000  0.33677000  0.06875000  1.0 0.5936803016
C  C55  1  0.06875000  0.06875000  0.52573000  1.0 0.5936803016
C  C56  1  0.33677000  0.52573000  0.06875000  1.0 0.5936803016
C  C57  1  0.33677000  0.06875000  0.06875000  1.0 0.5936803016
C  C58  1  0.06875000  0.52573000  0.33677000  1.0 0.5936803016
C  C59  1  0.52573000  0.06875000  0.06875000  1.0 0.5936803016
C  C60  1  0.06875000  0.33677000  0.52573000  1.0 0.5936803016
C  C61  1  0.93125000  0.66323000  0.47427000  1.0 0.5936803016
C  C62  1  0.66323000  0.93125000  0.93125000  1.0 0.5936803016
C  C63  1  0.93125000  0.47427000  0.66323000  1.0 0.5936803016
C  C64  1  0.47427000  0.93125000  0.93125000  1.0 0.5936803016
C  C65  1  0.93125000  0.93125000  0.47427000  1.0 0.5936803016
C  C66  1  0.47427000  0.66323000  0.93125000  1.0 0.5936803016
C  C67  1  0.93125000  0.93125000  0.66323000  1.0 0.5936803016
C  C68  1  0.66323000  0.47427000  0.93125000  1.0 0.5936803016
C  C69  1  0.66323000  0.93125000  0.47427000  1.0 0.5936803016
C  C70  1  0.93125000  0.47427000  0.93125000  1.0 0.5936803016
C  C71  1  0.47427000  0.93125000  0.66323000  1.0 0.5936803016
C  C72  1  0.93125000  0.66323000  0.93125000  1.0 0.5936803016
O  O1  1  0.99226000  0.37374000  0.11296000  1.0 -0.5100971209
O  O2  1  0.37374000  0.99226000  0.52104000  1.0 -0.5100971209
O  O3  1  0.11296000  0.52104000  0.99226000  1.0 -0.5100971209
O  O4  1  0.52104000  0.11296000  0.37374000  1.0 -0.5100971209
O  O5  1  0.11296000  0.99226000  0.37374000  1.0 -0.5100971209
O  O6  1  0.52104000  0.37374000  0.99226000  1.0 -0.5100971209
O  O7  1  0.99226000  0.11296000  0.52104000  1.0 -0.5100971209
O  O8  1  0.37374000  0.52104000  0.11296000  1.0 -0.5100971209
O  O9  1  0.37374000  0.11296000  0.99226000  1.0 -0.5100971209
O  O10  1  0.99226000  0.52104000  0.37374000  1.0 -0.5100971209
O  O11  1  0.52104000  0.99226000  0.11296000  1.0 -0.5100971209
O  O12  1  0.11296000  0.37374000  0.52104000  1.0 -0.5100971209
O  O13  1  0.00774000  0.62626000  0.47896000  1.0 -0.5100971209
O  O14  1  0.62626000  0.00774000  0.88704000  1.0 -0.5100971209
O  O15  1  0.88704000  0.47896000  0.62626000  1.0 -0.5100971209
O  O16  1  0.47896000  0.88704000  0.00774000  1.0 -0.5100971209
O  O17  1  0.88704000  0.00774000  0.47896000  1.0 -0.5100971209
O  O18  1  0.47896000  0.62626000  0.88704000  1.0 -0.5100971209
O  O19  1  0.00774000  0.88704000  0.62626000  1.0 -0.5100971209
O  O20  1  0.62626000  0.47896000  0.00774000  1.0 -0.5100971209
O  O21  1  0.62626000  0.88704000  0.47896000  1.0 -0.5100971209
O  O22  1  0.00774000  0.47896000  0.88704000  1.0 -0.5100971209
O  O23  1  0.47896000  0.00774000  0.62626000  1.0 -0.5100971209
O  O24  1  0.88704000  0.62626000  0.00774000  1.0 -0.5100971209
O  O25  1  0.00774000  0.62626000  0.88704000  1.0 -0.5100971209
O  O26  1  0.62626000  0.00774000  0.47896000  1.0 -0.5100971209
O  O27  1  0.88704000  0.47896000  0.00774000  1.0 -0.5100971209
O  O28  1  0.47896000  0.88704000  0.62626000  1.0 -0.5100971209
O  O29  1  0.88704000  0.00774000  0.62626000  1.0 -0.5100971209
O  O30  1  0.47896000  0.62626000  0.00774000  1.0 -0.5100971209
O  O31  1  0.00774000  0.88704000  0.47896000  1.0 -0.5100971209
O  O32  1  0.62626000  0.47896000  0.88704000  1.0 -0.5100971209
O  O33  1  0.62626000  0.88704000  0.00774000  1.0 -0.5100971209
O  O34  1  0.00774000  0.47896000  0.62626000  1.0 -0.5100971209
O  O35  1  0.47896000  0.00774000  0.88704000  1.0 -0.5100971209
O  O36  1  0.88704000  0.62626000  0.47896000  1.0 -0.5100971209
O  O37  1  0.99226000  0.37374000  0.52104000  1.0 -0.5100971209
O  O38  1  0.37374000  0.99226000  0.11296000  1.0 -0.5100971209
O  O39  1  0.11296000  0.52104000  0.37374000  1.0 -0.5100971209
O  O40  1  0.52104000  0.11296000  0.99226000  1.0 -0.5100971209
O  O41  1  0.11296000  0.99226000  0.52104000  1.0 -0.5100971209
O  O42  1  0.52104000  0.37374000  0.11296000  1.0 -0.5100971209
O  O43  1  0.99226000  0.11296000  0.37374000  1.0 -0.5100971209
O  O44  1  0.37374000  0.52104000  0.99226000  1.0 -0.5100971209
O  O45  1  0.37374000  0.11296000  0.52104000  1.0 -0.5100971209
O  O46  1  0.99226000  0.52104000  0.11296000  1.0 -0.5100971209
O  O47  1  0.52104000  0.99226000  0.37374000  1.0 -0.5100971209
O  O48  1  0.11296000  0.37374000  0.99226000  1.0 -0.5100971209
O  O49  1  0.81220000  0.50000000  0.18780000  1.0 -0.1039243025
O  O50  1  0.50000000  0.81220000  0.50000000  1.0 -0.1056404561
O  O51  1  0.18780000  0.50000000  0.81220000  1.0 -0.1056404561
O  O52  1  0.50000000  0.18780000  0.50000000  1.0 -0.1039243025
O  O53  1  0.18780000  0.81220000  0.50000000  1.0 -0.1056404561
O  O54  1  0.50000000  0.50000000  0.81220000  1.0 -0.1039243025
O  O55  1  0.81220000  0.18780000  0.50000000  1.0 -0.1039243025
O  O56  1  0.50000000  0.50000000  0.18780000  1.0 -0.1039243025
O  O57  1  0.50000000  0.18780000  0.81220000  1.0 -0.1039243025
O  O58  1  0.81220000  0.50000000  0.50000000  1.0 -0.1039243025
O  O59  1  0.50000000  0.81220000  0.18780000  1.0 -0.1039243025
O  O60  1  0.18780000  0.50000000  0.50000000  1.0 -0.1056404561
O  O61  1  0.00000000  0.27874000  0.00000000  1.0 -0.5100971209
O  O62  1  0.27874000  0.00000000  0.72126000  1.0 -0.5100971209
O  O63  1  0.00000000  0.72126000  0.00000000  1.0 -0.5100971209
O  O64  1  0.72126000  0.00000000  0.27874000  1.0 -0.5100971209
O  O65  1  0.00000000  0.00000000  0.27874000  1.0 -0.5100971209
O  O66  1  0.72126000  0.27874000  0.00000000  1.0 -0.5100971209
O  O67  1  0.00000000  0.00000000  0.72126000  1.0 -0.5100971209
O  O68  1  0.27874000  0.72126000  0.00000000  1.0 -0.5100971209
O  O69  1  0.27874000  0.00000000  0.00000000  1.0 -0.5100971209
O  O70  1  0.00000000  0.72126000  0.27874000  1.0 -0.5100971209
O  O71  1  0.72126000  0.00000000  0.00000000  1.0 -0.5100971209
O  O72  1  0.00000000  0.27874000  0.72126000  1.0 -0.5100971209
O  O73  1  0.12000000  0.12000000  0.97976000  1.0 -0.7888045864
O  O74  1  0.12000000  0.12000000  0.78024000  1.0 -0.7888045864
O  O75  1  0.97976000  0.78024000  0.12000000  1.0 -0.7888045864
O  O76  1  0.78024000  0.97976000  0.12000000  1.0 -0.7888045864
O  O77  1  0.97976000  0.12000000  0.12000000  1.0 -0.7888045864
O  O78  1  0.78024000  0.12000000  0.12000000  1.0 -0.7888045864
O  O79  1  0.12000000  0.97976000  0.78024000  1.0 -0.7888045864
O  O80  1  0.12000000  0.78024000  0.97976000  1.0 -0.7888045864
O  O81  1  0.12000000  0.97976000  0.12000000  1.0 -0.7888045864
O  O82  1  0.12000000  0.78024000  0.12000000  1.0 -0.7888045864
O  O83  1  0.78024000  0.12000000  0.97976000  1.0 -0.7888045864
O  O84  1  0.97976000  0.12000000  0.78024000  1.0 -0.7888045864
O  O85  1  0.88000000  0.88000000  0.21976000  1.0 -0.7888045864
O  O86  1  0.88000000  0.88000000  0.02024000  1.0 -0.7888045864
O  O87  1  0.02024000  0.21976000  0.88000000  1.0 -0.7888045864
O  O88  1  0.21976000  0.02024000  0.88000000  1.0 -0.7888045864
O  O89  1  0.02024000  0.88000000  0.21976000  1.0 -0.7888045864
O  O90  1  0.21976000  0.88000000  0.02024000  1.0 -0.7888045864
O  O91  1  0.88000000  0.02024000  0.88000000  1.0 -0.7888045864
O  O92  1  0.88000000  0.21976000  0.88000000  1.0 -0.7888045864
O  O93  1  0.88000000  0.02024000  0.21976000  1.0 -0.7888045864
O  O94  1  0.88000000  0.21976000  0.02024000  1.0 -0.7888045864
O  O95  1  0.21976000  0.88000000  0.88000000  1.0 -0.7888045864
O  O96  1  0.02024000  0.88000000  0.88000000  1.0 -0.7888045864
O  O97  1  0.03390000  0.03390000  0.03390000  1.0 -0.2761221317
O  O98  1  0.03390000  0.03390000  0.89830000  1.0 -0.2761221317
O  O99  1  0.03390000  0.89830000  0.03390000  1.0 -0.2761221317
O  O100  1  0.89830000  0.03390000  0.03390000  1.0 -0.2761221317
O  O101  1  0.96610000  0.96610000  0.10170000  1.0 -0.2761221317
O  O102  1  0.96610000  0.96610000  0.96610000  1.0 -0.2744329976
O  O103  1  0.96610000  0.10170000  0.96610000  1.0 -0.2744329976
O  O104  1  0.10170000  0.96610000  0.96610000  1.0 -0.2744329976
