# DDEC6 charges by PACMAN v1.1 (https://github.com/mtap-research/PACMAN-charge/)
data_REYPES_FSR_pacman
_symmetry_space_group_name_H-M   'P 1'
_cell_length_a   8.91310000
_cell_length_b   23.79840000
_cell_length_c   39.49120000
_cell_angle_alpha   90.00000000
_cell_angle_beta   90.00000000
_cell_angle_gamma   90.00000000
_symmetry_Int_Tables_number   1
_chemical_formula_structural   Zn3H22C33N16O9
_chemical_formula_sum   'Zn24 H176 C264 N128 O72'
_cell_volume   8376.77536791
_cell_formula_units_Z   8
loop_
 _symmetry_equiv_pos_site_id
 _symmetry_equiv_pos_as_xyz
  1  'x, y, z'
loop_
 _atom_site_type_symbol
 _atom_site_label
 _atom_site_symmetry_multiplicity
 _atom_site_fract_x
 _atom_site_fract_y
 _atom_site_fract_z
 _atom_site_occupancy
 _atom_site_charge
Zn  Zn1  1  0.41406000  0.66373000  0.02164000  1.0 0.7411027301
Zn  Zn2  1  0.41406000  0.83627000  0.47836000  1.0 0.7411027301
Zn  Zn3  1  0.08594000  0.33627000  0.52164000  1.0 0.7411027301
Zn  Zn4  1  0.08594000  0.16373000  0.97836000  1.0 0.7411027301
Zn  Zn5  1  0.58594000  0.33627000  0.97836000  1.0 0.7411027301
Zn  Zn6  1  0.58594000  0.16373000  0.52164000  1.0 0.7411027301
Zn  Zn7  1  0.91406000  0.66373000  0.47836000  1.0 0.7411027301
Zn  Zn8  1  0.91406000  0.83627000  0.02164000  1.0 0.7411027301
Zn  Zn9  1  0.57154000  0.83276000  0.90027000  1.0 0.7521534722
Zn  Zn10  1  0.57154000  0.66724000  0.59973000  1.0 0.7521534722
Zn  Zn11  1  0.92846000  0.16724000  0.40027000  1.0 0.7521534722
Zn  Zn12  1  0.92846000  0.33276000  0.09973000  1.0 0.7521534722
Zn  Zn13  1  0.42846000  0.16724000  0.09973000  1.0 0.7521534722
Zn  Zn14  1  0.42846000  0.33276000  0.40027000  1.0 0.7521534722
Zn  Zn15  1  0.07154000  0.83276000  0.59973000  1.0 0.7521534722
Zn  Zn16  1  0.07154000  0.66724000  0.90027000  1.0 0.7521534722
Zn  Zn17  1  0.58052000  0.82962000  0.14428000  1.0 0.7521534722
Zn  Zn18  1  0.58052000  0.67038000  0.35572000  1.0 0.7521534722
Zn  Zn19  1  0.91948000  0.17038000  0.64428000  1.0 0.7521534722
Zn  Zn20  1  0.91948000  0.32962000  0.85572000  1.0 0.7521534722
Zn  Zn21  1  0.41948000  0.17038000  0.85572000  1.0 0.7521534722
Zn  Zn22  1  0.41948000  0.32962000  0.64428000  1.0 0.7521534722
Zn  Zn23  1  0.08052000  0.82962000  0.35572000  1.0 0.7521534722
Zn  Zn24  1  0.08052000  0.67038000  0.14428000  1.0 0.7521534722
H  H1  1  0.54770000  0.89500000  0.26550000  1.0 0.1403143032
H  H2  1  0.54770000  0.60500000  0.23450000  1.0 0.1403143032
H  H3  1  0.95230000  0.10500000  0.76550000  1.0 0.1403143032
H  H4  1  0.95230000  0.39500000  0.73450000  1.0 0.1403143032
H  H5  1  0.45230000  0.10500000  0.73450000  1.0 0.1403143032
H  H6  1  0.45230000  0.39500000  0.76550000  1.0 0.1403143032
H  H7  1  0.04770000  0.89500000  0.23450000  1.0 0.1403143032
H  H8  1  0.04770000  0.60500000  0.26550000  1.0 0.1403143032
H  H9  1  0.49550000  0.84250000  0.21840000  1.0 0.1202887308
H  H10  1  0.49550000  0.65750000  0.28160000  1.0 0.1202887308
H  H11  1  0.00450000  0.15750000  0.71840000  1.0 0.1202887308
H  H12  1  0.00450000  0.34250000  0.78160000  1.0 0.1202887308
H  H13  1  0.50450000  0.15750000  0.78160000  1.0 0.1202887308
H  H14  1  0.50450000  0.34250000  0.71840000  1.0 0.1202887308
H  H15  1  0.99550000  0.84250000  0.28160000  1.0 0.1202887308
H  H16  1  0.99550000  0.65750000  0.21840000  1.0 0.1202887308
H  H17  1  0.79290000  0.99800000  0.20710000  1.0 0.1298019971
H  H18  1  0.79290000  0.50200000  0.29290000  1.0 0.1298019971
H  H19  1  0.70710000  0.00200000  0.70710000  1.0 0.1298019971
H  H20  1  0.70710000  0.49800000  0.79290000  1.0 0.1298019971
H  H21  1  0.20710000  0.00200000  0.79290000  1.0 0.1298019971
H  H22  1  0.20710000  0.49800000  0.70710000  1.0 0.1298019971
H  H23  1  0.29290000  0.99800000  0.29290000  1.0 0.1298019971
H  H24  1  0.29290000  0.50200000  0.20710000  1.0 0.1298019971
H  H25  1  0.70220000  0.08500000  0.37300000  1.0 0.110617703
H  H26  1  0.70220000  0.41500000  0.12700000  1.0 0.110617703
H  H27  1  0.79780000  0.91500000  0.87300000  1.0 0.110617703
H  H28  1  0.79780000  0.58500000  0.62700000  1.0 0.110617703
H  H29  1  0.29780000  0.91500000  0.62700000  1.0 0.110617703
H  H30  1  0.29780000  0.58500000  0.87300000  1.0 0.110617703
H  H31  1  0.20220000  0.08500000  0.12700000  1.0 0.110617703
H  H32  1  0.20220000  0.41500000  0.37300000  1.0 0.110617703
H  H33  1  0.07500000  0.13210000  0.33280000  1.0 0.1202887308
H  H34  1  0.07500000  0.36790000  0.16720000  1.0 0.1202887308
H  H35  1  0.42500000  0.86790000  0.83280000  1.0 0.1202887308
H  H36  1  0.42500000  0.63210000  0.66720000  1.0 0.1202887308
H  H37  1  0.92500000  0.86790000  0.66720000  1.0 0.1202887308
H  H38  1  0.92500000  0.63210000  0.83280000  1.0 0.1202887308
H  H39  1  0.57500000  0.13210000  0.16720000  1.0 0.1202887308
H  H40  1  0.57500000  0.36790000  0.33280000  1.0 0.1202887308
H  H41  1  0.64640000  0.02940000  0.32750000  1.0 0.1298019971
H  H42  1  0.64640000  0.47060000  0.17250000  1.0 0.1298019971
H  H43  1  0.85360000  0.97060000  0.82750000  1.0 0.1298019971
H  H44  1  0.85360000  0.52940000  0.67250000  1.0 0.1298019971
H  H45  1  0.35360000  0.97060000  0.67250000  1.0 0.1298019971
H  H46  1  0.35360000  0.52940000  0.82750000  1.0 0.1298019971
H  H47  1  0.14640000  0.02940000  0.17250000  1.0 0.1298019971
H  H48  1  0.14640000  0.47060000  0.32750000  1.0 0.1298019971
H  H49  1  0.02730000  0.08050000  0.28480000  1.0 0.1403143032
H  H50  1  0.02730000  0.41950000  0.21520000  1.0 0.1403143032
H  H51  1  0.47270000  0.91950000  0.78480000  1.0 0.1403143032
H  H52  1  0.47270000  0.58050000  0.71520000  1.0 0.1403143032
H  H53  1  0.97270000  0.91950000  0.71520000  1.0 0.1403143032
H  H54  1  0.97270000  0.58050000  0.78480000  1.0 0.1403143032
H  H55  1  0.52730000  0.08050000  0.21520000  1.0 0.1403143032
H  H56  1  0.52730000  0.41950000  0.28480000  1.0 0.1403143032
H  H57  1  0.73230000  0.94250000  0.16140000  1.0 0.110617703
H  H58  1  0.73230000  0.55750000  0.33860000  1.0 0.110617703
H  H59  1  0.76770000  0.05750000  0.66140000  1.0 0.110617703
H  H60  1  0.76770000  0.44250000  0.83860000  1.0 0.110617703
H  H61  1  0.26770000  0.05750000  0.83860000  1.0 0.110617703
H  H62  1  0.26770000  0.44250000  0.66140000  1.0 0.110617703
H  H63  1  0.23230000  0.94250000  0.33860000  1.0 0.110617703
H  H64  1  0.23230000  0.55750000  0.16140000  1.0 0.110617703
H  H65  1  0.51390000  0.54390000  0.01720000  1.0 0.110617703
H  H66  1  0.51390000  0.95610000  0.48280000  1.0 0.110617703
H  H67  1  0.98610000  0.45610000  0.51720000  1.0 0.110617703
H  H68  1  0.98610000  0.04390000  0.98280000  1.0 0.110617703
H  H69  1  0.48610000  0.45610000  0.98280000  1.0 0.110617703
H  H70  1  0.48610000  0.04390000  0.51720000  1.0 0.110617703
H  H71  1  0.01390000  0.54390000  0.48280000  1.0 0.110617703
H  H72  1  0.01390000  0.95610000  0.01720000  1.0 0.110617703
H  H73  1  0.75460000  0.67930000  0.01980000  1.0 0.110617703
H  H74  1  0.75460000  0.82070000  0.48020000  1.0 0.110617703
H  H75  1  0.74540000  0.32070000  0.51980000  1.0 0.110617703
H  H76  1  0.74540000  0.17930000  0.98020000  1.0 0.110617703
H  H77  1  0.24540000  0.32070000  0.98020000  1.0 0.110617703
H  H78  1  0.24540000  0.17930000  0.51980000  1.0 0.110617703
H  H79  1  0.25460000  0.67930000  0.48020000  1.0 0.110617703
H  H80  1  0.25460000  0.82070000  0.01980000  1.0 0.110617703
H  H81  1  0.45600000  0.91710000  0.09360000  1.0 0.110617703
H  H82  1  0.45600000  0.58290000  0.40640000  1.0 0.110617703
H  H83  1  0.04400000  0.08290000  0.59360000  1.0 0.110617703
H  H84  1  0.04400000  0.41710000  0.90640000  1.0 0.110617703
H  H85  1  0.54400000  0.08290000  0.90640000  1.0 0.110617703
H  H86  1  0.54400000  0.41710000  0.59360000  1.0 0.110617703
H  H87  1  0.95600000  0.91710000  0.40640000  1.0 0.110617703
H  H88  1  0.95600000  0.58290000  0.09360000  1.0 0.110617703
H  H89  1  0.24930000  0.84410000  0.16800000  1.0 0.110617703
H  H90  1  0.24930000  0.65590000  0.33200000  1.0 0.110617703
H  H91  1  0.25070000  0.15590000  0.66800000  1.0 0.110617703
H  H92  1  0.25070000  0.34410000  0.83200000  1.0 0.110617703
H  H93  1  0.75070000  0.15590000  0.83200000  1.0 0.110617703
H  H94  1  0.75070000  0.34410000  0.66800000  1.0 0.110617703
H  H95  1  0.74930000  0.84410000  0.33200000  1.0 0.110617703
H  H96  1  0.74930000  0.65590000  0.16800000  1.0 0.110617703
H  H97  1  0.97460000  0.62890000  0.01580000  1.0 0.1478672481
H  H98  1  0.97460000  0.87110000  0.48420000  1.0 0.1478672481
H  H99  1  0.52540000  0.37110000  0.51580000  1.0 0.1478672481
H  H100  1  0.52540000  0.12890000  0.98420000  1.0 0.1478672481
H  H101  1  0.02540000  0.37110000  0.98420000  1.0 0.1478672481
H  H102  1  0.02540000  0.12890000  0.51580000  1.0 0.1478672481
H  H103  1  0.47460000  0.62890000  0.48420000  1.0 0.1478672481
H  H104  1  0.47460000  0.87110000  0.01580000  1.0 0.1478672481
H  H105  1  0.03280000  0.89530000  0.15760000  1.0 0.1478672481
H  H106  1  0.03280000  0.60470000  0.34240000  1.0 0.1478672481
H  H107  1  0.46720000  0.10470000  0.65760000  1.0 0.1478672481
H  H108  1  0.46720000  0.39530000  0.84240000  1.0 0.1478672481
H  H109  1  0.96720000  0.10470000  0.84240000  1.0 0.1478672481
H  H110  1  0.96720000  0.39530000  0.65760000  1.0 0.1478672481
H  H111  1  0.53280000  0.89530000  0.34240000  1.0 0.1478672481
H  H112  1  0.53280000  0.60470000  0.15760000  1.0 0.1478672481
H  H113  1  0.24900000  0.97210000  0.08180000  1.0 0.1298019971
H  H114  1  0.24900000  0.52790000  0.41820000  1.0 0.1298019971
H  H115  1  0.25100000  0.02790000  0.58180000  1.0 0.1298019971
H  H116  1  0.25100000  0.47210000  0.91820000  1.0 0.1298019971
H  H117  1  0.75100000  0.02790000  0.91820000  1.0 0.1298019971
H  H118  1  0.75100000  0.47210000  0.58180000  1.0 0.1298019971
H  H119  1  0.74900000  0.97210000  0.41820000  1.0 0.1298019971
H  H120  1  0.74900000  0.52790000  0.08180000  1.0 0.1298019971
H  H121  1  0.49870000  0.04180000  0.08670000  1.0 0.110617703
H  H122  1  0.49870000  0.45820000  0.41330000  1.0 0.110617703
H  H123  1  0.00130000  0.95820000  0.58670000  1.0 0.110617703
H  H124  1  0.00130000  0.54180000  0.91330000  1.0 0.110617703
H  H125  1  0.50130000  0.95820000  0.91330000  1.0 0.110617703
H  H126  1  0.50130000  0.54180000  0.58670000  1.0 0.110617703
H  H127  1  0.99870000  0.04180000  0.41330000  1.0 0.110617703
H  H128  1  0.99870000  0.45820000  0.08670000  1.0 0.110617703
H  H129  1  0.72160000  0.48780000  0.00930000  1.0 0.1478672481
H  H130  1  0.72160000  0.01220000  0.49070000  1.0 0.1478672481
H  H131  1  0.77840000  0.51220000  0.50930000  1.0 0.1478672481
H  H132  1  0.77840000  0.98780000  0.99070000  1.0 0.1478672481
H  H133  1  0.27840000  0.51220000  0.99070000  1.0 0.1478672481
H  H134  1  0.27840000  0.98780000  0.50930000  1.0 0.1478672481
H  H135  1  0.22160000  0.48780000  0.49070000  1.0 0.1478672481
H  H136  1  0.22160000  0.01220000  0.00930000  1.0 0.1478672481
H  H137  1  0.76670000  0.16520000  0.07770000  1.0 0.110617703
H  H138  1  0.76670000  0.33480000  0.42230000  1.0 0.110617703
H  H139  1  0.73330000  0.83480000  0.57770000  1.0 0.110617703
H  H140  1  0.73330000  0.66520000  0.92230000  1.0 0.110617703
H  H141  1  0.23330000  0.83480000  0.92230000  1.0 0.110617703
H  H142  1  0.23330000  0.66520000  0.57770000  1.0 0.110617703
H  H143  1  0.26670000  0.16520000  0.42230000  1.0 0.110617703
H  H144  1  0.26670000  0.33480000  0.07770000  1.0 0.110617703
H  H145  1  0.69160000  0.97910000  0.09070000  1.0 0.1478672481
H  H146  1  0.69160000  0.52090000  0.40930000  1.0 0.1478672481
H  H147  1  0.80840000  0.02090000  0.59070000  1.0 0.1478672481
H  H148  1  0.80840000  0.47910000  0.90930000  1.0 0.1478672481
H  H149  1  0.30840000  0.02090000  0.90930000  1.0 0.1478672481
H  H150  1  0.30840000  0.47910000  0.59070000  1.0 0.1478672481
H  H151  1  0.19160000  0.97910000  0.40930000  1.0 0.1478672481
H  H152  1  0.19160000  0.52090000  0.09070000  1.0 0.1478672481
H  H153  1  0.97080000  0.10750000  0.07870000  1.0 0.1403143032
H  H154  1  0.97080000  0.39250000  0.42130000  1.0 0.1403143032
H  H155  1  0.52920000  0.89250000  0.57870000  1.0 0.1403143032
H  H156  1  0.52920000  0.60750000  0.92130000  1.0 0.1403143032
H  H157  1  0.02920000  0.89250000  0.92130000  1.0 0.1403143032
H  H158  1  0.02920000  0.60750000  0.57870000  1.0 0.1403143032
H  H159  1  0.47080000  0.10750000  0.42130000  1.0 0.1403143032
H  H160  1  0.47080000  0.39250000  0.07870000  1.0 0.1403143032
H  H161  1  0.15440000  0.70290000  0.00700000  1.0 0.3290452968
H  H162  1  0.15440000  0.79710000  0.49300000  1.0 0.3290452968
H  H163  1  0.34560000  0.29710000  0.50700000  1.0 0.3290452968
H  H164  1  0.34560000  0.20290000  0.99300000  1.0 0.3290452968
H  H165  1  0.84560000  0.29710000  0.99300000  1.0 0.3290452968
H  H166  1  0.84560000  0.20290000  0.50700000  1.0 0.3290452968
H  H167  1  0.65440000  0.70290000  0.49300000  1.0 0.3290452968
H  H168  1  0.65440000  0.79710000  0.00700000  1.0 0.3290452968
H  H169  1  0.18040000  0.71450000  0.04150000  1.0 0.3175774861
H  H170  1  0.18040000  0.78550000  0.45850000  1.0 0.3175774861
H  H171  1  0.31960000  0.28550000  0.54150000  1.0 0.3175774861
H  H172  1  0.31960000  0.21450000  0.95850000  1.0 0.3175774861
H  H173  1  0.81960000  0.28550000  0.95850000  1.0 0.3175774861
H  H174  1  0.81960000  0.21450000  0.54150000  1.0 0.3175774861
H  H175  1  0.68040000  0.71450000  0.45850000  1.0 0.3175774861
H  H176  1  0.68040000  0.78550000  0.04150000  1.0 0.3175774861
C  C1  1  0.42240000  0.72850000  0.11932000  1.0 -0.0287878099
C  C2  1  0.42240000  0.77150000  0.38068000  1.0 -0.0287878099
C  C3  1  0.07760000  0.27150000  0.61932000  1.0 -0.0287878099
C  C4  1  0.07760000  0.22850000  0.88068000  1.0 -0.0287878099
C  C5  1  0.57760000  0.27150000  0.88068000  1.0 -0.0287878099
C  C6  1  0.57760000  0.22850000  0.61932000  1.0 -0.0287878099
C  C7  1  0.92240000  0.72850000  0.38068000  1.0 -0.0287878099
C  C8  1  0.92240000  0.77150000  0.11932000  1.0 -0.0287878099
C  C9  1  0.41010000  0.73180000  0.92452000  1.0 -0.0202655085
C  C10  1  0.41010000  0.76820000  0.57548000  1.0 -0.0202655085
C  C11  1  0.08990000  0.26820000  0.42452000  1.0 -0.0202655085
C  C12  1  0.08990000  0.23180000  0.07548000  1.0 -0.0202655085
C  C13  1  0.58990000  0.26820000  0.07548000  1.0 -0.0202655085
C  C14  1  0.58990000  0.23180000  0.42452000  1.0 -0.0202655085
C  C15  1  0.91010000  0.73180000  0.57548000  1.0 -0.0202655085
C  C16  1  0.91010000  0.76820000  0.92452000  1.0 -0.0202655085
C  C17  1  0.38900000  0.69150000  0.09349000  1.0 -0.0287878099
C  C18  1  0.38900000  0.80850000  0.40651000  1.0 -0.0287878099
C  C19  1  0.11100000  0.30850000  0.59349000  1.0 -0.0287878099
C  C20  1  0.11100000  0.19150000  0.90651000  1.0 -0.0287878099
C  C21  1  0.61100000  0.30850000  0.90651000  1.0 -0.0287878099
C  C22  1  0.61100000  0.19150000  0.59349000  1.0 -0.0287878099
C  C23  1  0.88900000  0.69150000  0.40651000  1.0 -0.0287878099
C  C24  1  0.88900000  0.80850000  0.09349000  1.0 -0.0287878099
C  C25  1  0.38370000  0.69350000  0.95005000  1.0 -0.0287878099
C  C26  1  0.38370000  0.80650000  0.54995000  1.0 -0.0287878099
C  C27  1  0.11630000  0.30650000  0.45005000  1.0 -0.0287878099
C  C28  1  0.11630000  0.19350000  0.04995000  1.0 -0.0287878099
C  C29  1  0.61630000  0.30650000  0.04995000  1.0 -0.0287878099
C  C30  1  0.61630000  0.19350000  0.45005000  1.0 -0.0287878099
C  C31  1  0.88370000  0.69350000  0.54995000  1.0 -0.0287878099
C  C32  1  0.88370000  0.80650000  0.95005000  1.0 -0.0287878099
C  C33  1  0.58670000  0.90550000  0.24460000  1.0 -0.1997543202
C  C34  1  0.58670000  0.59450000  0.25540000  1.0 -0.1997543202
C  C35  1  0.91330000  0.09450000  0.74460000  1.0 -0.1997543202
C  C36  1  0.91330000  0.40550000  0.75540000  1.0 -0.1997543202
C  C37  1  0.41330000  0.09450000  0.75540000  1.0 -0.1997543202
C  C38  1  0.41330000  0.40550000  0.74460000  1.0 -0.1997543202
C  C39  1  0.08670000  0.90550000  0.25540000  1.0 -0.1997543202
C  C40  1  0.08670000  0.59450000  0.24460000  1.0 -0.1997543202
C  C41  1  0.55560000  0.87430000  0.21619000  1.0 0.0992085212
C  C42  1  0.55560000  0.62570000  0.28381000  1.0 0.0992085212
C  C43  1  0.94440000  0.12570000  0.71619000  1.0 0.0992085212
C  C44  1  0.94440000  0.37430000  0.78381000  1.0 0.0992085212
C  C45  1  0.44440000  0.12570000  0.78381000  1.0 0.0992085212
C  C46  1  0.44440000  0.37430000  0.71619000  1.0 0.0992085212
C  C47  1  0.05560000  0.87430000  0.28381000  1.0 0.0992085212
C  C48  1  0.05560000  0.62570000  0.21619000  1.0 0.0992085212
C  C49  1  0.73200000  0.96660000  0.20990000  1.0 -0.2110044506
C  C50  1  0.73200000  0.53340000  0.29010000  1.0 -0.2110044506
C  C51  1  0.76800000  0.03340000  0.70990000  1.0 -0.2110044506
C  C52  1  0.76800000  0.46660000  0.79010000  1.0 -0.2110044506
C  C53  1  0.26800000  0.03340000  0.79010000  1.0 -0.2110044506
C  C54  1  0.26800000  0.46660000  0.70990000  1.0 -0.2110044506
C  C55  1  0.23200000  0.96660000  0.29010000  1.0 -0.2110044506
C  C56  1  0.23200000  0.53340000  0.20990000  1.0 -0.2110044506
C  C57  1  0.67610000  0.95240000  0.24174000  1.0 0.1804736565
C  C58  1  0.67610000  0.54760000  0.25826000  1.0 0.1804736565
C  C59  1  0.82390000  0.04760000  0.74174000  1.0 0.1804736565
C  C60  1  0.82390000  0.45240000  0.75826000  1.0 0.1804736565
C  C61  1  0.32390000  0.04760000  0.75826000  1.0 0.1804736565
C  C62  1  0.32390000  0.45240000  0.74174000  1.0 0.1804736565
C  C63  1  0.17610000  0.95240000  0.25826000  1.0 0.1804736565
C  C64  1  0.17610000  0.54760000  0.24174000  1.0 0.1804736565
C  C65  1  0.83010000  0.04960000  0.30040000  1.0 0.1864202648
C  C66  1  0.83010000  0.45040000  0.19960000  1.0 0.1864202648
C  C67  1  0.66990000  0.95040000  0.80040000  1.0 0.1864202648
C  C68  1  0.66990000  0.54960000  0.69960000  1.0 0.1864202648
C  C69  1  0.16990000  0.95040000  0.69960000  1.0 0.1864202648
C  C70  1  0.16990000  0.54960000  0.80040000  1.0 0.1864202648
C  C71  1  0.33010000  0.04960000  0.19960000  1.0 0.1864202648
C  C72  1  0.33010000  0.45040000  0.30040000  1.0 0.1864202648
C  C73  1  0.76930000  0.08370000  0.35490000  1.0 0.0802193025
C  C74  1  0.76930000  0.41630000  0.14510000  1.0 0.0802193025
C  C75  1  0.73070000  0.91630000  0.85490000  1.0 0.0802193025
C  C76  1  0.73070000  0.58370000  0.64510000  1.0 0.0802193025
C  C77  1  0.23070000  0.91630000  0.64510000  1.0 0.0802193025
C  C78  1  0.23070000  0.58370000  0.85490000  1.0 0.0802193025
C  C79  1  0.26930000  0.08370000  0.14510000  1.0 0.0802193025
C  C80  1  0.26930000  0.41630000  0.35490000  1.0 0.0802193025
C  C81  1  0.98620000  0.11170000  0.33160000  1.0 0.0992085212
C  C82  1  0.98620000  0.38830000  0.16840000  1.0 0.0992085212
C  C83  1  0.51380000  0.88830000  0.83160000  1.0 0.0992085212
C  C84  1  0.51380000  0.61170000  0.66840000  1.0 0.0992085212
C  C85  1  0.01380000  0.88830000  0.66840000  1.0 0.0992085212
C  C86  1  0.01380000  0.61170000  0.83160000  1.0 0.0992085212
C  C87  1  0.48620000  0.11170000  0.16840000  1.0 0.0992085212
C  C88  1  0.48620000  0.38830000  0.33160000  1.0 0.0992085212
C  C89  1  0.73390000  0.05070000  0.32760000  1.0 -0.2110044506
C  C90  1  0.73390000  0.44930000  0.17240000  1.0 -0.2110044506
C  C91  1  0.76610000  0.94930000  0.82760000  1.0 -0.2110044506
C  C92  1  0.76610000  0.55070000  0.67240000  1.0 -0.2110044506
C  C93  1  0.26610000  0.94930000  0.67240000  1.0 -0.2110044506
C  C94  1  0.26610000  0.55070000  0.82760000  1.0 -0.2110044506
C  C95  1  0.23390000  0.05070000  0.17240000  1.0 -0.2110044506
C  C96  1  0.23390000  0.44930000  0.32760000  1.0 -0.2110044506
C  C97  1  0.95870000  0.08040000  0.30260000  1.0 -0.1997543202
C  C98  1  0.95870000  0.41960000  0.19740000  1.0 -0.1997543202
C  C99  1  0.54130000  0.91960000  0.80260000  1.0 -0.1997543202
C  C100  1  0.54130000  0.58040000  0.69740000  1.0 -0.1997543202
C  C101  1  0.04130000  0.91960000  0.69740000  1.0 -0.1997543202
C  C102  1  0.04130000  0.58040000  0.80260000  1.0 -0.1997543202
C  C103  1  0.45870000  0.08040000  0.19740000  1.0 -0.1997543202
C  C104  1  0.45870000  0.41960000  0.30260000  1.0 -0.1997543202
C  C105  1  0.69520000  0.93320000  0.18270000  1.0 0.0802193025
C  C106  1  0.69520000  0.56680000  0.31730000  1.0 0.0802193025
C  C107  1  0.80480000  0.06680000  0.68270000  1.0 0.0802193025
C  C108  1  0.80480000  0.43320000  0.81730000  1.0 0.0802193025
C  C109  1  0.30480000  0.06680000  0.81730000  1.0 0.0802193025
C  C110  1  0.30480000  0.43320000  0.68270000  1.0 0.0802193025
C  C111  1  0.19520000  0.93320000  0.31730000  1.0 0.0802193025
C  C112  1  0.19520000  0.56680000  0.18270000  1.0 0.0802193025
C  C113  1  0.29450000  0.64050000  0.08838000  1.0 0.5576534915
C  C114  1  0.29450000  0.85950000  0.41162000  1.0 0.5576534915
C  C115  1  0.20550000  0.35950000  0.58838000  1.0 0.5576534915
C  C116  1  0.20550000  0.14050000  0.91162000  1.0 0.5576534915
C  C117  1  0.70550000  0.35950000  0.91162000  1.0 0.5576534915
C  C118  1  0.70550000  0.14050000  0.58838000  1.0 0.5576534915
C  C119  1  0.79450000  0.64050000  0.41162000  1.0 0.5576534915
C  C120  1  0.79450000  0.85950000  0.08838000  1.0 0.5576534915
C  C121  1  0.35250000  0.74280000  0.88904000  1.0 0.5712150346
C  C122  1  0.35250000  0.75720000  0.61096000  1.0 0.5712150346
C  C123  1  0.14750000  0.25720000  0.38904000  1.0 0.5712150346
C  C124  1  0.14750000  0.24280000  0.11096000  1.0 0.5712150346
C  C125  1  0.64750000  0.25720000  0.11096000  1.0 0.5712150346
C  C126  1  0.64750000  0.24280000  0.38904000  1.0 0.5712150346
C  C127  1  0.85250000  0.74280000  0.61096000  1.0 0.5712150346
C  C128  1  0.85250000  0.75720000  0.88904000  1.0 0.5712150346
C  C129  1  0.37230000  0.73710000  0.15499000  1.0 0.5712150346
C  C130  1  0.37230000  0.76290000  0.34501000  1.0 0.5712150346
C  C131  1  0.12770000  0.26290000  0.65499000  1.0 0.5712150346
C  C132  1  0.12770000  0.23710000  0.84501000  1.0 0.5712150346
C  C133  1  0.62770000  0.26290000  0.84501000  1.0 0.5712150346
C  C134  1  0.62770000  0.23710000  0.65499000  1.0 0.5712150346
C  C135  1  0.87230000  0.73710000  0.34501000  1.0 0.5712150346
C  C136  1  0.87230000  0.76290000  0.15499000  1.0 0.5712150346
C  C137  1  0.29580000  0.64030000  0.95465000  1.0 0.5576534915
C  C138  1  0.29580000  0.85970000  0.54535000  1.0 0.5576534915
C  C139  1  0.20420000  0.35970000  0.45465000  1.0 0.5576534915
C  C140  1  0.20420000  0.14030000  0.04535000  1.0 0.5576534915
C  C141  1  0.70420000  0.35970000  0.04535000  1.0 0.5576534915
C  C142  1  0.70420000  0.14030000  0.45465000  1.0 0.5576534915
C  C143  1  0.79580000  0.64030000  0.54535000  1.0 0.5576534915
C  C144  1  0.79580000  0.85970000  0.95465000  1.0 0.5576534915
C  C145  1  0.60770000  0.56090000  0.01604000  1.0 0.0802193025
C  C146  1  0.60770000  0.93910000  0.48396000  1.0 0.0802193025
C  C147  1  0.89230000  0.43910000  0.51604000  1.0 0.0802193025
C  C148  1  0.89230000  0.06090000  0.98396000  1.0 0.0802193025
C  C149  1  0.39230000  0.43910000  0.98396000  1.0 0.0802193025
C  C150  1  0.39230000  0.06090000  0.51604000  1.0 0.0802193025
C  C151  1  0.10770000  0.56090000  0.48396000  1.0 0.0802193025
C  C152  1  0.10770000  0.93910000  0.01604000  1.0 0.0802193025
C  C153  1  0.74940000  0.64040000  0.01810000  1.0 0.0802193025
C  C154  1  0.74940000  0.85960000  0.48190000  1.0 0.0802193025
C  C155  1  0.75060000  0.35960000  0.51810000  1.0 0.0802193025
C  C156  1  0.75060000  0.14040000  0.98190000  1.0 0.0802193025
C  C157  1  0.25060000  0.35960000  0.98190000  1.0 0.0802193025
C  C158  1  0.25060000  0.14040000  0.51810000  1.0 0.0802193025
C  C159  1  0.24940000  0.64040000  0.48190000  1.0 0.0802193025
C  C160  1  0.24940000  0.85960000  0.01810000  1.0 0.0802193025
C  C161  1  0.37010000  0.91280000  0.10670000  1.0 0.0992085212
C  C162  1  0.37010000  0.58720000  0.39330000  1.0 0.0992085212
C  C163  1  0.12990000  0.08720000  0.60670000  1.0 0.0992085212
C  C164  1  0.12990000  0.41280000  0.89330000  1.0 0.0992085212
C  C165  1  0.62990000  0.08720000  0.89330000  1.0 0.0992085212
C  C166  1  0.62990000  0.41280000  0.60670000  1.0 0.0992085212
C  C167  1  0.87010000  0.91280000  0.39330000  1.0 0.0992085212
C  C168  1  0.87010000  0.58720000  0.10670000  1.0 0.0992085212
C  C169  1  0.24840000  0.86980000  0.15020000  1.0 0.0892735023
C  C170  1  0.24840000  0.63020000  0.34980000  1.0 0.0892735023
C  C171  1  0.25160000  0.13020000  0.65020000  1.0 0.0892735023
C  C172  1  0.25160000  0.36980000  0.84980000  1.0 0.0892735023
C  C173  1  0.75160000  0.13020000  0.84980000  1.0 0.0892735023
C  C174  1  0.75160000  0.36980000  0.65020000  1.0 0.0892735023
C  C175  1  0.74840000  0.86980000  0.34980000  1.0 0.0892735023
C  C176  1  0.74840000  0.63020000  0.15020000  1.0 0.0892735023
C  C177  1  0.88180000  0.61110000  0.01490000  1.0 -0.1997543202
C  C178  1  0.88180000  0.88890000  0.48510000  1.0 -0.1997543202
C  C179  1  0.61820000  0.38890000  0.51490000  1.0 -0.1997543202
C  C180  1  0.61820000  0.11110000  0.98510000  1.0 -0.1997543202
C  C181  1  0.11820000  0.38890000  0.98510000  1.0 -0.1997543202
C  C182  1  0.11820000  0.11110000  0.51490000  1.0 -0.1997543202
C  C183  1  0.38180000  0.61110000  0.48510000  1.0 -0.1997543202
C  C184  1  0.38180000  0.88890000  0.01490000  1.0 -0.1997543202
C  C185  1  0.11760000  0.90050000  0.14430000  1.0 -0.1868256552
C  C186  1  0.11760000  0.59950000  0.35570000  1.0 -0.1868256552
C  C187  1  0.38240000  0.09950000  0.64430000  1.0 -0.1868256552
C  C188  1  0.38240000  0.40050000  0.85570000  1.0 -0.1868256552
C  C189  1  0.88240000  0.09950000  0.85570000  1.0 -0.1868256552
C  C190  1  0.88240000  0.40050000  0.64430000  1.0 -0.1868256552
C  C191  1  0.61760000  0.90050000  0.35570000  1.0 -0.1868256552
C  C192  1  0.61760000  0.59950000  0.14430000  1.0 -0.1868256552
C  C193  1  0.11760000  0.93790000  0.11860000  1.0 0.1728022258
C  C194  1  0.11760000  0.56210000  0.38140000  1.0 0.1728022258
C  C195  1  0.38240000  0.06210000  0.61860000  1.0 0.1728022258
C  C196  1  0.38240000  0.43790000  0.88140000  1.0 0.1728022258
C  C197  1  0.88240000  0.06210000  0.88140000  1.0 0.1728022258
C  C198  1  0.88240000  0.43790000  0.61860000  1.0 0.1728022258
C  C199  1  0.61760000  0.93790000  0.38140000  1.0 0.1728022258
C  C200  1  0.61760000  0.56210000  0.11860000  1.0 0.1728022258
C  C201  1  0.24630000  0.94570000  0.09920000  1.0 -0.2110044506
C  C202  1  0.24630000  0.55430000  0.40080000  1.0 -0.2110044506
C  C203  1  0.25370000  0.05430000  0.59920000  1.0 -0.2110044506
C  C204  1  0.25370000  0.44570000  0.90080000  1.0 -0.2110044506
C  C205  1  0.75370000  0.05430000  0.90080000  1.0 -0.2110044506
C  C206  1  0.75370000  0.44570000  0.59920000  1.0 -0.2110044506
C  C207  1  0.74630000  0.94570000  0.40080000  1.0 -0.2110044506
C  C208  1  0.74630000  0.55430000  0.09920000  1.0 -0.2110044506
C  C209  1  0.59610000  0.05580000  0.08660000  1.0 0.0690625321
C  C210  1  0.59610000  0.44420000  0.41340000  1.0 0.0690625321
C  C211  1  0.90390000  0.94420000  0.58660000  1.0 0.0690625321
C  C212  1  0.90390000  0.55580000  0.91340000  1.0 0.0690625321
C  C213  1  0.40390000  0.94420000  0.91340000  1.0 0.0690625321
C  C214  1  0.40390000  0.55580000  0.58660000  1.0 0.0690625321
C  C215  1  0.09610000  0.05580000  0.41340000  1.0 0.0690625321
C  C216  1  0.09610000  0.44420000  0.08660000  1.0 0.0690625321
C  C217  1  0.86880000  0.55300000  0.01010000  1.0 0.1864202648
C  C218  1  0.86880000  0.94700000  0.48990000  1.0 0.1864202648
C  C219  1  0.63120000  0.44700000  0.51010000  1.0 0.1864202648
C  C220  1  0.63120000  0.05300000  0.98990000  1.0 0.1864202648
C  C221  1  0.13120000  0.44700000  0.98990000  1.0 0.1864202648
C  C222  1  0.13120000  0.05300000  0.51010000  1.0 0.1864202648
C  C223  1  0.36880000  0.55300000  0.48990000  1.0 0.1864202648
C  C224  1  0.36880000  0.94700000  0.01010000  1.0 0.1864202648
C  C225  1  0.73090000  0.52660000  0.01140000  1.0 -0.2203556847
C  C226  1  0.73090000  0.97340000  0.48860000  1.0 -0.2203556847
C  C227  1  0.76910000  0.47340000  0.51140000  1.0 -0.2203556847
C  C228  1  0.76910000  0.02660000  0.98860000  1.0 -0.2203556847
C  C229  1  0.26910000  0.47340000  0.98860000  1.0 -0.2203556847
C  C230  1  0.26910000  0.02660000  0.51140000  1.0 -0.2203556847
C  C231  1  0.23090000  0.52660000  0.48860000  1.0 -0.2203556847
C  C232  1  0.23090000  0.97340000  0.01140000  1.0 -0.2203556847
C  C233  1  0.75080000  0.12700000  0.08100000  1.0 0.0802193025
C  C234  1  0.75080000  0.37300000  0.41900000  1.0 0.0802193025
C  C235  1  0.74920000  0.87300000  0.58100000  1.0 0.0802193025
C  C236  1  0.74920000  0.62700000  0.91900000  1.0 0.0802193025
C  C237  1  0.24920000  0.87300000  0.91900000  1.0 0.0802193025
C  C238  1  0.24920000  0.62700000  0.58100000  1.0 0.0802193025
C  C239  1  0.25080000  0.12700000  0.41900000  1.0 0.0802193025
C  C240  1  0.25080000  0.37300000  0.08100000  1.0 0.0802193025
C  C241  1  0.85310000  0.03750000  0.08790000  1.0 0.1804736565
C  C242  1  0.85310000  0.46250000  0.41210000  1.0 0.1804736565
C  C243  1  0.64690000  0.96250000  0.58790000  1.0 0.1804736565
C  C244  1  0.64690000  0.53750000  0.91210000  1.0 0.1804736565
C  C245  1  0.14690000  0.96250000  0.91210000  1.0 0.1804736565
C  C246  1  0.14690000  0.53750000  0.58790000  1.0 0.1804736565
C  C247  1  0.35310000  0.03750000  0.41210000  1.0 0.1804736565
C  C248  1  0.35310000  0.46250000  0.08790000  1.0 0.1804736565
C  C249  1  0.71090000  0.01740000  0.08870000  1.0 -0.1997543202
C  C250  1  0.71090000  0.48260000  0.41130000  1.0 -0.1997543202
C  C251  1  0.78910000  0.98260000  0.58870000  1.0 -0.1997543202
C  C252  1  0.78910000  0.51740000  0.91130000  1.0 -0.1997543202
C  C253  1  0.28910000  0.98260000  0.91130000  1.0 -0.1997543202
C  C254  1  0.28910000  0.51740000  0.58870000  1.0 -0.1997543202
C  C255  1  0.21090000  0.01740000  0.41130000  1.0 -0.1997543202
C  C256  1  0.21090000  0.48260000  0.08870000  1.0 -0.1997543202
C  C257  1  0.87500000  0.09300000  0.08200000  1.0 -0.1868256552
C  C258  1  0.87500000  0.40700000  0.41800000  1.0 -0.1868256552
C  C259  1  0.62500000  0.90700000  0.58200000  1.0 -0.1868256552
C  C260  1  0.62500000  0.59300000  0.91800000  1.0 -0.1868256552
C  C261  1  0.12500000  0.90700000  0.91800000  1.0 -0.1868256552
C  C262  1  0.12500000  0.59300000  0.58200000  1.0 -0.1868256552
C  C263  1  0.37500000  0.09300000  0.41800000  1.0 -0.1868256552
C  C264  1  0.37500000  0.40700000  0.08200000  1.0 -0.1868256552
N  N1  1  0.46810000  0.71070000  0.97616000  1.0 -0.1783088249
N  N2  1  0.46810000  0.78930000  0.52384000  1.0 -0.1783088249
N  N3  1  0.03190000  0.28930000  0.47616000  1.0 -0.1783088249
N  N4  1  0.03190000  0.21070000  0.02384000  1.0 -0.1783088249
N  N5  1  0.53190000  0.28930000  0.02384000  1.0 -0.1783088249
N  N6  1  0.53190000  0.21070000  0.47616000  1.0 -0.1783088249
N  N7  1  0.96810000  0.71070000  0.52384000  1.0 -0.1783088249
N  N8  1  0.96810000  0.78930000  0.97616000  1.0 -0.1783088249
N  N9  1  0.60740000  0.88740000  0.18584000  1.0 -0.1997543202
N  N10  1  0.60740000  0.61260000  0.31416000  1.0 -0.1997543202
N  N11  1  0.89260000  0.11260000  0.68584000  1.0 -0.1997543202
N  N12  1  0.89260000  0.38740000  0.81416000  1.0 -0.1997543202
N  N13  1  0.39260000  0.11260000  0.81416000  1.0 -0.1997543202
N  N14  1  0.39260000  0.38740000  0.68584000  1.0 -0.1997543202
N  N15  1  0.10740000  0.88740000  0.31416000  1.0 -0.1997543202
N  N16  1  0.10740000  0.61260000  0.18584000  1.0 -0.1997543202
N  N17  1  0.89360000  0.11400000  0.35708000  1.0 -0.1997543202
N  N18  1  0.89360000  0.38600000  0.14292000  1.0 -0.1997543202
N  N19  1  0.60640000  0.88600000  0.85708000  1.0 -0.1997543202
N  N20  1  0.60640000  0.61400000  0.64292000  1.0 -0.1997543202
N  N21  1  0.10640000  0.88600000  0.64292000  1.0 -0.1997543202
N  N22  1  0.10640000  0.61400000  0.85708000  1.0 -0.1997543202
N  N23  1  0.39360000  0.11400000  0.14292000  1.0 -0.1997543202
N  N24  1  0.39360000  0.38600000  0.35708000  1.0 -0.1997543202
N  N25  1  0.54270000  0.75650000  0.96841000  1.0 -0.0461032831
N  N26  1  0.54270000  0.74350000  0.53159000  1.0 -0.0461032831
N  N27  1  0.95730000  0.24350000  0.46841000  1.0 -0.0461032831
N  N28  1  0.95730000  0.25650000  0.03159000  1.0 -0.0461032831
N  N29  1  0.45730000  0.24350000  0.03159000  1.0 -0.0461032831
N  N30  1  0.45730000  0.25650000  0.46841000  1.0 -0.0461032831
N  N31  1  0.04270000  0.75650000  0.53159000  1.0 -0.0461032831
N  N32  1  0.04270000  0.74350000  0.96841000  1.0 -0.0461032831
N  N33  1  0.51040000  0.77000000  0.93645000  1.0 -0.2110044506
N  N34  1  0.51040000  0.73000000  0.56355000  1.0 -0.2110044506
N  N35  1  0.98960000  0.23000000  0.43645000  1.0 -0.2110044506
N  N36  1  0.98960000  0.27000000  0.06355000  1.0 -0.2110044506
N  N37  1  0.48960000  0.23000000  0.06355000  1.0 -0.2110044506
N  N38  1  0.48960000  0.27000000  0.43645000  1.0 -0.2110044506
N  N39  1  0.01040000  0.77000000  0.56355000  1.0 -0.2110044506
N  N40  1  0.01040000  0.73000000  0.93645000  1.0 -0.2110044506
N  N41  1  0.52290000  0.76590000  0.10747000  1.0 -0.1997543202
N  N42  1  0.52290000  0.73410000  0.39253000  1.0 -0.1997543202
N  N43  1  0.97710000  0.23410000  0.60747000  1.0 -0.1997543202
N  N44  1  0.97710000  0.26590000  0.89253000  1.0 -0.1997543202
N  N45  1  0.47710000  0.23410000  0.89253000  1.0 -0.1997543202
N  N46  1  0.47710000  0.26590000  0.60747000  1.0 -0.1997543202
N  N47  1  0.02290000  0.76590000  0.39253000  1.0 -0.1997543202
N  N48  1  0.02290000  0.73410000  0.10747000  1.0 -0.1997543202
N  N49  1  0.47310000  0.70820000  0.06616000  1.0 -0.1997543202
N  N50  1  0.47310000  0.79180000  0.43384000  1.0 -0.1997543202
N  N51  1  0.02690000  0.29180000  0.56616000  1.0 -0.1997543202
N  N52  1  0.02690000  0.20820000  0.93384000  1.0 -0.1997543202
N  N53  1  0.52690000  0.29180000  0.93384000  1.0 -0.1997543202
N  N54  1  0.52690000  0.20820000  0.56616000  1.0 -0.1997543202
N  N55  1  0.97310000  0.70820000  0.43384000  1.0 -0.1997543202
N  N56  1  0.97310000  0.79180000  0.06616000  1.0 -0.1997543202
N  N57  1  0.55260000  0.75360000  0.07551000  1.0 -0.0395240084
N  N58  1  0.55260000  0.74640000  0.42449000  1.0 -0.0395240084
N  N59  1  0.94740000  0.24640000  0.57551000  1.0 -0.0395240084
N  N60  1  0.94740000  0.25360000  0.92449000  1.0 -0.0395240084
N  N61  1  0.44740000  0.24640000  0.92449000  1.0 -0.0395240084
N  N62  1  0.44740000  0.25360000  0.57551000  1.0 -0.0395240084
N  N63  1  0.05260000  0.75360000  0.42449000  1.0 -0.0395240084
N  N64  1  0.05260000  0.74640000  0.07551000  1.0 -0.0395240084
N  N65  1  0.70220000  0.98380000  0.27226000  1.0 -0.1399039261
N  N66  1  0.70220000  0.51620000  0.22774000  1.0 -0.1399039261
N  N67  1  0.79780000  0.01620000  0.77226000  1.0 -0.1399039261
N  N68  1  0.79780000  0.48380000  0.72774000  1.0 -0.1399039261
N  N69  1  0.29780000  0.01620000  0.72774000  1.0 -0.1399039261
N  N70  1  0.29780000  0.48380000  0.77226000  1.0 -0.1399039261
N  N71  1  0.20220000  0.98380000  0.22774000  1.0 -0.1399039261
N  N72  1  0.20220000  0.51620000  0.27226000  1.0 -0.1399039261
N  N73  1  0.80660000  0.01760000  0.26983000  1.0 -0.1183833581
N  N74  1  0.80660000  0.48240000  0.23017000  1.0 -0.1183833581
N  N75  1  0.69340000  0.98240000  0.76983000  1.0 -0.1183833581
N  N76  1  0.69340000  0.51760000  0.73017000  1.0 -0.1183833581
N  N77  1  0.19340000  0.98240000  0.73017000  1.0 -0.1183833581
N  N78  1  0.19340000  0.51760000  0.76983000  1.0 -0.1183833581
N  N79  1  0.30660000  0.01760000  0.23017000  1.0 -0.1183833581
N  N80  1  0.30660000  0.48240000  0.26983000  1.0 -0.1183833581
N  N81  1  0.61380000  0.61640000  0.01890000  1.0 -0.2203556847
N  N82  1  0.61380000  0.88360000  0.48110000  1.0 -0.2203556847
N  N83  1  0.88620000  0.38360000  0.51890000  1.0 -0.2203556847
N  N84  1  0.88620000  0.11640000  0.98110000  1.0 -0.2203556847
N  N85  1  0.38620000  0.38360000  0.98110000  1.0 -0.2203556847
N  N86  1  0.38620000  0.11640000  0.51890000  1.0 -0.2203556847
N  N87  1  0.11380000  0.61640000  0.48110000  1.0 -0.2203556847
N  N88  1  0.11380000  0.88360000  0.01890000  1.0 -0.2203556847
N  N89  1  0.37230000  0.87560000  0.13153000  1.0 -0.2203556847
N  N90  1  0.37230000  0.62440000  0.36847000  1.0 -0.2203556847
N  N91  1  0.12770000  0.12440000  0.63153000  1.0 -0.2203556847
N  N92  1  0.12770000  0.37560000  0.86847000  1.0 -0.2203556847
N  N93  1  0.62770000  0.12440000  0.86847000  1.0 -0.2203556847
N  N94  1  0.62770000  0.37560000  0.63153000  1.0 -0.2203556847
N  N95  1  0.87230000  0.87560000  0.36847000  1.0 -0.2203556847
N  N96  1  0.87230000  0.62440000  0.13153000  1.0 -0.2203556847
N  N97  1  0.61170000  0.11010000  0.08426000  1.0 -0.2110044506
N  N98  1  0.61170000  0.38990000  0.41574000  1.0 -0.2110044506
N  N99  1  0.88830000  0.88990000  0.58426000  1.0 -0.2110044506
N  N100  1  0.88830000  0.61010000  0.91574000  1.0 -0.2110044506
N  N101  1  0.38830000  0.88990000  0.91574000  1.0 -0.2110044506
N  N102  1  0.38830000  0.61010000  0.58426000  1.0 -0.2110044506
N  N103  1  0.11170000  0.11010000  0.41574000  1.0 -0.2110044506
N  N104  1  0.11170000  0.38990000  0.08426000  1.0 -0.2110044506
N  N105  1  0.00800000  0.52200000  0.00810000  1.0 -0.0888347391
N  N106  1  0.00800000  0.97800000  0.49190000  1.0 -0.0888347391
N  N107  1  0.49200000  0.47800000  0.50810000  1.0 -0.0888347391
N  N108  1  0.49200000  0.02200000  0.99190000  1.0 -0.0888347391
N  N109  1  0.99200000  0.47800000  0.99190000  1.0 -0.0888347391
N  N110  1  0.99200000  0.02200000  0.50810000  1.0 -0.0888347391
N  N111  1  0.50800000  0.52200000  0.49190000  1.0 -0.0888347391
N  N112  1  0.50800000  0.97800000  0.00810000  1.0 -0.0888347391
N  N113  1  0.98650000  0.00350000  0.09071000  1.0 -0.0795997202
N  N114  1  0.98650000  0.49650000  0.40929000  1.0 -0.0795997202
N  N115  1  0.51350000  0.99650000  0.59071000  1.0 -0.0795997202
N  N116  1  0.51350000  0.50350000  0.90929000  1.0 -0.0795997202
N  N117  1  0.01350000  0.99650000  0.90929000  1.0 -0.0795997202
N  N118  1  0.01350000  0.50350000  0.59071000  1.0 -0.0795997202
N  N119  1  0.48650000  0.00350000  0.40929000  1.0 -0.0795997202
N  N120  1  0.48650000  0.49650000  0.09071000  1.0 -0.0795997202
N  N121  1  0.98270000  0.97130000  0.11463000  1.0 -0.0614107208
N  N122  1  0.98270000  0.52870000  0.38537000  1.0 -0.0614107208
N  N123  1  0.51730000  0.02870000  0.61463000  1.0 -0.0614107208
N  N124  1  0.51730000  0.47130000  0.88537000  1.0 -0.0614107208
N  N125  1  0.01730000  0.02870000  0.88537000  1.0 -0.0614107208
N  N126  1  0.01730000  0.47130000  0.61463000  1.0 -0.0614107208
N  N127  1  0.48270000  0.97130000  0.38537000  1.0 -0.0614107208
N  N128  1  0.48270000  0.52870000  0.11463000  1.0 -0.0614107208
O  O1  1  0.41590000  0.78220000  0.87320000  1.0 -0.5305173126
O  O2  1  0.41590000  0.71780000  0.62680000  1.0 -0.5305173126
O  O3  1  0.08410000  0.21780000  0.37320000  1.0 -0.5305173126
O  O4  1  0.08410000  0.28220000  0.12680000  1.0 -0.5305173126
O  O5  1  0.58410000  0.21780000  0.12680000  1.0 -0.5305173126
O  O6  1  0.58410000  0.28220000  0.37320000  1.0 -0.5305173126
O  O7  1  0.91590000  0.78220000  0.62680000  1.0 -0.5305173126
O  O8  1  0.91590000  0.71780000  0.87320000  1.0 -0.5305173126
O  O9  1  0.44330000  0.77380000  0.17185000  1.0 -0.5305173126
O  O10  1  0.44330000  0.72620000  0.32815000  1.0 -0.5305173126
O  O11  1  0.05670000  0.22620000  0.67185000  1.0 -0.5305173126
O  O12  1  0.05670000  0.27380000  0.82815000  1.0 -0.5305173126
O  O13  1  0.55670000  0.22620000  0.82815000  1.0 -0.5305173126
O  O14  1  0.55670000  0.27380000  0.67185000  1.0 -0.5305173126
O  O15  1  0.94330000  0.77380000  0.32815000  1.0 -0.5305173126
O  O16  1  0.94330000  0.72620000  0.17185000  1.0 -0.5305173126
O  O17  1  0.31120000  0.61520000  0.06057000  1.0 -0.5171762829
O  O18  1  0.31120000  0.88480000  0.43943000  1.0 -0.5171762829
O  O19  1  0.18880000  0.38480000  0.56057000  1.0 -0.5171762829
O  O20  1  0.18880000  0.11520000  0.93943000  1.0 -0.5171762829
O  O21  1  0.68880000  0.38480000  0.93943000  1.0 -0.5171762829
O  O22  1  0.68880000  0.11520000  0.56057000  1.0 -0.5171762829
O  O23  1  0.81120000  0.61520000  0.43943000  1.0 -0.5171762829
O  O24  1  0.81120000  0.88480000  0.06057000  1.0 -0.5171762829
O  O25  1  0.20790000  0.62360000  0.11159000  1.0 -0.5553812933
O  O26  1  0.20790000  0.87640000  0.38841000  1.0 -0.5553812933
O  O27  1  0.29210000  0.37640000  0.61159000  1.0 -0.5553812933
O  O28  1  0.29210000  0.12360000  0.88841000  1.0 -0.5553812933
O  O29  1  0.79210000  0.37640000  0.88841000  1.0 -0.5553812933
O  O30  1  0.79210000  0.12360000  0.61159000  1.0 -0.5553812933
O  O31  1  0.70790000  0.62360000  0.38841000  1.0 -0.5553812933
O  O32  1  0.70790000  0.87640000  0.11159000  1.0 -0.5553812933
O  O33  1  0.26550000  0.70950000  0.16681000  1.0 -0.5171762829
O  O34  1  0.26550000  0.79050000  0.33319000  1.0 -0.5171762829
O  O35  1  0.23450000  0.29050000  0.66681000  1.0 -0.5171762829
O  O36  1  0.23450000  0.20950000  0.83319000  1.0 -0.5171762829
O  O37  1  0.73450000  0.29050000  0.83319000  1.0 -0.5171762829
O  O38  1  0.73450000  0.20950000  0.66681000  1.0 -0.5171762829
O  O39  1  0.76550000  0.70950000  0.33319000  1.0 -0.5171762829
O  O40  1  0.76550000  0.79050000  0.16681000  1.0 -0.5171762829
O  O41  1  0.31040000  0.61650000  0.98248000  1.0 -0.5113311935
O  O42  1  0.31040000  0.88350000  0.51752000  1.0 -0.5113311935
O  O43  1  0.18960000  0.38350000  0.48248000  1.0 -0.5113311935
O  O44  1  0.18960000  0.11650000  0.01752000  1.0 -0.5113311935
O  O45  1  0.68960000  0.38350000  0.01752000  1.0 -0.5113311935
O  O46  1  0.68960000  0.11650000  0.48248000  1.0 -0.5113311935
O  O47  1  0.81040000  0.61650000  0.51752000  1.0 -0.5113311935
O  O48  1  0.81040000  0.88350000  0.98248000  1.0 -0.5113311935
O  O49  1  0.24610000  0.71440000  0.87805000  1.0 -0.5113311935
O  O50  1  0.24610000  0.78560000  0.62195000  1.0 -0.5171762829
O  O51  1  0.25390000  0.28560000  0.37805000  1.0 -0.5113311935
O  O52  1  0.25390000  0.21440000  0.12195000  1.0 -0.5113311935
O  O53  1  0.75390000  0.28560000  0.12195000  1.0 -0.5113311935
O  O54  1  0.75390000  0.21440000  0.37805000  1.0 -0.5113311935
O  O55  1  0.74610000  0.71440000  0.62195000  1.0 -0.5171762829
O  O56  1  0.74610000  0.78560000  0.87805000  1.0 -0.5171762829
O  O57  1  0.21680000  0.62280000  0.93046000  1.0 -0.5405334931
O  O58  1  0.21680000  0.87720000  0.56954000  1.0 -0.5405334931
O  O59  1  0.28320000  0.37720000  0.43046000  1.0 -0.5405334931
O  O60  1  0.28320000  0.12280000  0.06954000  1.0 -0.5405334931
O  O61  1  0.78320000  0.37720000  0.06954000  1.0 -0.5405334931
O  O62  1  0.78320000  0.12280000  0.43046000  1.0 -0.5405334931
O  O63  1  0.71680000  0.62280000  0.56954000  1.0 -0.5405334931
O  O64  1  0.71680000  0.87720000  0.93046000  1.0 -0.5405334931
O  O65  1  0.22140000  0.71510000  0.02147000  1.0 -0.678125697
O  O66  1  0.22140000  0.78490000  0.47853000  1.0 -0.678125697
O  O67  1  0.27860000  0.28490000  0.52147000  1.0 -0.678125697
O  O68  1  0.27860000  0.21510000  0.97853000  1.0 -0.678125697
O  O69  1  0.77860000  0.28490000  0.97853000  1.0 -0.678125697
O  O70  1  0.77860000  0.21510000  0.52147000  1.0 -0.678125697
O  O71  1  0.72140000  0.71510000  0.47853000  1.0 -0.678125697
O  O72  1  0.72140000  0.78490000  0.02147000  1.0 -0.678125697
