# DDEC6 charges by PACMAN v1.1 (https://github.com/mtap-research/PACMAN-charge/)
data_REZVAU_ASR_pacman
_symmetry_space_group_name_H-M   'P 1'
_cell_length_a   11.46800000
_cell_length_b   11.34570000
_cell_length_c   20.20670000
_cell_angle_alpha   90.00000000
_cell_angle_beta   116.70900000
_cell_angle_gamma   90.00000000
_symmetry_Int_Tables_number   1
_chemical_formula_structural   CoH12C15SN3O4
_chemical_formula_sum   'Co4 H48 C60 S4 N12 O16'
_cell_volume   2348.61643727
_cell_formula_units_Z   4
loop_
 _symmetry_equiv_pos_site_id
 _symmetry_equiv_pos_as_xyz
  1  'x, y, z'
loop_
 _atom_site_type_symbol
 _atom_site_label
 _atom_site_symmetry_multiplicity
 _atom_site_fract_x
 _atom_site_fract_y
 _atom_site_fract_z
 _atom_site_occupancy
 _atom_site_charge
Co  Co1  1  0.00000000  0.50000000  0.00000000  1.0 0.8145190666
Co  Co2  1  0.00000000  0.50000000  0.50000000  1.0 0.8145190666
Co  Co3  1  0.00000000  0.24810000  0.25000000  1.0 0.7739387045
Co  Co4  1  0.00000000  0.75190000  0.75000000  1.0 0.7739387045
H  H1  1  0.12610000  0.55450000  0.16520000  1.0 0.0988519478
H  H2  1  0.87390000  0.55450000  0.33480000  1.0 0.0988519478
H  H3  1  0.87390000  0.44550000  0.83480000  1.0 0.0988519478
H  H4  1  0.12610000  0.44550000  0.66520000  1.0 0.0988519478
H  H5  1  0.82810000  0.65820000  0.15830000  1.0 0.1379371871
H  H6  1  0.17190000  0.65820000  0.34170000  1.0 0.1379371871
H  H7  1  0.17190000  0.34180000  0.84170000  1.0 0.1379371871
H  H8  1  0.82810000  0.34180000  0.65830000  1.0 0.1379371871
H  H9  1  0.83050000  0.45590000  0.16310000  1.0 0.1101102794
H  H10  1  0.16950000  0.45590000  0.33690000  1.0 0.1101102794
H  H11  1  0.16950000  0.54410000  0.83690000  1.0 0.1101102794
H  H12  1  0.83050000  0.54410000  0.66310000  1.0 0.1101102794
H  H13  1  0.32440000  0.56750000  0.26820000  1.0 0.1291140009
H  H14  1  0.67560000  0.56750000  0.23180000  1.0 0.1291140009
H  H15  1  0.67560000  0.43250000  0.73180000  1.0 0.1291140009
H  H16  1  0.32440000  0.43250000  0.76820000  1.0 0.1291140009
H  H17  1  0.70370000  0.21510000  0.14210000  1.0 0.1195384545
H  H18  1  0.29630000  0.21510000  0.35790000  1.0 0.1195384545
H  H19  1  0.29630000  0.78490000  0.85790000  1.0 0.1195384545
H  H20  1  0.70370000  0.78490000  0.64210000  1.0 0.1195384545
H  H21  1  0.49720000  0.48800000  0.14030000  1.0 0.1379371871
H  H22  1  0.50280000  0.48800000  0.35970000  1.0 0.1379371871
H  H23  1  0.50280000  0.51200000  0.85970000  1.0 0.1379371871
H  H24  1  0.49720000  0.51200000  0.64030000  1.0 0.1379371871
H  H25  1  0.50360000  0.19590000  0.14060000  1.0 0.1379371871
H  H26  1  0.49640000  0.19590000  0.35940000  1.0 0.1379371871
H  H27  1  0.49640000  0.80410000  0.85940000  1.0 0.1379371871
H  H28  1  0.50360000  0.80410000  0.64060000  1.0 0.1379371871
H  H29  1  0.29410000  0.47990000  0.04030000  1.0 0.1195384545
H  H30  1  0.70590000  0.47990000  0.45970000  1.0 0.1195384545
H  H31  1  0.70590000  0.52010000  0.95970000  1.0 0.1195384545
H  H32  1  0.29410000  0.52010000  0.54030000  1.0 0.1195384545
H  H33  1  0.67660000  0.23330000  0.35980000  1.0 0.1291140009
H  H34  1  0.32340000  0.23330000  0.14020000  1.0 0.1291140009
H  H35  1  0.32340000  0.76670000  0.64020000  1.0 0.1291140009
H  H36  1  0.67660000  0.76670000  0.85980000  1.0 0.1291140009
H  H37  1  0.96230000  0.83610000  0.14350000  1.0 0.1495724956
H  H38  1  0.03770000  0.83610000  0.35650000  1.0 0.1495724956
H  H39  1  0.03770000  0.16390000  0.85650000  1.0 0.1495724956
H  H40  1  0.96230000  0.16390000  0.64350000  1.0 0.1495724956
H  H41  1  0.87170000  0.25390000  0.35590000  1.0 0.1101102794
H  H42  1  0.12830000  0.25390000  0.14410000  1.0 0.1101102794
H  H43  1  0.12830000  0.74610000  0.64410000  1.0 0.1101102794
H  H44  1  0.87170000  0.74610000  0.85590000  1.0 0.1101102794
H  H45  1  0.96530000  0.03790000  0.14650000  1.0 0.1291140009
H  H46  1  0.03470000  0.03790000  0.35350000  1.0 0.1291140009
H  H47  1  0.03470000  0.96210000  0.85350000  1.0 0.1291140009
H  H48  1  0.96530000  0.96210000  0.64650000  1.0 0.1291140009
C  C1  1  0.00000000  0.81250000  0.25000000  1.0 0.0921391144
C  C2  1  0.00000000  0.18750000  0.75000000  1.0 0.0921391144
C  C3  1  0.20160000  0.54060000  0.16015000  1.0 0.0988519478
C  C4  1  0.79840000  0.54060000  0.33985000  1.0 0.0988519478
C  C5  1  0.79840000  0.45940000  0.83985000  1.0 0.0988519478
C  C6  1  0.20160000  0.45940000  0.66015000  1.0 0.0988519478
C  C7  1  0.89770000  0.61911000  0.19586000  1.0 -0.2065534254
C  C8  1  0.10230000  0.61911000  0.30414000  1.0 -0.2065534254
C  C9  1  0.10230000  0.38089000  0.80414000  1.0 -0.2065534254
C  C10  1  0.89770000  0.38089000  0.69586000  1.0 -0.2065534254
C  C11  1  0.43560000  0.52700000  0.21704000  1.0 0.1101102794
C  C12  1  0.56440000  0.52700000  0.28296000  1.0 0.1101102794
C  C13  1  0.56440000  0.47300000  0.78296000  1.0 0.1101102794
C  C14  1  0.43560000  0.47300000  0.71704000  1.0 0.1101102794
C  C15  1  0.56460000  0.21530000  0.24996000  1.0 0.0988519478
C  C16  1  0.43540000  0.21530000  0.25004000  1.0 0.0988519478
C  C17  1  0.43540000  0.78470000  0.75004000  1.0 0.0988519478
C  C18  1  0.56460000  0.78470000  0.74996000  1.0 0.0988519478
C  C19  1  0.90070000  0.49733000  0.19860000  1.0 0.0921391144
C  C20  1  0.09930000  0.49733000  0.30140000  1.0 0.0921391144
C  C21  1  0.09930000  0.50267000  0.80140000  1.0 0.0921391144
C  C22  1  0.90070000  0.50267000  0.69860000  1.0 0.0921391144
C  C23  1  0.32100000  0.54820000  0.22262000  1.0 -0.1963223962
C  C24  1  0.67900000  0.54820000  0.27738000  1.0 -0.1963223962
C  C25  1  0.67900000  0.45180000  0.77738000  1.0 -0.1963223962
C  C26  1  0.32100000  0.45180000  0.72262000  1.0 -0.1963223962
C  C27  1  0.69860000  0.21970000  0.18664000  1.0 0.0921391144
C  C28  1  0.30140000  0.21970000  0.31336000  1.0 0.0921391144
C  C29  1  0.30140000  0.78030000  0.81336000  1.0 0.0921391144
C  C30  1  0.69860000  0.78030000  0.68664000  1.0 0.0921391144
C  C31  1  0.42320000  0.50160000  0.14695000  1.0 -0.1894865332
C  C32  1  0.57680000  0.50160000  0.35305000  1.0 -0.1894865332
C  C33  1  0.57680000  0.49840000  0.85305000  1.0 -0.1894865332
C  C34  1  0.42320000  0.49840000  0.64695000  1.0 -0.1894865332
C  C35  1  0.57720000  0.20840000  0.18541000  1.0 -0.1963223962
C  C36  1  0.42280000  0.20840000  0.31459000  1.0 -0.1963223962
C  C37  1  0.42280000  0.79160000  0.81459000  1.0 -0.1963223962
C  C38  1  0.57720000  0.79160000  0.68541000  1.0 -0.1963223962
C  C39  1  0.30020000  0.49650000  0.08679000  1.0 0.0988519478
C  C40  1  0.69980000  0.49650000  0.41321000  1.0 0.0988519478
C  C41  1  0.69980000  0.50350000  0.91321000  1.0 0.0988519478
C  C42  1  0.30020000  0.50350000  0.58679000  1.0 0.0988519478
C  C43  1  0.67890000  0.23070000  0.31441000  1.0 -0.1894865332
C  C44  1  0.32110000  0.23070000  0.18559000  1.0 -0.1894865332
C  C45  1  0.32110000  0.76930000  0.68559000  1.0 -0.1894865332
C  C46  1  0.67890000  0.76930000  0.81441000  1.0 -0.1894865332
C  C47  1  0.97800000  0.87540000  0.18711000  1.0 -0.1894865332
C  C48  1  0.02200000  0.87540000  0.31289000  1.0 -0.1894865332
C  C49  1  0.02200000  0.12460000  0.81289000  1.0 -0.1894865332
C  C50  1  0.97800000  0.12460000  0.68711000  1.0 -0.1894865332
C  C51  1  0.79670000  0.24210000  0.31167000  1.0 0.0988519478
C  C52  1  0.20330000  0.24210000  0.18833000  1.0 0.0988519478
C  C53  1  0.20330000  0.75790000  0.68833000  1.0 0.0988519478
C  C54  1  0.79670000  0.75790000  0.81167000  1.0 0.0988519478
C  C55  1  0.97940000  0.99690000  0.18930000  1.0 0.0921391144
C  C56  1  0.02060000  0.99690000  0.31070000  1.0 0.0921391144
C  C57  1  0.02060000  0.00310000  0.81070000  1.0 0.0921391144
C  C58  1  0.97940000  0.00310000  0.68930000  1.0 0.0921391144
C  C59  1  0.00000000  0.68230000  0.25000000  1.0 0.0988519478
C  C60  1  0.00000000  0.31770000  0.75000000  1.0 0.0988519478
S  S1  1  0.86100000  0.29810000  0.06025000  1.0 1.3972049246
S  S2  1  0.13900000  0.29810000  0.43975000  1.0 1.3972049246
S  S3  1  0.13900000  0.70190000  0.93975000  1.0 1.3972049246
S  S4  1  0.86100000  0.70190000  0.56025000  1.0 1.3972049246
N  N1  1  0.80839000  0.23697000  0.24892000  1.0 -0.2325119076
N  N2  1  0.19161000  0.23697000  0.25108000  1.0 -0.2325119076
N  N3  1  0.19161000  0.76303000  0.75108000  1.0 -0.2325119076
N  N4  1  0.80839000  0.76303000  0.74892000  1.0 -0.2325119076
N  N5  1  0.18982000  0.51429000  0.09285000  1.0 -0.2325119076
N  N6  1  0.81018000  0.51429000  0.40715000  1.0 -0.2325119076
N  N7  1  0.81018000  0.48571000  0.90715000  1.0 -0.2325119076
N  N8  1  0.18982000  0.48571000  0.59285000  1.0 -0.2325119076
N  N9  1  0.00000000  0.43640000  0.25000000  1.0 -0.2408393359
N  N10  1  0.00000000  0.56360000  0.75000000  1.0 -0.2408393359
N  N11  1  0.00000000  0.05850000  0.25000000  1.0 -0.2215575238
N  N12  1  0.00000000  0.94150000  0.75000000  1.0 -0.2215575238
O  O1  1  0.93291000  0.40967000  0.06669000  1.0 -0.7001669517
O  O2  1  0.06709000  0.40967000  0.43331000  1.0 -0.7001669517
O  O3  1  0.06709000  0.59033000  0.93331000  1.0 -0.7001669517
O  O4  1  0.93291000  0.59033000  0.56669000  1.0 -0.7001669517
O  O5  1  0.90916000  0.24555000  0.13472000  1.0 -0.686437737
O  O6  1  0.09084000  0.24555000  0.36528000  1.0 -0.686437737
O  O7  1  0.09084000  0.75445000  0.86528000  1.0 -0.686437737
O  O8  1  0.90916000  0.75445000  0.63472000  1.0 -0.686437737
O  O9  1  0.72280000  0.32170000  0.03209000  1.0 -0.6606122961
O  O10  1  0.27720000  0.32170000  0.46791000  1.0 -0.6606122961
O  O11  1  0.27720000  0.67830000  0.96791000  1.0 -0.6606122961
O  O12  1  0.72280000  0.67830000  0.53209000  1.0 -0.6606122961
O  O13  1  0.88900000  0.21610000  0.01333000  1.0 -0.6666431835
O  O14  1  0.11100000  0.21610000  0.48667000  1.0 -0.6666431835
O  O15  1  0.11100000  0.78390000  0.98667000  1.0 -0.6666431835
O  O16  1  0.88900000  0.78390000  0.51333000  1.0 -0.6666431835
