# DDEC6 charges by PACMAN v1.1 (https://github.com/mtap-research/PACMAN-charge/)
data_REZXEA_FSR_pacman
_symmetry_space_group_name_H-M   'P 1'
_cell_length_a   15.62610000
_cell_length_b   15.62610000
_cell_length_c   15.96040000
_cell_angle_alpha   90.00000000
_cell_angle_beta   90.00000000
_cell_angle_gamma   120.00000000
_symmetry_Int_Tables_number   1
_chemical_formula_structural   Cr3(C15O8)2
_chemical_formula_sum   'Cr6 C60 O32'
_cell_volume   3375.01417881
_cell_formula_units_Z   2
loop_
 _symmetry_equiv_pos_site_id
 _symmetry_equiv_pos_as_xyz
  1  'x, y, z'
loop_
 _atom_site_type_symbol
 _atom_site_label
 _atom_site_symmetry_multiplicity
 _atom_site_fract_x
 _atom_site_fract_y
 _atom_site_fract_z
 _atom_site_occupancy
 _atom_site_charge
Cr  Cr1  1  0.73520000  0.47040000  0.75000000  1.0 1.3368814731
Cr  Cr2  1  0.26480000  0.73520000  0.25000000  1.0 1.3368814731
Cr  Cr3  1  0.52960000  0.26480000  0.75000000  1.0 1.3368814731
Cr  Cr4  1  0.26480000  0.52960000  0.25000000  1.0 1.3368814731
Cr  Cr5  1  0.73520000  0.26480000  0.75000000  1.0 1.3368814731
Cr  Cr6  1  0.47040000  0.73520000  0.25000000  1.0 1.3368814731
C  C1  1  0.57570000  0.42430000  0.87860000  1.0 0.6359738255
C  C2  1  0.15140000  0.57570000  0.37860000  1.0 0.6359738255
C  C3  1  0.57570000  0.42430000  0.62140000  1.0 0.6359738255
C  C4  1  0.57570000  0.15140000  0.87860000  1.0 0.6359738255
C  C5  1  0.15140000  0.57570000  0.12140000  1.0 0.6359738255
C  C6  1  0.42430000  0.57570000  0.37860000  1.0 0.6359738255
C  C7  1  0.57570000  0.15140000  0.62140000  1.0 0.6359738255
C  C8  1  0.84860000  0.42430000  0.87860000  1.0 0.6359738255
C  C9  1  0.42430000  0.57570000  0.12140000  1.0 0.6359738255
C  C10  1  0.42430000  0.84860000  0.37860000  1.0 0.6359738255
C  C11  1  0.84860000  0.42430000  0.62140000  1.0 0.6359738255
C  C12  1  0.42430000  0.84860000  0.12140000  1.0 0.6359738255
C  C13  1  0.54250000  0.45750000  0.94830000  1.0 -0.1147303649
C  C14  1  0.08500000  0.54250000  0.44830000  1.0 -0.1147303649
C  C15  1  0.54250000  0.45750000  0.55170000  1.0 -0.1147303649
C  C16  1  0.54250000  0.08500000  0.94830000  1.0 -0.1147303649
C  C17  1  0.08500000  0.54250000  0.05170000  1.0 -0.1147303649
C  C18  1  0.45750000  0.54250000  0.44830000  1.0 -0.1147303649
C  C19  1  0.54250000  0.08500000  0.55170000  1.0 -0.1147303649
C  C20  1  0.91500000  0.45750000  0.94830000  1.0 -0.1147303649
C  C21  1  0.45750000  0.54250000  0.05170000  1.0 -0.1147303649
C  C22  1  0.45750000  0.91500000  0.44830000  1.0 -0.1147303649
C  C23  1  0.91500000  0.45750000  0.55170000  1.0 -0.1147303649
C  C24  1  0.45750000  0.91500000  0.05170000  1.0 -0.1147303649
C  C25  1  0.44140000  0.40750000  0.96520000  1.0 0.0451261541
C  C26  1  0.03390000  0.44140000  0.46520000  1.0 0.0451261541
C  C27  1  0.59250000  0.55860000  0.53480000  1.0 0.0451261541
C  C28  1  0.59250000  0.03390000  0.96520000  1.0 0.0451261541
C  C29  1  0.03390000  0.59250000  0.03480000  1.0 0.0451261541
C  C30  1  0.55860000  0.59250000  0.46520000  1.0 0.0451261541
C  C31  1  0.44140000  0.03390000  0.53480000  1.0 0.0451261541
C  C32  1  0.96610000  0.55860000  0.96520000  1.0 0.0451261541
C  C33  1  0.40750000  0.44140000  0.03480000  1.0 0.0451261541
C  C34  1  0.40750000  0.96610000  0.46520000  1.0 0.0444493139
C  C35  1  0.96610000  0.40750000  0.53480000  1.0 0.0451261541
C  C36  1  0.55860000  0.96610000  0.03480000  1.0 0.0444493139
C  C37  1  0.55860000  0.59250000  0.03480000  1.0 0.0444493139
C  C38  1  0.96610000  0.55860000  0.53480000  1.0 0.0451261541
C  C39  1  0.40750000  0.44140000  0.46520000  1.0 0.0451261541
C  C40  1  0.40750000  0.96610000  0.03480000  1.0 0.0444493139
C  C41  1  0.96610000  0.40750000  0.96520000  1.0 0.0451261541
C  C42  1  0.44140000  0.40750000  0.53480000  1.0 0.0451261541
C  C43  1  0.55860000  0.96610000  0.46520000  1.0 0.0444493139
C  C44  1  0.03390000  0.44140000  0.03480000  1.0 0.0451261541
C  C45  1  0.59250000  0.55860000  0.96520000  1.0 0.0451261541
C  C46  1  0.59250000  0.03390000  0.53480000  1.0 0.0451261541
C  C47  1  0.03390000  0.59250000  0.46520000  1.0 0.0451261541
C  C48  1  0.44140000  0.03390000  0.96520000  1.0 0.0451261541
C  C49  1  0.84205000  0.68410000  0.81820000  1.0 0.1443510112
C  C50  1  0.15795000  0.84205000  0.31820000  1.0 0.1443510112
C  C51  1  0.31590000  0.15795000  0.68180000  1.0 0.1443510112
C  C52  1  0.31590000  0.15795000  0.81820000  1.0 0.1443510112
C  C53  1  0.15795000  0.31590000  0.18180000  1.0 0.1443510112
C  C54  1  0.15795000  0.31590000  0.31820000  1.0 0.1443510112
C  C55  1  0.84205000  0.15795000  0.68180000  1.0 0.1443510112
C  C56  1  0.84205000  0.15795000  0.81820000  1.0 0.1443510112
C  C57  1  0.68410000  0.84205000  0.18180000  1.0 0.1443510112
C  C58  1  0.68410000  0.84205000  0.31820000  1.0 0.1443510112
C  C59  1  0.84205000  0.68410000  0.68180000  1.0 0.1443510112
C  C60  1  0.15795000  0.84205000  0.18180000  1.0 0.1443510112
O  O1  1  0.66666667  0.33333333  0.75000000  1.0 -0.9565429245
O  O2  1  0.33333333  0.66666667  0.25000000  1.0 -0.9565429245
O  O3  1  0.65530000  0.48450000  0.84140000  1.0 -0.5524099723
O  O4  1  0.17080000  0.65530000  0.34140000  1.0 -0.5524099723
O  O5  1  0.51550000  0.34470000  0.65860000  1.0 -0.5524099723
O  O6  1  0.51550000  0.17080000  0.84140000  1.0 -0.5524099723
O  O7  1  0.17080000  0.51550000  0.15860000  1.0 -0.5524099723
O  O8  1  0.34470000  0.51550000  0.34140000  1.0 -0.5524099723
O  O9  1  0.65530000  0.17080000  0.65860000  1.0 -0.5524099723
O  O10  1  0.82920000  0.34470000  0.84140000  1.0 -0.5524099723
O  O11  1  0.48450000  0.65530000  0.15860000  1.0 -0.5524099723
O  O12  1  0.48450000  0.82920000  0.34140000  1.0 -0.5524099723
O  O13  1  0.82920000  0.48450000  0.65860000  1.0 -0.5524099723
O  O14  1  0.34470000  0.82920000  0.15860000  1.0 -0.5524099723
O  O15  1  0.34470000  0.51550000  0.15860000  1.0 -0.5524099723
O  O16  1  0.82920000  0.34470000  0.65860000  1.0 -0.5524099723
O  O17  1  0.48450000  0.65530000  0.34140000  1.0 -0.5524099723
O  O18  1  0.48450000  0.82920000  0.15860000  1.0 -0.5524099723
O  O19  1  0.82920000  0.48450000  0.84140000  1.0 -0.5524099723
O  O20  1  0.65530000  0.48450000  0.65860000  1.0 -0.5524099723
O  O21  1  0.34470000  0.82920000  0.34140000  1.0 -0.5524099723
O  O22  1  0.17080000  0.65530000  0.15860000  1.0 -0.5524099723
O  O23  1  0.51550000  0.34470000  0.84140000  1.0 -0.5524099723
O  O24  1  0.51550000  0.17080000  0.65860000  1.0 -0.5524099723
O  O25  1  0.17080000  0.51550000  0.34140000  1.0 -0.5524099723
O  O26  1  0.65530000  0.17080000  0.84140000  1.0 -0.5524099723
O  O27  1  0.81045000  0.62090000  0.75000000  1.0 -0.3195234691
O  O28  1  0.18955000  0.81045000  0.25000000  1.0 -0.3195234691
O  O29  1  0.37910000  0.18955000  0.75000000  1.0 -0.3195234691
O  O30  1  0.18955000  0.37910000  0.25000000  1.0 -0.3195234691
O  O31  1  0.81045000  0.18955000  0.75000000  1.0 -0.3195234691
O  O32  1  0.62090000  0.81045000  0.25000000  1.0 -0.3195234691
