# DDEC6 charges by PACMAN v1.1 (https://github.com/mtap-research/PACMAN-charge/)
data_REZXUQ_FSR_pacman
_symmetry_space_group_name_H-M   'P 1'
_cell_length_a   20.04050000
_cell_length_b   20.04050000
_cell_length_c   22.91080000
_cell_angle_alpha   90.00000000
_cell_angle_beta   90.00000000
_cell_angle_gamma   120.00000000
_symmetry_Int_Tables_number   1
_chemical_formula_structural   Cr3(C21O8)2
_chemical_formula_sum   'Cr6 C84 O32'
_cell_volume   7968.70943557
_cell_formula_units_Z   2
loop_
 _symmetry_equiv_pos_site_id
 _symmetry_equiv_pos_as_xyz
  1  'x, y, z'
loop_
 _atom_site_type_symbol
 _atom_site_label
 _atom_site_symmetry_multiplicity
 _atom_site_fract_x
 _atom_site_fract_y
 _atom_site_fract_z
 _atom_site_occupancy
 _atom_site_charge
Cr  Cr1  1  0.72710000  0.28000000  0.25000000  1.0 1.5599776133
Cr  Cr2  1  0.55290000  0.27290000  0.25000000  1.0 1.5599776133
Cr  Cr3  1  0.28000000  0.72710000  0.75000000  1.0 1.5599776133
Cr  Cr4  1  0.72000000  0.44710000  0.25000000  1.0 1.5599776133
Cr  Cr5  1  0.44710000  0.72000000  0.75000000  1.0 1.5599776133
Cr  Cr6  1  0.27290000  0.55290000  0.75000000  1.0 1.5599776133
C  C1  1  0.79470000  0.40500000  0.15920000  1.0 0.6331186467
C  C2  1  0.61030000  0.20530000  0.34080000  1.0 0.6331186467
C  C3  1  0.40500000  0.79470000  0.65920000  1.0 0.6331186467
C  C4  1  0.59500000  0.38970000  0.15920000  1.0 0.6331186467
C  C5  1  0.38970000  0.59500000  0.84080000  1.0 0.6331186467
C  C6  1  0.79470000  0.40500000  0.34080000  1.0 0.6331186467
C  C7  1  0.20530000  0.61030000  0.65920000  1.0 0.6331186467
C  C8  1  0.61030000  0.20530000  0.15920000  1.0 0.6331186467
C  C9  1  0.40500000  0.79470000  0.84080000  1.0 0.6331186467
C  C10  1  0.59500000  0.38970000  0.34080000  1.0 0.6331186467
C  C11  1  0.38970000  0.59500000  0.65920000  1.0 0.6331186467
C  C12  1  0.20530000  0.61030000  0.84080000  1.0 0.6331186467
C  C13  1  0.85970000  0.43880000  0.11470000  1.0 -0.057993581
C  C14  1  0.57910000  0.14030000  0.38530000  1.0 -0.057993581
C  C15  1  0.43880000  0.85970000  0.61470000  1.0 -0.057993581
C  C16  1  0.56120000  0.42090000  0.11470000  1.0 -0.057993581
C  C17  1  0.42090000  0.56120000  0.88530000  1.0 -0.057993581
C  C18  1  0.85970000  0.43880000  0.38530000  1.0 -0.057993581
C  C19  1  0.14030000  0.57910000  0.61470000  1.0 -0.057993581
C  C20  1  0.57910000  0.14030000  0.11470000  1.0 -0.057993581
C  C21  1  0.43880000  0.85970000  0.88530000  1.0 -0.057993581
C  C22  1  0.56120000  0.42090000  0.38530000  1.0 -0.057993581
C  C23  1  0.42090000  0.56120000  0.61470000  1.0 -0.057993581
C  C24  1  0.14030000  0.57910000  0.88530000  1.0 -0.057993581
C  C25  1  0.89100000  0.51430000  0.09570000  1.0 0.0345122679
C  C26  1  0.62330000  0.10900000  0.40430000  1.0 0.0345122679
C  C27  1  0.51430000  0.89100000  0.59570000  1.0 0.0345122679
C  C28  1  0.48570000  0.37670000  0.09570000  1.0 0.0345122679
C  C29  1  0.37670000  0.48570000  0.90430000  1.0 0.0345122679
C  C30  1  0.89100000  0.51430000  0.40430000  1.0 0.0345122679
C  C31  1  0.10900000  0.62330000  0.59570000  1.0 0.0345122679
C  C32  1  0.62330000  0.10900000  0.09570000  1.0 0.0345122679
C  C33  1  0.51430000  0.89100000  0.90430000  1.0 0.0345122679
C  C34  1  0.48570000  0.37670000  0.40430000  1.0 0.0345122679
C  C35  1  0.37670000  0.48570000  0.59570000  1.0 0.0345122679
C  C36  1  0.10900000  0.62330000  0.90430000  1.0 0.0345122679
C  C37  1  0.94770000  0.54340000  0.04940000  1.0 -0.0108888796
C  C38  1  0.59570000  0.05230000  0.45060000  1.0 -0.0108888796
C  C39  1  0.54340000  0.94770000  0.54940000  1.0 -0.0108888796
C  C40  1  0.45660000  0.40430000  0.04940000  1.0 -0.0108888796
C  C41  1  0.40430000  0.45660000  0.95060000  1.0 -0.0108888796
C  C42  1  0.94770000  0.54340000  0.45060000  1.0 -0.0108888796
C  C43  1  0.05230000  0.59570000  0.54940000  1.0 -0.0108888796
C  C44  1  0.59570000  0.05230000  0.04940000  1.0 -0.0108888796
C  C45  1  0.54340000  0.94770000  0.95060000  1.0 -0.0108888796
C  C46  1  0.45660000  0.40430000  0.45060000  1.0 -0.0108888796
C  C47  1  0.40430000  0.45660000  0.54940000  1.0 -0.0108888796
C  C48  1  0.05230000  0.59570000  0.95060000  1.0 -0.0108888796
C  C49  1  0.97180000  0.49650000  0.02390000  1.0 0.0815051619
C  C50  1  0.52470000  0.02820000  0.47610000  1.0 0.0815051619
C  C51  1  0.49650000  0.97180000  0.52390000  1.0 0.0815051619
C  C52  1  0.50350000  0.47530000  0.02390000  1.0 0.0815051619
C  C53  1  0.47530000  0.50350000  0.97610000  1.0 0.0815051619
C  C54  1  0.97180000  0.49650000  0.47610000  1.0 0.0815051619
C  C55  1  0.02820000  0.52470000  0.52390000  1.0 0.0815051619
C  C56  1  0.52470000  0.02820000  0.02390000  1.0 0.0815051619
C  C57  1  0.49650000  0.97180000  0.97610000  1.0 0.0815051619
C  C58  1  0.50350000  0.47530000  0.47610000  1.0 0.0815051619
C  C59  1  0.47530000  0.50350000  0.52390000  1.0 0.0815051619
C  C60  1  0.02820000  0.52470000  0.97610000  1.0 0.0815051619
C  C61  1  0.93630000  0.41920000  0.04090000  1.0 -0.0163814931
C  C62  1  0.48290000  0.06370000  0.45910000  1.0 -0.0163814931
C  C63  1  0.41920000  0.93630000  0.54090000  1.0 -0.0163814931
C  C64  1  0.58080000  0.51710000  0.04090000  1.0 -0.0163814931
C  C65  1  0.51710000  0.58080000  0.95910000  1.0 -0.0163814931
C  C66  1  0.93630000  0.41920000  0.45910000  1.0 -0.0163814931
C  C67  1  0.06370000  0.48290000  0.54090000  1.0 -0.0163814931
C  C68  1  0.48290000  0.06370000  0.04090000  1.0 -0.0163814931
C  C69  1  0.41920000  0.93630000  0.95910000  1.0 -0.0163814931
C  C70  1  0.58080000  0.51710000  0.45910000  1.0 -0.0163814931
C  C71  1  0.51710000  0.58080000  0.54090000  1.0 -0.0163814931
C  C72  1  0.06370000  0.48290000  0.95910000  1.0 -0.0163814931
C  C73  1  0.87270000  0.38880000  0.08070000  1.0 0.0217949765
C  C74  1  0.51610000  0.12730000  0.41930000  1.0 0.0217949765
C  C75  1  0.38880000  0.87270000  0.58070000  1.0 0.0217949765
C  C76  1  0.61120000  0.48390000  0.08070000  1.0 0.0217949765
C  C77  1  0.48390000  0.61120000  0.91930000  1.0 0.0217949765
C  C78  1  0.87270000  0.38880000  0.41930000  1.0 0.0217949765
C  C79  1  0.12730000  0.51610000  0.58070000  1.0 0.0217949765
C  C80  1  0.51610000  0.12730000  0.08070000  1.0 0.0217949765
C  C81  1  0.38880000  0.87270000  0.91930000  1.0 0.0217949765
C  C82  1  0.61120000  0.48390000  0.41930000  1.0 0.0217949765
C  C83  1  0.48390000  0.61120000  0.58070000  1.0 0.0217949765
C  C84  1  0.12730000  0.51610000  0.91930000  1.0 0.0217949765
O  O1  1  0.66666667  0.33333333  0.25000000  1.0 -1.1360279696
O  O2  1  0.33333333  0.66666667  0.75000000  1.0 -1.1360279696
O  O3  1  0.78810000  0.34750000  0.18700000  1.0 -0.4905321574
O  O4  1  0.55940000  0.21190000  0.31300000  1.0 -0.4905321574
O  O5  1  0.34750000  0.78810000  0.68700000  1.0 -0.4905321574
O  O6  1  0.65250000  0.44060000  0.18700000  1.0 -0.4905321574
O  O7  1  0.44060000  0.65250000  0.81300000  1.0 -0.4905321574
O  O8  1  0.78810000  0.34750000  0.31300000  1.0 -0.4905321574
O  O9  1  0.21190000  0.55940000  0.68700000  1.0 -0.4905321574
O  O10  1  0.55940000  0.21190000  0.18700000  1.0 -0.4905321574
O  O11  1  0.34750000  0.78810000  0.81300000  1.0 -0.4905321574
O  O12  1  0.65250000  0.44060000  0.31300000  1.0 -0.4905321574
O  O13  1  0.44060000  0.65250000  0.68700000  1.0 -0.4905321574
O  O14  1  0.21190000  0.55940000  0.81300000  1.0 -0.4905321574
O  O15  1  0.78920000  0.23070000  0.25000000  1.0 -0.6511902488
O  O16  1  0.44150000  0.21080000  0.25000000  1.0 -0.6511902488
O  O17  1  0.23070000  0.78920000  0.75000000  1.0 -0.6511902488
O  O18  1  0.76930000  0.55850000  0.25000000  1.0 -0.6511902488
O  O19  1  0.55850000  0.76930000  0.75000000  1.0 -0.6511902488
O  O20  1  0.21080000  0.44150000  0.75000000  1.0 -0.6511902488
O  O21  1  0.78570000  0.45250000  0.18790000  1.0 -0.4601906291
O  O22  1  0.66680000  0.21430000  0.31210000  1.0 -0.4601906291
O  O23  1  0.45250000  0.78570000  0.68790000  1.0 -0.4601906291
O  O24  1  0.54750000  0.33320000  0.18790000  1.0 -0.4601906291
O  O25  1  0.33320000  0.54750000  0.81210000  1.0 -0.4601906291
O  O26  1  0.78570000  0.45250000  0.31210000  1.0 -0.4601906291
O  O27  1  0.21430000  0.66680000  0.68790000  1.0 -0.4601906291
O  O28  1  0.66680000  0.21430000  0.18790000  1.0 -0.4601906291
O  O29  1  0.45250000  0.78570000  0.81210000  1.0 -0.4601906291
O  O30  1  0.54750000  0.33320000  0.31210000  1.0 -0.4601906291
O  O31  1  0.33320000  0.54750000  0.68790000  1.0 -0.4601906291
O  O32  1  0.21430000  0.66680000  0.81210000  1.0 -0.4601906291
