# DDEC6 charges by PACMAN v1.1 (https://github.com/mtap-research/PACMAN-charge/)
data_RICHIV_FSR_pacman
_symmetry_space_group_name_H-M   'P 1'
_cell_length_a   9.87850000
_cell_length_b   11.19860000
_cell_length_c   14.74560000
_cell_angle_alpha   93.91900000
_cell_angle_beta   97.40900000
_cell_angle_gamma   104.51700000
_symmetry_Int_Tables_number   1
_chemical_formula_structural   LaH15C12O7
_chemical_formula_sum   'La4 H60 C48 O28'
_cell_volume   1557.33878438
_cell_formula_units_Z   4
loop_
 _symmetry_equiv_pos_site_id
 _symmetry_equiv_pos_as_xyz
  1  'x, y, z'
loop_
 _atom_site_type_symbol
 _atom_site_label
 _atom_site_symmetry_multiplicity
 _atom_site_fract_x
 _atom_site_fract_y
 _atom_site_fract_z
 _atom_site_occupancy
 _atom_site_charge
La  La1  1  0.61803000  0.47520000  0.11755000  1.0 1.8897548467
La  La2  1  0.38197000  0.52480000  0.88245000  1.0 1.8897548467
La  La3  1  0.82418000  0.42153000  0.38526000  1.0 1.8270024807
La  La4  1  0.17582000  0.57847000  0.61474000  1.0 1.8270024807
H  H1  1  0.86400000  0.11030000  0.19280000  1.0 0.1099349744
H  H2  1  0.13600000  0.88970000  0.80720000  1.0 0.1099349744
H  H3  1  0.58790000  0.09430000  0.12000000  1.0 0.1099349744
H  H4  1  0.41210000  0.90570000  0.88000000  1.0 0.1099349744
H  H5  1  0.64600000  0.07710000  0.22080000  1.0 0.1195402166
H  H6  1  0.35400000  0.92290000  0.77920000  1.0 0.1195402166
H  H7  1  0.94990000  0.13780000  0.06760000  1.0 0.1099349744
H  H8  1  0.05010000  0.86220000  0.93240000  1.0 0.1099349744
H  H9  1  0.80350000  0.13680000  0.01170000  1.0 0.1099349744
H  H10  1  0.19650000  0.86320000  0.98830000  1.0 0.1099349744
H  H11  1  0.83230000  0.94680000  0.97400000  1.0 0.1099349744
H  H12  1  0.16770000  0.05320000  0.02600000  1.0 0.1099349744
H  H13  1  0.88620000  0.93140000  0.07590000  1.0 0.1195402166
H  H14  1  0.11380000  0.06860000  0.92410000  1.0 0.1195402166
H  H15  1  0.66710000  0.88720000  0.18150000  1.0 0.1195402166
H  H16  1  0.33290000  0.11280000  0.81850000  1.0 0.1195402166
H  H17  1  0.52480000  0.88870000  0.12120000  1.0 0.1099349744
H  H18  1  0.47520000  0.11130000  0.87880000  1.0 0.1099349744
H  H19  1  0.62470000  0.92250000  0.99850000  1.0 0.1195402166
H  H20  1  0.37530000  0.07750000  0.00150000  1.0 0.1195402166
H  H21  1  0.94530000  0.76750000  0.19110000  1.0 0.1195402166
H  H22  1  0.05470000  0.23250000  0.80890000  1.0 0.1195402166
H  H23  1  0.15890000  0.82840000  0.29970000  1.0 0.1099349744
H  H24  1  0.84110000  0.17160000  0.70030000  1.0 0.1099349744
H  H25  1  0.17300000  0.86660000  0.20040000  1.0 0.089087829
H  H26  1  0.82700000  0.13340000  0.79960000  1.0 0.089087829
H  H27  1  0.91350000  0.58430000  0.08850000  1.0 0.0817758441
H  H28  1  0.08650000  0.41570000  0.91150000  1.0 0.0817758441
H  H29  1  0.01800000  0.70200000  0.06130000  1.0 0.1006538192
H  H30  1  0.98200000  0.29800000  0.93870000  1.0 0.1006538192
H  H31  1  0.11480000  0.53220000  0.04810000  1.0 0.1099349744
H  H32  1  0.88520000  0.46780000  0.95190000  1.0 0.1099349744
H  H33  1  0.10460000  0.51240000  0.15170000  1.0 0.1195402166
H  H34  1  0.89540000  0.48760000  0.84830000  1.0 0.1195402166
H  H35  1  0.36520000  0.79220000  0.24770000  1.0 0.1006538192
H  H36  1  0.63480000  0.20780000  0.75230000  1.0 0.1006538192
H  H37  1  0.26840000  0.67170000  0.27690000  1.0 0.1195402166
H  H38  1  0.73160000  0.32830000  0.72310000  1.0 0.1195402166
H  H39  1  0.27650000  0.72790000  0.09360000  1.0 0.1099349744
H  H40  1  0.72350000  0.27210000  0.90640000  1.0 0.1099349744
H  H41  1  0.09180000  0.23750000  0.36110000  1.0 0.1099349744
H  H42  1  0.90820000  0.76250000  0.63890000  1.0 0.1099349744
H  H43  1  0.23050000  0.14270000  0.45560000  1.0 0.1006538192
H  H44  1  0.76950000  0.85730000  0.54440000  1.0 0.1006538192
H  H45  1  0.36680000  0.24800000  0.44950000  1.0 0.1006538192
H  H46  1  0.63320000  0.75200000  0.55050000  1.0 0.1006538192
H  H47  1  0.18730000  0.42530000  0.30270000  1.0 0.1195402166
H  H48  1  0.81270000  0.57470000  0.69730000  1.0 0.1195402166
H  H49  1  0.33970000  0.42900000  0.35100000  1.0 0.1195402166
H  H50  1  0.66030000  0.57100000  0.64900000  1.0 0.1195402166
H  H51  1  0.31790000  0.35820000  0.19660000  1.0 0.1006538192
H  H52  1  0.68210000  0.64180000  0.80340000  1.0 0.1006538192
H  H53  1  0.18260000  0.25270000  0.20450000  1.0 0.1006538192
H  H54  1  0.81740000  0.74730000  0.79550000  1.0 0.1006538192
H  H55  1  0.21170000  0.07300000  0.30100000  1.0 0.089087829
H  H56  1  0.78830000  0.92700000  0.69900000  1.0 0.089087829
H  H57  1  0.36370000  0.07660000  0.34990000  1.0 0.1006538192
H  H58  1  0.63630000  0.92340000  0.65010000  1.0 0.1006538192
H  H59  1  0.36640000  0.16250000  0.20690000  1.0 0.1099349744
H  H60  1  0.63360000  0.83750000  0.79310000  1.0 0.1099349744
C  C1  1  0.81870000  0.27060000  0.17110000  1.0 0.6134902984
C  C2  1  0.18130000  0.72940000  0.82890000  1.0 0.6134902984
C  C3  1  0.80090000  0.13400000  0.14450000  1.0 -0.1196901776
C  C4  1  0.19910000  0.86600000  0.85550000  1.0 -0.1196901776
C  C5  1  0.65720000  0.06280000  0.15690000  1.0 -0.1911285495
C  C6  1  0.34280000  0.93720000  0.84310000  1.0 -0.1911285495
C  C7  1  0.84870000  0.10150000  0.06160000  1.0 -0.1911285495
C  C8  1  0.15130000  0.89850000  0.93840000  1.0 -0.1911285495
C  C9  1  0.81790000  0.96190000  0.03720000  1.0 -0.1810530337
C  C10  1  0.18210000  0.03810000  0.96280000  1.0 -0.1810530337
C  C11  1  0.62640000  0.92450000  0.13090000  1.0 -0.1810530337
C  C12  1  0.37360000  0.07550000  0.86910000  1.0 -0.1810530337
C  C13  1  0.68420000  0.89410000  0.04630000  1.0 -0.1196901776
C  C14  1  0.31580000  0.10590000  0.95370000  1.0 -0.1196901776
C  C15  1  0.64440000  0.75500000  0.01930000  1.0 0.6248179227
C  C16  1  0.35560000  0.24500000  0.98070000  1.0 0.6253084093
C  C17  1  0.94490000  0.62280000  0.26640000  1.0 0.5889398605
C  C18  1  0.05510000  0.37720000  0.73360000  1.0 0.5889398605
C  C19  1  0.00790000  0.71270000  0.20120000  1.0 -0.1196901776
C  C20  1  0.99210000  0.28730000  0.79880000  1.0 -0.1196901776
C  C21  1  0.15570000  0.79650000  0.23640000  1.0 -0.1810530337
C  C22  1  0.84430000  0.20350000  0.76360000  1.0 -0.1810530337
C  C23  1  0.00520000  0.64310000  0.10680000  1.0 -0.1911285495
C  C24  1  0.99480000  0.35690000  0.89320000  1.0 -0.1911285495
C  C25  1  0.11970000  0.57440000  0.10860000  1.0 -0.1713841582
C  C26  1  0.88030000  0.42560000  0.89140000  1.0 -0.1713841582
C  C27  1  0.27440000  0.73130000  0.23190000  1.0 -0.1810530337
C  C28  1  0.72560000  0.26870000  0.76810000  1.0 -0.1810530337
C  C29  1  0.26600000  0.66500000  0.13720000  1.0 -0.1196901776
C  C30  1  0.73400000  0.33500000  0.86280000  1.0 -0.1196901776
C  C31  1  0.38100000  0.59980000  0.13020000  1.0 0.5889398605
C  C32  1  0.61900000  0.40020000  0.86980000  1.0 0.5889398605
C  C33  1  0.16590000  0.36730000  0.47160000  1.0 0.6004994661
C  C34  1  0.83410000  0.63270000  0.52840000  1.0 0.6004994661
C  C35  1  0.18530000  0.28750000  0.39070000  1.0 -0.1372882277
C  C36  1  0.81470000  0.71250000  0.60930000  1.0 -0.1372882277
C  C37  1  0.27630000  0.20030000  0.41570000  1.0 -0.1713841582
C  C38  1  0.72370000  0.79970000  0.58430000  1.0 -0.1713841582
C  C39  1  0.25010000  0.37430000  0.32140000  1.0 -0.1713841582
C  C40  1  0.74990000  0.62570000  0.67860000  1.0 -0.1713841582
C  C41  1  0.27330000  0.30120000  0.23730000  1.0 -0.1810530337
C  C42  1  0.72670000  0.69880000  0.76270000  1.0 -0.1810530337
C  C43  1  0.30100000  0.12760000  0.33110000  1.0 -0.1810530337
C  C44  1  0.69900000  0.87240000  0.66890000  1.0 -0.1810530337
C  C45  1  0.36640000  0.21450000  0.26310000  1.0 -0.1196901776
C  C46  1  0.63360000  0.78550000  0.73690000  1.0 -0.1196901776
C  C47  1  0.51950000  0.28350000  0.29890000  1.0 0.5889398605
C  C48  1  0.48050000  0.71650000  0.70110000  1.0 0.5889398605
O  O1  1  0.77530000  0.33570000  0.11360000  1.0 -0.6219074577
O  O2  1  0.22470000  0.66430000  0.88640000  1.0 -0.6219074577
O  O3  1  0.87300000  0.31070000  0.25240000  1.0 -0.5960213393
O  O4  1  0.12700000  0.68930000  0.74760000  1.0 -0.5960213393
O  O5  1  0.56300000  0.71560000  0.94540000  1.0 -0.6219074577
O  O6  1  0.43700000  0.28440000  0.05460000  1.0 -0.6219074577
O  O7  1  0.69150000  0.68740000  0.07330000  1.0 -0.6319517493
O  O8  1  0.30850000  0.31260000  0.92670000  1.0 -0.6319517493
O  O9  1  0.81320000  0.56950000  0.24860000  1.0 -0.6658541411
O  O10  1  0.18680000  0.43050000  0.75140000  1.0 -0.6658541411
O  O11  1  0.01540000  0.60220000  0.33490000  1.0 -0.463689357
O  O12  1  0.98460000  0.39780000  0.66510000  1.0 -0.463689357
O  O13  1  0.38560000  0.54410000  0.05250000  1.0 -0.6934131831
O  O14  1  0.61440000  0.45590000  0.94750000  1.0 -0.6934131831
O  O15  1  0.46940000  0.59730000  0.19820000  1.0 -0.5516458005
O  O16  1  0.53060000  0.40270000  0.80180000  1.0 -0.5516458005
O  O17  1  0.57890000  0.37660000  0.26100000  1.0 -0.6535726637
O  O18  1  0.42110000  0.62340000  0.73900000  1.0 -0.6535726637
O  O19  1  0.58920000  0.24850000  0.36230000  1.0 -0.4939098507
O  O20  1  0.41080000  0.75150000  0.63770000  1.0 -0.4939098507
O  O21  1  0.05890000  0.41230000  0.46490000  1.0 -0.6319517493
O  O22  1  0.94110000  0.58770000  0.53510000  1.0 -0.6319517493
O  O23  1  0.25710000  0.39930000  0.54310000  1.0 -0.5786530822
O  O24  1  0.74290000  0.60070000  0.45690000  1.0 -0.5786530822
O  O25  1  0.75660000  0.33980000  0.53280000  1.0 -0.2119774371
O  O26  1  0.24340000  0.66020000  0.46720000  1.0 -0.2119774371
O  O27  1  0.83520000  0.17440000  0.41940000  1.0 -0.2462540343
O  O28  1  0.16480000  0.82560000  0.58060000  1.0 -0.2462540343
