# DDEC6 charges by PACMAN v1.1 (https://github.com/mtap-research/PACMAN-charge/)
data_RIDCEN_ion_pacman
_symmetry_space_group_name_H-M   'P 1'
_cell_length_a   22.45670000
_cell_length_b   22.45670000
_cell_length_c   22.45670000
_cell_angle_alpha   90.00000000
_cell_angle_beta   90.00000000
_cell_angle_gamma   90.00000000
_symmetry_Int_Tables_number   1
_chemical_formula_structural   In3H9C24N4O19
_chemical_formula_sum   'In24 H72 C192 N32 O152'
_cell_volume   11324.98959889
_cell_formula_units_Z   8
loop_
 _symmetry_equiv_pos_site_id
 _symmetry_equiv_pos_as_xyz
  1  'x, y, z'
loop_
 _atom_site_type_symbol
 _atom_site_label
 _atom_site_symmetry_multiplicity
 _atom_site_fract_x
 _atom_site_fract_y
 _atom_site_fract_z
 _atom_site_occupancy
 _atom_site_charge
In  In1  1  0.67810000  0.26043000  0.19349000  1.0 1.5330176301
In  In2  1  0.32190000  0.73957000  0.19349000  1.0 1.5330176301
In  In3  1  0.32190000  0.26043000  0.80651000  1.0 1.5330176301
In  In4  1  0.67810000  0.73957000  0.80651000  1.0 1.5330176301
In  In5  1  0.19349000  0.67810000  0.26043000  1.0 1.5330176301
In  In6  1  0.19349000  0.32190000  0.73957000  1.0 1.5330176301
In  In7  1  0.80651000  0.32190000  0.26043000  1.0 1.5330176301
In  In8  1  0.80651000  0.67810000  0.73957000  1.0 1.5330176301
In  In9  1  0.26043000  0.19349000  0.67810000  1.0 1.5330176301
In  In10  1  0.73957000  0.19349000  0.32190000  1.0 1.5330176301
In  In11  1  0.26043000  0.80651000  0.32190000  1.0 1.5330176301
In  In12  1  0.73957000  0.80651000  0.67810000  1.0 1.5330176301
In  In13  1  0.76043000  0.17810000  0.69349000  1.0 1.5330176301
In  In14  1  0.23957000  0.82190000  0.69349000  1.0 1.5330176301
In  In15  1  0.76043000  0.82190000  0.30651000  1.0 1.5330176301
In  In16  1  0.23957000  0.17810000  0.30651000  1.0 1.5330176301
In  In17  1  0.17810000  0.69349000  0.76043000  1.0 1.5330176301
In  In18  1  0.82190000  0.69349000  0.23957000  1.0 1.5330176301
In  In19  1  0.82190000  0.30651000  0.76043000  1.0 1.5330176301
In  In20  1  0.17810000  0.30651000  0.23957000  1.0 1.5330176301
In  In21  1  0.69349000  0.76043000  0.17810000  1.0 1.5330176301
In  In22  1  0.69349000  0.23957000  0.82190000  1.0 1.5330176301
In  In23  1  0.30651000  0.76043000  0.82190000  1.0 1.5330176301
In  In24  1  0.30651000  0.23957000  0.17810000  1.0 1.5330176301
H  H1  1  0.57480000  0.20500000  0.41670000  1.0 0.1474957215
H  H2  1  0.42520000  0.79500000  0.41670000  1.0 0.1474957215
H  H3  1  0.42520000  0.20500000  0.58330000  1.0 0.1474957215
H  H4  1  0.57480000  0.79500000  0.58330000  1.0 0.1474957215
H  H5  1  0.41670000  0.57480000  0.20500000  1.0 0.1474957215
H  H6  1  0.41670000  0.42520000  0.79500000  1.0 0.1474957215
H  H7  1  0.58330000  0.42520000  0.20500000  1.0 0.1474957215
H  H8  1  0.58330000  0.57480000  0.79500000  1.0 0.1474957215
H  H9  1  0.20500000  0.41670000  0.57480000  1.0 0.1474957215
H  H10  1  0.79500000  0.41670000  0.42520000  1.0 0.1474957215
H  H11  1  0.20500000  0.58330000  0.42520000  1.0 0.1474957215
H  H12  1  0.79500000  0.58330000  0.57480000  1.0 0.1474957215
H  H13  1  0.70500000  0.07480000  0.91670000  1.0 0.1474957215
H  H14  1  0.29500000  0.92520000  0.91670000  1.0 0.1474957215
H  H15  1  0.70500000  0.92520000  0.08330000  1.0 0.1474957215
H  H16  1  0.29500000  0.07480000  0.08330000  1.0 0.1474957215
H  H17  1  0.07480000  0.91670000  0.70500000  1.0 0.1474957215
H  H18  1  0.92520000  0.91670000  0.29500000  1.0 0.1474957215
H  H19  1  0.92520000  0.08330000  0.70500000  1.0 0.1474957215
H  H20  1  0.07480000  0.08330000  0.29500000  1.0 0.1474957215
H  H21  1  0.91670000  0.70500000  0.07480000  1.0 0.1474957215
H  H22  1  0.91670000  0.29500000  0.92520000  1.0 0.1474957215
H  H23  1  0.08330000  0.70500000  0.92520000  1.0 0.1474957215
H  H24  1  0.08330000  0.29500000  0.07480000  1.0 0.1474957215
H  H25  1  0.39340000  0.19570000  0.40770000  1.0 0.1601975061
H  H26  1  0.60660000  0.80430000  0.40770000  1.0 0.1601975061
H  H27  1  0.60660000  0.19570000  0.59230000  1.0 0.1601975061
H  H28  1  0.39340000  0.80430000  0.59230000  1.0 0.1601975061
H  H29  1  0.40770000  0.39340000  0.19570000  1.0 0.1601975061
H  H30  1  0.40770000  0.60660000  0.80430000  1.0 0.1601975061
H  H31  1  0.59230000  0.60660000  0.19570000  1.0 0.1601975061
H  H32  1  0.59230000  0.39340000  0.80430000  1.0 0.1601975061
H  H33  1  0.19570000  0.40770000  0.39340000  1.0 0.1601975061
H  H34  1  0.80430000  0.40770000  0.60660000  1.0 0.1601975061
H  H35  1  0.19570000  0.59230000  0.60660000  1.0 0.1601975061
H  H36  1  0.80430000  0.59230000  0.39340000  1.0 0.1601975061
H  H37  1  0.69570000  0.89340000  0.90770000  1.0 0.1601975061
H  H38  1  0.30430000  0.10660000  0.90770000  1.0 0.1601975061
H  H39  1  0.69570000  0.10660000  0.09230000  1.0 0.1601975061
H  H40  1  0.30430000  0.89340000  0.09230000  1.0 0.1601975061
H  H41  1  0.89340000  0.90770000  0.69570000  1.0 0.1601975061
H  H42  1  0.10660000  0.90770000  0.30430000  1.0 0.1601975061
H  H43  1  0.10660000  0.09230000  0.69570000  1.0 0.1601975061
H  H44  1  0.89340000  0.09230000  0.30430000  1.0 0.1601975061
H  H45  1  0.90770000  0.69570000  0.89340000  1.0 0.1601975061
H  H46  1  0.90770000  0.30430000  0.10660000  1.0 0.1601975061
H  H47  1  0.09230000  0.69570000  0.10660000  1.0 0.1601975061
H  H48  1  0.09230000  0.30430000  0.89340000  1.0 0.1601975061
H  H49  1  0.49180000  0.22120000  0.25840000  1.0 0.1601975061
H  H50  1  0.50820000  0.77880000  0.25840000  1.0 0.1601975061
H  H51  1  0.50820000  0.22120000  0.74160000  1.0 0.1601975061
H  H52  1  0.49180000  0.77880000  0.74160000  1.0 0.1601975061
H  H53  1  0.25840000  0.49180000  0.22120000  1.0 0.1601975061
H  H54  1  0.25840000  0.50820000  0.77880000  1.0 0.1601975061
H  H55  1  0.74160000  0.50820000  0.22120000  1.0 0.1601975061
H  H56  1  0.74160000  0.49180000  0.77880000  1.0 0.1601975061
H  H57  1  0.22120000  0.25840000  0.49180000  1.0 0.1601975061
H  H58  1  0.77880000  0.25840000  0.50820000  1.0 0.1601975061
H  H59  1  0.22120000  0.74160000  0.50820000  1.0 0.1601975061
H  H60  1  0.77880000  0.74160000  0.49180000  1.0 0.1601975061
H  H61  1  0.72120000  0.99180000  0.75840000  1.0 0.1601975061
H  H62  1  0.27880000  0.00820000  0.75840000  1.0 0.1601975061
H  H63  1  0.72120000  0.00820000  0.24160000  1.0 0.1601975061
H  H64  1  0.27880000  0.99180000  0.24160000  1.0 0.1601975061
H  H65  1  0.99180000  0.75840000  0.72120000  1.0 0.1601975061
H  H66  1  0.00820000  0.75840000  0.27880000  1.0 0.1601975061
H  H67  1  0.00820000  0.24160000  0.72120000  1.0 0.1601975061
H  H68  1  0.99180000  0.24160000  0.27880000  1.0 0.1601975061
H  H69  1  0.75840000  0.72120000  0.99180000  1.0 0.1601975061
H  H70  1  0.75840000  0.27880000  0.00820000  1.0 0.1601975061
H  H71  1  0.24160000  0.72120000  0.00820000  1.0 0.1601975061
H  H72  1  0.24160000  0.27880000  0.99180000  1.0 0.1601975061
C  C1  1  0.37710000  0.20530000  0.29370000  1.0 0.6118401833
C  C2  1  0.62290000  0.79470000  0.29370000  1.0 0.6118401833
C  C3  1  0.62290000  0.20530000  0.70630000  1.0 0.6118401833
C  C4  1  0.37710000  0.79470000  0.70630000  1.0 0.6118401833
C  C5  1  0.29370000  0.37710000  0.20530000  1.0 0.6118401833
C  C6  1  0.29370000  0.62290000  0.79470000  1.0 0.6118401833
C  C7  1  0.70630000  0.62290000  0.20530000  1.0 0.6118401833
C  C8  1  0.70630000  0.37710000  0.79470000  1.0 0.6118401833
C  C9  1  0.20530000  0.29370000  0.37710000  1.0 0.6118401833
C  C10  1  0.79470000  0.29370000  0.62290000  1.0 0.6118401833
C  C11  1  0.20530000  0.70630000  0.62290000  1.0 0.6118401833
C  C12  1  0.79470000  0.70630000  0.37710000  1.0 0.6118401833
C  C13  1  0.70530000  0.87710000  0.79370000  1.0 0.6118401833
C  C14  1  0.29470000  0.12290000  0.79370000  1.0 0.6118401833
C  C15  1  0.70530000  0.12290000  0.20630000  1.0 0.6118401833
C  C16  1  0.29470000  0.87710000  0.20630000  1.0 0.6118401833
C  C17  1  0.87710000  0.79370000  0.70530000  1.0 0.6118401833
C  C18  1  0.12290000  0.79370000  0.29470000  1.0 0.6118401833
C  C19  1  0.12290000  0.20630000  0.70530000  1.0 0.6118401833
C  C20  1  0.87710000  0.20630000  0.29470000  1.0 0.6118401833
C  C21  1  0.79370000  0.70530000  0.87710000  1.0 0.6118401833
C  C22  1  0.79370000  0.29470000  0.12290000  1.0 0.6118401833
C  C23  1  0.20630000  0.70530000  0.12290000  1.0 0.6118401833
C  C24  1  0.20630000  0.29470000  0.87710000  1.0 0.6118401833
C  C25  1  0.53930000  0.20500000  0.39360000  1.0 -0.1112560763
C  C26  1  0.46070000  0.79500000  0.39360000  1.0 -0.1112560763
C  C27  1  0.46070000  0.20500000  0.60640000  1.0 -0.1112560763
C  C28  1  0.53930000  0.79500000  0.60640000  1.0 -0.1112560763
C  C29  1  0.39360000  0.53930000  0.20500000  1.0 -0.1112560763
C  C30  1  0.39360000  0.46070000  0.79500000  1.0 -0.1112560763
C  C31  1  0.60640000  0.46070000  0.20500000  1.0 -0.1112560763
C  C32  1  0.60640000  0.53930000  0.79500000  1.0 -0.1112560763
C  C33  1  0.20500000  0.39360000  0.53930000  1.0 -0.1112560763
C  C34  1  0.79500000  0.39360000  0.46070000  1.0 -0.1112560763
C  C35  1  0.20500000  0.60640000  0.46070000  1.0 -0.1112560763
C  C36  1  0.79500000  0.60640000  0.53930000  1.0 -0.1112560763
C  C37  1  0.70500000  0.03930000  0.89360000  1.0 -0.1112560763
C  C38  1  0.29500000  0.96070000  0.89360000  1.0 -0.1112560763
C  C39  1  0.70500000  0.96070000  0.10640000  1.0 -0.1112560763
C  C40  1  0.29500000  0.03930000  0.10640000  1.0 -0.1112560763
C  C41  1  0.03930000  0.89360000  0.70500000  1.0 -0.1112560763
C  C42  1  0.96070000  0.89360000  0.29500000  1.0 -0.1112560763
C  C43  1  0.96070000  0.10640000  0.70500000  1.0 -0.1112560763
C  C44  1  0.03930000  0.10640000  0.29500000  1.0 -0.1112560763
C  C45  1  0.89360000  0.70500000  0.03930000  1.0 -0.1112560763
C  C46  1  0.89360000  0.29500000  0.96070000  1.0 -0.1112560763
C  C47  1  0.10640000  0.70500000  0.96070000  1.0 -0.1112560763
C  C48  1  0.10640000  0.29500000  0.03930000  1.0 -0.1112560763
C  C49  1  0.43100000  0.19910000  0.38860000  1.0 -0.1194718234
C  C50  1  0.56900000  0.80090000  0.38860000  1.0 -0.1194718234
C  C51  1  0.56900000  0.19910000  0.61140000  1.0 -0.1194718234
C  C52  1  0.43100000  0.80090000  0.61140000  1.0 -0.1194718234
C  C53  1  0.38860000  0.43100000  0.19910000  1.0 -0.1194718234
C  C54  1  0.38860000  0.56900000  0.80090000  1.0 -0.1194718234
C  C55  1  0.61140000  0.56900000  0.19910000  1.0 -0.1194718234
C  C56  1  0.61140000  0.43100000  0.80090000  1.0 -0.1194718234
C  C57  1  0.19910000  0.38860000  0.43100000  1.0 -0.1194718234
C  C58  1  0.80090000  0.38860000  0.56900000  1.0 -0.1194718234
C  C59  1  0.19910000  0.61140000  0.56900000  1.0 -0.1194718234
C  C60  1  0.80090000  0.61140000  0.43100000  1.0 -0.1194718234
C  C61  1  0.69910000  0.93100000  0.88860000  1.0 -0.1194718234
C  C62  1  0.30090000  0.06900000  0.88860000  1.0 -0.1194718234
C  C63  1  0.69910000  0.06900000  0.11140000  1.0 -0.1194718234
C  C64  1  0.30090000  0.93100000  0.11140000  1.0 -0.1194718234
C  C65  1  0.93100000  0.88860000  0.69910000  1.0 -0.1194718234
C  C66  1  0.06900000  0.88860000  0.30090000  1.0 -0.1194718234
C  C67  1  0.06900000  0.11140000  0.69910000  1.0 -0.1194718234
C  C68  1  0.93100000  0.11140000  0.30090000  1.0 -0.1194718234
C  C69  1  0.88860000  0.69910000  0.93100000  1.0 -0.1194718234
C  C70  1  0.88860000  0.30090000  0.06900000  1.0 -0.1194718234
C  C71  1  0.11140000  0.69910000  0.06900000  1.0 -0.1194718234
C  C72  1  0.11140000  0.30090000  0.93100000  1.0 -0.1194718234
C  C73  1  0.43450000  0.20460000  0.32820000  1.0 0.0101078914
C  C74  1  0.56550000  0.79540000  0.32820000  1.0 0.0101078914
C  C75  1  0.56550000  0.20460000  0.67180000  1.0 0.0101078914
C  C76  1  0.43450000  0.79540000  0.67180000  1.0 0.0101078914
C  C77  1  0.32820000  0.43450000  0.20460000  1.0 0.0101078914
C  C78  1  0.32820000  0.56550000  0.79540000  1.0 0.0101078914
C  C79  1  0.67180000  0.56550000  0.20460000  1.0 0.0101078914
C  C80  1  0.67180000  0.43450000  0.79540000  1.0 0.0101078914
C  C81  1  0.20460000  0.32820000  0.43450000  1.0 0.0101078914
C  C82  1  0.79540000  0.32820000  0.56550000  1.0 0.0101078914
C  C83  1  0.20460000  0.67180000  0.56550000  1.0 0.0101078914
C  C84  1  0.79540000  0.67180000  0.43450000  1.0 0.0101078914
C  C85  1  0.70460000  0.93450000  0.82820000  1.0 0.0101078914
C  C86  1  0.29540000  0.06550000  0.82820000  1.0 0.0101078914
C  C87  1  0.70460000  0.06550000  0.17180000  1.0 0.0101078914
C  C88  1  0.29540000  0.93450000  0.17180000  1.0 0.0101078914
C  C89  1  0.93450000  0.82820000  0.70460000  1.0 0.0101078914
C  C90  1  0.06550000  0.82820000  0.29540000  1.0 0.0101078914
C  C91  1  0.06550000  0.17180000  0.70460000  1.0 0.0101078914
C  C92  1  0.93450000  0.17180000  0.29540000  1.0 0.0101078914
C  C93  1  0.82820000  0.70460000  0.93450000  1.0 0.0101078914
C  C94  1  0.82820000  0.29540000  0.06550000  1.0 0.0101078914
C  C95  1  0.17180000  0.70460000  0.06550000  1.0 0.0101078914
C  C96  1  0.17180000  0.29540000  0.93450000  1.0 0.0101078914
C  C97  1  0.60130000  0.22020000  0.30280000  1.0 0.619547198
C  C98  1  0.39870000  0.77980000  0.30280000  1.0 0.619547198
C  C99  1  0.39870000  0.22020000  0.69720000  1.0 0.619547198
C  C100  1  0.60130000  0.77980000  0.69720000  1.0 0.619547198
C  C101  1  0.30280000  0.60130000  0.22020000  1.0 0.619547198
C  C102  1  0.30280000  0.39870000  0.77980000  1.0 0.619547198
C  C103  1  0.69720000  0.39870000  0.22020000  1.0 0.619547198
C  C104  1  0.69720000  0.60130000  0.77980000  1.0 0.619547198
C  C105  1  0.22020000  0.30280000  0.60130000  1.0 0.619547198
C  C106  1  0.77980000  0.30280000  0.39870000  1.0 0.619547198
C  C107  1  0.22020000  0.69720000  0.39870000  1.0 0.619547198
C  C108  1  0.77980000  0.69720000  0.60130000  1.0 0.619547198
C  C109  1  0.72020000  0.10130000  0.80280000  1.0 0.619547198
C  C110  1  0.27980000  0.89870000  0.80280000  1.0 0.619547198
C  C111  1  0.72020000  0.89870000  0.19720000  1.0 0.619547198
C  C112  1  0.27980000  0.10130000  0.19720000  1.0 0.619547198
C  C113  1  0.10130000  0.80280000  0.72020000  1.0 0.619547198
C  C114  1  0.89870000  0.80280000  0.27980000  1.0 0.619547198
C  C115  1  0.89870000  0.19720000  0.72020000  1.0 0.619547198
C  C116  1  0.10130000  0.19720000  0.27980000  1.0 0.619547198
C  C117  1  0.80280000  0.72020000  0.10130000  1.0 0.619547198
C  C118  1  0.80280000  0.27980000  0.89870000  1.0 0.619547198
C  C119  1  0.19720000  0.72020000  0.89870000  1.0 0.619547198
C  C120  1  0.19720000  0.27980000  0.10130000  1.0 0.619547198
C  C121  1  0.54340000  0.21110000  0.33480000  1.0 -0.0067602783
C  C122  1  0.45660000  0.78890000  0.33480000  1.0 -0.0067602783
C  C123  1  0.45660000  0.21110000  0.66520000  1.0 -0.0067602783
C  C124  1  0.54340000  0.78890000  0.66520000  1.0 -0.0067602783
C  C125  1  0.33480000  0.54340000  0.21110000  1.0 -0.0067602783
C  C126  1  0.33480000  0.45660000  0.78890000  1.0 -0.0067602783
C  C127  1  0.66520000  0.45660000  0.21110000  1.0 -0.0067602783
C  C128  1  0.66520000  0.54340000  0.78890000  1.0 -0.0067602783
C  C129  1  0.21110000  0.33480000  0.54340000  1.0 -0.0067602783
C  C130  1  0.78890000  0.33480000  0.45660000  1.0 -0.0067602783
C  C131  1  0.21110000  0.66520000  0.45660000  1.0 -0.0067602783
C  C132  1  0.78890000  0.66520000  0.54340000  1.0 -0.0067602783
C  C133  1  0.71110000  0.04340000  0.83480000  1.0 -0.0067602783
C  C134  1  0.28890000  0.95660000  0.83480000  1.0 -0.0067602783
C  C135  1  0.71110000  0.95660000  0.16520000  1.0 -0.0067602783
C  C136  1  0.28890000  0.04340000  0.16520000  1.0 -0.0067602783
C  C137  1  0.04340000  0.83480000  0.71110000  1.0 -0.0067602783
C  C138  1  0.95660000  0.83480000  0.28890000  1.0 -0.0067602783
C  C139  1  0.95660000  0.16520000  0.71110000  1.0 -0.0067602783
C  C140  1  0.04340000  0.16520000  0.28890000  1.0 -0.0067602783
C  C141  1  0.83480000  0.71110000  0.04340000  1.0 -0.0067602783
C  C142  1  0.83480000  0.28890000  0.95660000  1.0 -0.0067602783
C  C143  1  0.16520000  0.71110000  0.95660000  1.0 -0.0067602783
C  C144  1  0.16520000  0.28890000  0.04340000  1.0 -0.0067602783
C  C145  1  0.48990000  0.21360000  0.30000000  1.0 -0.0677029039
C  C146  1  0.51010000  0.78640000  0.30000000  1.0 -0.0677029039
C  C147  1  0.51010000  0.21360000  0.70000000  1.0 -0.0677029039
C  C148  1  0.48990000  0.78640000  0.70000000  1.0 -0.0677029039
C  C149  1  0.30000000  0.48990000  0.21360000  1.0 -0.0677029039
C  C150  1  0.30000000  0.51010000  0.78640000  1.0 -0.0677029039
C  C151  1  0.70000000  0.51010000  0.21360000  1.0 -0.0677029039
C  C152  1  0.70000000  0.48990000  0.78640000  1.0 -0.0677029039
C  C153  1  0.21360000  0.30000000  0.48990000  1.0 -0.0677029039
C  C154  1  0.78640000  0.30000000  0.51010000  1.0 -0.0677029039
C  C155  1  0.21360000  0.70000000  0.51010000  1.0 -0.0677029039
C  C156  1  0.78640000  0.70000000  0.48990000  1.0 -0.0677029039
C  C157  1  0.71360000  0.98990000  0.80000000  1.0 -0.0677029039
C  C158  1  0.28640000  0.01010000  0.80000000  1.0 -0.0677029039
C  C159  1  0.71360000  0.01010000  0.20000000  1.0 -0.0677029039
C  C160  1  0.28640000  0.98990000  0.20000000  1.0 -0.0677029039
C  C161  1  0.98990000  0.80000000  0.71360000  1.0 -0.0677029039
C  C162  1  0.01010000  0.80000000  0.28640000  1.0 -0.0677029039
C  C163  1  0.01010000  0.20000000  0.71360000  1.0 -0.0677029039
C  C164  1  0.98990000  0.20000000  0.28640000  1.0 -0.0677029039
C  C165  1  0.80000000  0.71360000  0.98990000  1.0 -0.0677029039
C  C166  1  0.80000000  0.28640000  0.01010000  1.0 -0.0677029039
C  C167  1  0.20000000  0.71360000  0.01010000  1.0 -0.0677029039
C  C168  1  0.20000000  0.28640000  0.98990000  1.0 -0.0677029039
C  C169  1  0.48430000  0.19850000  0.42280000  1.0 0.1747927396
C  C170  1  0.51570000  0.80150000  0.42280000  1.0 0.1747927396
C  C171  1  0.51570000  0.19850000  0.57720000  1.0 0.1747927396
C  C172  1  0.48430000  0.80150000  0.57720000  1.0 0.1747927396
C  C173  1  0.42280000  0.48430000  0.19850000  1.0 0.1747927396
C  C174  1  0.42280000  0.51570000  0.80150000  1.0 0.1747927396
C  C175  1  0.57720000  0.51570000  0.19850000  1.0 0.1747927396
C  C176  1  0.57720000  0.48430000  0.80150000  1.0 0.1747927396
C  C177  1  0.19850000  0.42280000  0.48430000  1.0 0.1747927396
C  C178  1  0.80150000  0.42280000  0.51570000  1.0 0.1747927396
C  C179  1  0.19850000  0.57720000  0.51570000  1.0 0.1747927396
C  C180  1  0.80150000  0.57720000  0.48430000  1.0 0.1747927396
C  C181  1  0.69850000  0.98430000  0.92280000  1.0 0.1747927396
C  C182  1  0.30150000  0.01570000  0.92280000  1.0 0.1747927396
C  C183  1  0.69850000  0.01570000  0.07720000  1.0 0.1747927396
C  C184  1  0.30150000  0.98430000  0.07720000  1.0 0.1747927396
C  C185  1  0.98430000  0.92280000  0.69850000  1.0 0.1747927396
C  C186  1  0.01570000  0.92280000  0.30150000  1.0 0.1747927396
C  C187  1  0.01570000  0.07720000  0.69850000  1.0 0.1747927396
C  C188  1  0.98430000  0.07720000  0.30150000  1.0 0.1747927396
C  C189  1  0.92280000  0.69850000  0.98430000  1.0 0.1747927396
C  C190  1  0.92280000  0.30150000  0.01570000  1.0 0.1747927396
C  C191  1  0.07720000  0.69850000  0.01570000  1.0 0.1747927396
C  C192  1  0.07720000  0.30150000  0.98430000  1.0 0.1747927396
N  N1  1  0.47750000  0.19230000  0.48420000  1.0 -0.1112560763
N  N2  1  0.52250000  0.80770000  0.48420000  1.0 -0.1112560763
N  N3  1  0.52250000  0.19230000  0.51580000  1.0 -0.1112560763
N  N4  1  0.47750000  0.80770000  0.51580000  1.0 -0.1112560763
N  N5  1  0.48420000  0.47750000  0.19230000  1.0 -0.1112560763
N  N6  1  0.48420000  0.52250000  0.80770000  1.0 -0.1112560763
N  N7  1  0.51580000  0.52250000  0.19230000  1.0 -0.1112560763
N  N8  1  0.51580000  0.47750000  0.80770000  1.0 -0.1112560763
N  N9  1  0.19230000  0.48420000  0.47750000  1.0 -0.1112560763
N  N10  1  0.80770000  0.48420000  0.52250000  1.0 -0.1112560763
N  N11  1  0.19230000  0.51580000  0.52250000  1.0 -0.1112560763
N  N12  1  0.80770000  0.51580000  0.47750000  1.0 -0.1112560763
N  N13  1  0.69230000  0.97750000  0.98420000  1.0 -0.1112560763
N  N14  1  0.30770000  0.02250000  0.98420000  1.0 -0.1112560763
N  N15  1  0.69230000  0.02250000  0.01580000  1.0 -0.1112560763
N  N16  1  0.30770000  0.97750000  0.01580000  1.0 -0.1112560763
N  N17  1  0.97750000  0.98420000  0.69230000  1.0 -0.1112560763
N  N18  1  0.02250000  0.98420000  0.30770000  1.0 -0.1112560763
N  N19  1  0.02250000  0.01580000  0.69230000  1.0 -0.1112560763
N  N20  1  0.97750000  0.01580000  0.30770000  1.0 -0.1112560763
N  N21  1  0.98420000  0.69230000  0.97750000  1.0 -0.1112560763
N  N22  1  0.98420000  0.30770000  0.02250000  1.0 -0.1112560763
N  N23  1  0.01580000  0.69230000  0.02250000  1.0 -0.1112560763
N  N24  1  0.01580000  0.30770000  0.97750000  1.0 -0.1112560763
N  N25  1  0.35990000  0.35990000  0.35990000  1.0 0.6917616523
N  N26  1  0.64010000  0.64010000  0.35990000  1.0 0.6917616523
N  N27  1  0.35990000  0.64010000  0.64010000  1.0 0.6917616523
N  N28  1  0.64010000  0.35990000  0.64010000  1.0 0.6917616523
N  N29  1  0.85990000  0.85990000  0.85990000  1.0 0.6917616523
N  N30  1  0.14010000  0.14010000  0.85990000  1.0 0.6917616523
N  N31  1  0.14010000  0.85990000  0.14010000  1.0 0.6917616523
N  N32  1  0.85990000  0.14010000  0.14010000  1.0 0.6917616523
O  O1  1  0.74070000  0.25930000  0.25930000  1.0 -1.1006413154
O  O2  1  0.25930000  0.74070000  0.25930000  1.0 -1.1006413154
O  O3  1  0.25930000  0.25930000  0.74070000  1.0 -1.1006413154
O  O4  1  0.74070000  0.74070000  0.74070000  1.0 -1.1006413154
O  O5  1  0.75930000  0.24070000  0.75930000  1.0 -1.1006413154
O  O6  1  0.24070000  0.75930000  0.75930000  1.0 -1.1006413154
O  O7  1  0.75930000  0.75930000  0.24070000  1.0 -1.1006413154
O  O8  1  0.24070000  0.24070000  0.24070000  1.0 -1.1006413154
O  O9  1  0.60300000  0.23870000  0.25160000  1.0 -0.4955157143
O  O10  1  0.39700000  0.76130000  0.25160000  1.0 -0.4955157143
O  O11  1  0.39700000  0.23870000  0.74840000  1.0 -0.4955157143
O  O12  1  0.60300000  0.76130000  0.74840000  1.0 -0.4955157143
O  O13  1  0.25160000  0.60300000  0.23870000  1.0 -0.4955157143
O  O14  1  0.25160000  0.39700000  0.76130000  1.0 -0.4955157143
O  O15  1  0.74840000  0.39700000  0.23870000  1.0 -0.4955157143
O  O16  1  0.74840000  0.60300000  0.76130000  1.0 -0.4955157143
O  O17  1  0.23870000  0.25160000  0.60300000  1.0 -0.4955157143
O  O18  1  0.76130000  0.25160000  0.39700000  1.0 -0.4955157143
O  O19  1  0.23870000  0.74840000  0.39700000  1.0 -0.4955157143
O  O20  1  0.76130000  0.74840000  0.60300000  1.0 -0.4955157143
O  O21  1  0.73870000  0.10300000  0.75160000  1.0 -0.4955157143
O  O22  1  0.26130000  0.89700000  0.75160000  1.0 -0.4955157143
O  O23  1  0.73870000  0.89700000  0.24840000  1.0 -0.4955157143
O  O24  1  0.26130000  0.10300000  0.24840000  1.0 -0.4955157143
O  O25  1  0.10300000  0.75160000  0.73870000  1.0 -0.4955157143
O  O26  1  0.89700000  0.75160000  0.26130000  1.0 -0.4955157143
O  O27  1  0.89700000  0.24840000  0.73870000  1.0 -0.4955157143
O  O28  1  0.10300000  0.24840000  0.26130000  1.0 -0.4955157143
O  O29  1  0.75160000  0.73870000  0.10300000  1.0 -0.4955157143
O  O30  1  0.75160000  0.26130000  0.89700000  1.0 -0.4955157143
O  O31  1  0.24840000  0.73870000  0.89700000  1.0 -0.4955157143
O  O32  1  0.24840000  0.26130000  0.10300000  1.0 -0.4955157143
O  O33  1  0.37780000  0.22090000  0.24120000  1.0 -0.5050337367
O  O34  1  0.62220000  0.77910000  0.24120000  1.0 -0.5050337367
O  O35  1  0.62220000  0.22090000  0.75880000  1.0 -0.5050337367
O  O36  1  0.37780000  0.77910000  0.75880000  1.0 -0.5050337367
O  O37  1  0.24120000  0.37780000  0.22090000  1.0 -0.5050337367
O  O38  1  0.24120000  0.62220000  0.77910000  1.0 -0.5050337367
O  O39  1  0.75880000  0.62220000  0.22090000  1.0 -0.5050337367
O  O40  1  0.75880000  0.37780000  0.77910000  1.0 -0.5050337367
O  O41  1  0.22090000  0.24120000  0.37780000  1.0 -0.5050337367
O  O42  1  0.77910000  0.24120000  0.62220000  1.0 -0.5050337367
O  O43  1  0.22090000  0.75880000  0.62220000  1.0 -0.5050337367
O  O44  1  0.77910000  0.75880000  0.37780000  1.0 -0.5050337367
O  O45  1  0.72090000  0.87780000  0.74120000  1.0 -0.5050337367
O  O46  1  0.27910000  0.12220000  0.74120000  1.0 -0.5050337367
O  O47  1  0.72090000  0.12220000  0.25880000  1.0 -0.5050337367
O  O48  1  0.27910000  0.87780000  0.25880000  1.0 -0.5050337367
O  O49  1  0.87780000  0.74120000  0.72090000  1.0 -0.5050337367
O  O50  1  0.12220000  0.74120000  0.27910000  1.0 -0.5050337367
O  O51  1  0.12220000  0.25880000  0.72090000  1.0 -0.5050337367
O  O52  1  0.87780000  0.25880000  0.27910000  1.0 -0.5050337367
O  O53  1  0.74120000  0.72090000  0.87780000  1.0 -0.5050337367
O  O54  1  0.74120000  0.27910000  0.12220000  1.0 -0.5050337367
O  O55  1  0.25880000  0.72090000  0.12220000  1.0 -0.5050337367
O  O56  1  0.25880000  0.27910000  0.87780000  1.0 -0.5050337367
O  O57  1  0.64640000  0.20610000  0.33660000  1.0 -0.5442192333
O  O58  1  0.35360000  0.79390000  0.33660000  1.0 -0.5442192333
O  O59  1  0.35360000  0.20610000  0.66340000  1.0 -0.5442192333
O  O60  1  0.64640000  0.79390000  0.66340000  1.0 -0.5442192333
O  O61  1  0.33660000  0.64640000  0.20610000  1.0 -0.5442192333
O  O62  1  0.33660000  0.35360000  0.79390000  1.0 -0.5442192333
O  O63  1  0.66340000  0.35360000  0.20610000  1.0 -0.5442192333
O  O64  1  0.66340000  0.64640000  0.79390000  1.0 -0.5442192333
O  O65  1  0.20610000  0.33660000  0.64640000  1.0 -0.5442192333
O  O66  1  0.79390000  0.33660000  0.35360000  1.0 -0.5442192333
O  O67  1  0.20610000  0.66340000  0.35360000  1.0 -0.5442192333
O  O68  1  0.79390000  0.66340000  0.64640000  1.0 -0.5442192333
O  O69  1  0.70610000  0.14640000  0.83660000  1.0 -0.5442192333
O  O70  1  0.29390000  0.85360000  0.83660000  1.0 -0.5442192333
O  O71  1  0.70610000  0.85360000  0.16340000  1.0 -0.5442192333
O  O72  1  0.29390000  0.14640000  0.16340000  1.0 -0.5442192333
O  O73  1  0.14640000  0.83660000  0.70610000  1.0 -0.5442192333
O  O74  1  0.85360000  0.83660000  0.29390000  1.0 -0.5442192333
O  O75  1  0.85360000  0.16340000  0.70610000  1.0 -0.5442192333
O  O76  1  0.14640000  0.16340000  0.29390000  1.0 -0.5442192333
O  O77  1  0.83660000  0.70610000  0.14640000  1.0 -0.5442192333
O  O78  1  0.83660000  0.29390000  0.85360000  1.0 -0.5442192333
O  O79  1  0.16340000  0.70610000  0.85360000  1.0 -0.5442192333
O  O80  1  0.16340000  0.29390000  0.14640000  1.0 -0.5442192333
O  O81  1  0.33270000  0.18960000  0.32370000  1.0 -0.5213562501
O  O82  1  0.66730000  0.81040000  0.32370000  1.0 -0.5213562501
O  O83  1  0.66730000  0.18960000  0.67630000  1.0 -0.5213562501
O  O84  1  0.33270000  0.81040000  0.67630000  1.0 -0.5213562501
O  O85  1  0.32370000  0.33270000  0.18960000  1.0 -0.5213562501
O  O86  1  0.32370000  0.66730000  0.81040000  1.0 -0.5213562501
O  O87  1  0.67630000  0.66730000  0.18960000  1.0 -0.5213562501
O  O88  1  0.67630000  0.33270000  0.81040000  1.0 -0.5213562501
O  O89  1  0.18960000  0.32370000  0.33270000  1.0 -0.5213562501
O  O90  1  0.81040000  0.32370000  0.66730000  1.0 -0.5213562501
O  O91  1  0.18960000  0.67630000  0.66730000  1.0 -0.5213562501
O  O92  1  0.81040000  0.67630000  0.33270000  1.0 -0.5213562501
O  O93  1  0.68960000  0.83270000  0.82370000  1.0 -0.5213562501
O  O94  1  0.31040000  0.16730000  0.82370000  1.0 -0.5213562501
O  O95  1  0.68960000  0.16730000  0.17630000  1.0 -0.5213562501
O  O96  1  0.31040000  0.83270000  0.17630000  1.0 -0.5213562501
O  O97  1  0.83270000  0.82370000  0.68960000  1.0 -0.5213562501
O  O98  1  0.16730000  0.82370000  0.31040000  1.0 -0.5213562501
O  O99  1  0.16730000  0.17630000  0.68960000  1.0 -0.5213562501
O  O100  1  0.83270000  0.17630000  0.31040000  1.0 -0.5213562501
O  O101  1  0.82370000  0.68960000  0.83270000  1.0 -0.5213562501
O  O102  1  0.82370000  0.31040000  0.16730000  1.0 -0.5213562501
O  O103  1  0.17630000  0.68960000  0.16730000  1.0 -0.5213562501
O  O104  1  0.17630000  0.31040000  0.83270000  1.0 -0.5213562501
O  O105  1  0.61080000  0.26250000  0.12390000  1.0 -0.4200054931
O  O106  1  0.38920000  0.73750000  0.12390000  1.0 -0.4200054931
O  O107  1  0.38920000  0.26250000  0.87610000  1.0 -0.4200054931
O  O108  1  0.61080000  0.73750000  0.87610000  1.0 -0.4200054931
O  O109  1  0.12390000  0.61080000  0.26250000  1.0 -0.4200054931
O  O110  1  0.12390000  0.38920000  0.73750000  1.0 -0.4200054931
O  O111  1  0.87610000  0.38920000  0.26250000  1.0 -0.4200054931
O  O112  1  0.87610000  0.61080000  0.73750000  1.0 -0.4200054931
O  O113  1  0.26250000  0.12390000  0.61080000  1.0 -0.4200054931
O  O114  1  0.73750000  0.12390000  0.38920000  1.0 -0.4200054931
O  O115  1  0.26250000  0.87610000  0.38920000  1.0 -0.4200054931
O  O116  1  0.73750000  0.87610000  0.61080000  1.0 -0.4200054931
O  O117  1  0.76250000  0.11080000  0.62390000  1.0 -0.4200054931
O  O118  1  0.23750000  0.88920000  0.62390000  1.0 -0.4200054931
O  O119  1  0.76250000  0.88920000  0.37610000  1.0 -0.4200054931
O  O120  1  0.23750000  0.11080000  0.37610000  1.0 -0.4200054931
O  O121  1  0.11080000  0.62390000  0.76250000  1.0 -0.4200054931
O  O122  1  0.88920000  0.62390000  0.23750000  1.0 -0.4200054931
O  O123  1  0.88920000  0.37610000  0.76250000  1.0 -0.4200054931
O  O124  1  0.11080000  0.37610000  0.23750000  1.0 -0.4200054931
O  O125  1  0.62390000  0.76250000  0.11080000  1.0 -0.4200054931
O  O126  1  0.62390000  0.23750000  0.88920000  1.0 -0.4200054931
O  O127  1  0.37610000  0.76250000  0.88920000  1.0 -0.4200054931
O  O128  1  0.37610000  0.23750000  0.11080000  1.0 -0.4200054931
O  O129  1  0.40400000  0.32900000  0.34700000  1.0 -0.3783255694
O  O130  1  0.32900000  0.34700000  0.40400000  1.0 -0.3783255694
O  O131  1  0.34700000  0.40400000  0.32900000  1.0 -0.3783255694
O  O132  1  0.59600000  0.67100000  0.34700000  1.0 -0.3783255694
O  O133  1  0.67100000  0.65300000  0.40400000  1.0 -0.3783255694
O  O134  1  0.65300000  0.59600000  0.32900000  1.0 -0.3783255694
O  O135  1  0.40400000  0.67100000  0.65300000  1.0 -0.3783255694
O  O136  1  0.32900000  0.65300000  0.59600000  1.0 -0.3783255694
O  O137  1  0.34700000  0.59600000  0.67100000  1.0 -0.3783255694
O  O138  1  0.59600000  0.32900000  0.65300000  1.0 -0.3783255694
O  O139  1  0.67100000  0.34700000  0.59600000  1.0 -0.3783255694
O  O140  1  0.65300000  0.40400000  0.67100000  1.0 -0.3783255694
O  O141  1  0.82900000  0.90400000  0.84700000  1.0 -0.3783255694
O  O142  1  0.84700000  0.82900000  0.90400000  1.0 -0.3783255694
O  O143  1  0.90400000  0.84700000  0.82900000  1.0 -0.3783255694
O  O144  1  0.17100000  0.09600000  0.84700000  1.0 -0.3783255694
O  O145  1  0.15300000  0.17100000  0.90400000  1.0 -0.3783255694
O  O146  1  0.09600000  0.15300000  0.82900000  1.0 -0.3783255694
O  O147  1  0.17100000  0.90400000  0.15300000  1.0 -0.3783255694
O  O148  1  0.15300000  0.82900000  0.09600000  1.0 -0.3783255694
O  O149  1  0.09600000  0.84700000  0.17100000  1.0 -0.3783255694
O  O150  1  0.82900000  0.09600000  0.15300000  1.0 -0.3783255694
O  O151  1  0.84700000  0.17100000  0.09600000  1.0 -0.3783255694
O  O152  1  0.90400000  0.15300000  0.17100000  1.0 -0.3783255694
