# DDEC6 charges by PACMAN v1.1 (https://github.com/mtap-research/PACMAN-charge/)
data_RIFGAQ_FSR_pacman
_symmetry_space_group_name_H-M   'P 1'
_cell_length_a   18.62290000
_cell_length_b   18.62290000
_cell_length_c   18.62290000
_cell_angle_alpha   60.00000000
_cell_angle_beta   60.00000000
_cell_angle_gamma   60.00000000
_symmetry_Int_Tables_number   1
_chemical_formula_structural   Cu12Mo12PH24(C36O67)2
_chemical_formula_sum   'Cu12 Mo12 P1 H24 C72 O134'
_cell_volume   4566.95713995
_cell_formula_units_Z   1
loop_
 _symmetry_equiv_pos_site_id
 _symmetry_equiv_pos_as_xyz
  1  'x, y, z'
loop_
 _atom_site_type_symbol
 _atom_site_label
 _atom_site_symmetry_multiplicity
 _atom_site_fract_x
 _atom_site_fract_y
 _atom_site_fract_z
 _atom_site_occupancy
 _atom_site_charge
Cu  Cu1  1  0.57080000  0.00000000  0.42920000  1.0 0.9108811376
Cu  Cu2  1  0.00000000  0.57080000  0.00000000  1.0 0.9108811376
Cu  Cu3  1  0.42920000  0.00000000  0.57080000  1.0 0.9108811376
Cu  Cu4  1  0.00000000  0.42920000  0.00000000  1.0 0.9108811376
Cu  Cu5  1  0.42920000  0.57080000  0.00000000  1.0 0.9108811376
Cu  Cu6  1  0.00000000  0.00000000  0.57080000  1.0 0.9108811376
Cu  Cu7  1  0.57080000  0.42920000  0.00000000  1.0 0.9108811376
Cu  Cu8  1  0.00000000  0.00000000  0.42920000  1.0 0.9108811376
Cu  Cu9  1  0.00000000  0.42920000  0.57080000  1.0 0.9108811376
Cu  Cu10  1  0.57080000  0.00000000  0.00000000  1.0 0.9108811376
Cu  Cu11  1  0.00000000  0.57080000  0.42920000  1.0 0.9108811376
Cu  Cu12  1  0.42920000  0.00000000  0.00000000  1.0 0.9108811376
Mo  Mo1  1  0.69010000  0.50000000  0.30990000  1.0 2.146392371
Mo  Mo2  1  0.50000000  0.69010000  0.50000000  1.0 2.146392371
Mo  Mo3  1  0.30990000  0.50000000  0.69010000  1.0 2.146392371
Mo  Mo4  1  0.50000000  0.30990000  0.50000000  1.0 2.146392371
Mo  Mo5  1  0.30990000  0.69010000  0.50000000  1.0 2.146392371
Mo  Mo6  1  0.50000000  0.50000000  0.69010000  1.0 2.146392371
Mo  Mo7  1  0.69010000  0.30990000  0.50000000  1.0 2.146392371
Mo  Mo8  1  0.50000000  0.50000000  0.30990000  1.0 2.146392371
Mo  Mo9  1  0.50000000  0.30990000  0.69010000  1.0 2.146392371
Mo  Mo10  1  0.69010000  0.50000000  0.50000000  1.0 2.146392371
Mo  Mo11  1  0.50000000  0.69010000  0.30990000  1.0 2.146392371
Mo  Mo12  1  0.30990000  0.50000000  0.50000000  1.0 2.146392371
P  P1  1  0.50000000  0.50000000  0.50000000  1.0 0.773519939
H  H1  1  0.49010000  0.27410000  0.27410000  1.0 0.1385599209
H  H2  1  0.27410000  0.49010000  0.96170000  1.0 0.1385599209
H  H3  1  0.27410000  0.96170000  0.49010000  1.0 0.1385599209
H  H4  1  0.96170000  0.27410000  0.27410000  1.0 0.1385599209
H  H5  1  0.27410000  0.49010000  0.27410000  1.0 0.1385599209
H  H6  1  0.96170000  0.27410000  0.49010000  1.0 0.1385599209
H  H7  1  0.49010000  0.27410000  0.96170000  1.0 0.1385599209
H  H8  1  0.27410000  0.96170000  0.27410000  1.0 0.1385599209
H  H9  1  0.27410000  0.27410000  0.49010000  1.0 0.1385599209
H  H10  1  0.49010000  0.96170000  0.27410000  1.0 0.1385599209
H  H11  1  0.96170000  0.49010000  0.27410000  1.0 0.1385599209
H  H12  1  0.27410000  0.27410000  0.96170000  1.0 0.1385599209
H  H13  1  0.50990000  0.72590000  0.03830000  1.0 0.1385599209
H  H14  1  0.72590000  0.50990000  0.72590000  1.0 0.1385599209
H  H15  1  0.72590000  0.03830000  0.72590000  1.0 0.1385599209
H  H16  1  0.03830000  0.72590000  0.50990000  1.0 0.1385599209
H  H17  1  0.72590000  0.50990000  0.03830000  1.0 0.1385599209
H  H18  1  0.03830000  0.72590000  0.72590000  1.0 0.1385599209
H  H19  1  0.50990000  0.72590000  0.72590000  1.0 0.1385599209
H  H20  1  0.72590000  0.03830000  0.50990000  1.0 0.1385599209
H  H21  1  0.72590000  0.72590000  0.03830000  1.0 0.1385599209
H  H22  1  0.50990000  0.03830000  0.72590000  1.0 0.1385599209
H  H23  1  0.03830000  0.50990000  0.72590000  1.0 0.1385599209
H  H24  1  0.72590000  0.72590000  0.50990000  1.0 0.1385599209
C  C1  1  0.38890000  0.25790000  0.38890000  1.0 -0.0331972439
C  C2  1  0.25790000  0.38890000  0.96430000  1.0 -0.0331972439
C  C3  1  0.38890000  0.96430000  0.38890000  1.0 -0.0331972439
C  C4  1  0.96430000  0.38890000  0.25790000  1.0 -0.0331972439
C  C5  1  0.38890000  0.38890000  0.25790000  1.0 -0.0331972439
C  C6  1  0.96430000  0.25790000  0.38890000  1.0 -0.0331972439
C  C7  1  0.38890000  0.38890000  0.96430000  1.0 -0.0331972439
C  C8  1  0.25790000  0.96430000  0.38890000  1.0 -0.0331972439
C  C9  1  0.25790000  0.38890000  0.38890000  1.0 -0.0331972439
C  C10  1  0.38890000  0.96430000  0.25790000  1.0 -0.0331972439
C  C11  1  0.96430000  0.38890000  0.38890000  1.0 -0.0331972439
C  C12  1  0.38890000  0.25790000  0.96430000  1.0 -0.0331972439
C  C13  1  0.61110000  0.74210000  0.03570000  1.0 -0.0331972439
C  C14  1  0.74210000  0.61110000  0.61110000  1.0 -0.0331972439
C  C15  1  0.61110000  0.03570000  0.74210000  1.0 -0.0331972439
C  C16  1  0.03570000  0.61110000  0.61110000  1.0 -0.0331972439
C  C17  1  0.61110000  0.61110000  0.03570000  1.0 -0.0331972439
C  C18  1  0.03570000  0.74210000  0.61110000  1.0 -0.0331972439
C  C19  1  0.61110000  0.61110000  0.74210000  1.0 -0.0331972439
C  C20  1  0.74210000  0.03570000  0.61110000  1.0 -0.0331972439
C  C21  1  0.74210000  0.61110000  0.03570000  1.0 -0.0331972439
C  C22  1  0.61110000  0.03570000  0.61110000  1.0 -0.0331972439
C  C23  1  0.03570000  0.61110000  0.74210000  1.0 -0.0331972439
C  C24  1  0.61110000  0.74210000  0.61110000  1.0 -0.0331972439
C  C25  1  0.43200000  0.30240000  0.30240000  1.0 -0.066197335
C  C26  1  0.30240000  0.43200000  0.96320000  1.0 -0.066197335
C  C27  1  0.30240000  0.96320000  0.43200000  1.0 -0.066197335
C  C28  1  0.96320000  0.30240000  0.30240000  1.0 -0.066197335
C  C29  1  0.30240000  0.43200000  0.30240000  1.0 -0.066197335
C  C30  1  0.96320000  0.30240000  0.43200000  1.0 -0.066197335
C  C31  1  0.43200000  0.30240000  0.96320000  1.0 -0.066197335
C  C32  1  0.30240000  0.96320000  0.30240000  1.0 -0.066197335
C  C33  1  0.30240000  0.30240000  0.43200000  1.0 -0.066197335
C  C34  1  0.43200000  0.96320000  0.30240000  1.0 -0.066197335
C  C35  1  0.96320000  0.43200000  0.30240000  1.0 -0.066197335
C  C36  1  0.30240000  0.30240000  0.96320000  1.0 -0.066197335
C  C37  1  0.56800000  0.69760000  0.03680000  1.0 -0.066197335
C  C38  1  0.69760000  0.56800000  0.69760000  1.0 -0.066197335
C  C39  1  0.69760000  0.03680000  0.69760000  1.0 -0.066197335
C  C40  1  0.03680000  0.69760000  0.56800000  1.0 -0.066197335
C  C41  1  0.69760000  0.56800000  0.03680000  1.0 -0.066197335
C  C42  1  0.03680000  0.69760000  0.69760000  1.0 -0.066197335
C  C43  1  0.56800000  0.69760000  0.69760000  1.0 -0.066197335
C  C44  1  0.69760000  0.03680000  0.56800000  1.0 -0.066197335
C  C45  1  0.69760000  0.69760000  0.03680000  1.0 -0.066197335
C  C46  1  0.56800000  0.03680000  0.69760000  1.0 -0.066197335
C  C47  1  0.03680000  0.56800000  0.69760000  1.0 -0.066197335
C  C48  1  0.69760000  0.69760000  0.56800000  1.0 -0.066197335
C  C49  1  0.43140000  0.16400000  0.43140000  1.0 0.5924578366
C  C50  1  0.16400000  0.43140000  0.97320000  1.0 0.5924578366
C  C51  1  0.43140000  0.97320000  0.43140000  1.0 0.5924578366
C  C52  1  0.97320000  0.43140000  0.16400000  1.0 0.5924578366
C  C53  1  0.43140000  0.43140000  0.16400000  1.0 0.5924578366
C  C54  1  0.97320000  0.16400000  0.43140000  1.0 0.5924578366
C  C55  1  0.43140000  0.43140000  0.97320000  1.0 0.5924578366
C  C56  1  0.16400000  0.97320000  0.43140000  1.0 0.5924578366
C  C57  1  0.16400000  0.43140000  0.43140000  1.0 0.5924578366
C  C58  1  0.43140000  0.97320000  0.16400000  1.0 0.5924578366
C  C59  1  0.97320000  0.43140000  0.43140000  1.0 0.5924578366
C  C60  1  0.43140000  0.16400000  0.97320000  1.0 0.5924578366
C  C61  1  0.56860000  0.83600000  0.02680000  1.0 0.5924578366
C  C62  1  0.83600000  0.56860000  0.56860000  1.0 0.5924578366
C  C63  1  0.56860000  0.02680000  0.83600000  1.0 0.5924578366
C  C64  1  0.02680000  0.56860000  0.56860000  1.0 0.5924578366
C  C65  1  0.56860000  0.56860000  0.02680000  1.0 0.5924578366
C  C66  1  0.02680000  0.83600000  0.56860000  1.0 0.5924578366
C  C67  1  0.56860000  0.56860000  0.83600000  1.0 0.5924578366
C  C68  1  0.83600000  0.02680000  0.56860000  1.0 0.5924578366
C  C69  1  0.83600000  0.56860000  0.02680000  1.0 0.5924578366
C  C70  1  0.56860000  0.02680000  0.56860000  1.0 0.5924578366
C  C71  1  0.02680000  0.56860000  0.83600000  1.0 0.5924578366
C  C72  1  0.56860000  0.83600000  0.56860000  1.0 0.5924578366
O  O1  1  0.71980000  0.52060000  0.37980000  1.0 -0.7564226928
O  O2  1  0.52060000  0.71980000  0.37980000  1.0 -0.7564226928
O  O3  1  0.37980000  0.37980000  0.71980000  1.0 -0.7564226928
O  O4  1  0.37980000  0.37980000  0.52060000  1.0 -0.7564226928
O  O5  1  0.37980000  0.71980000  0.52060000  1.0 -0.7564226928
O  O6  1  0.37980000  0.52060000  0.71980000  1.0 -0.7564226928
O  O7  1  0.71980000  0.37980000  0.37980000  1.0 -0.7564226928
O  O8  1  0.52060000  0.37980000  0.37980000  1.0 -0.7564226928
O  O9  1  0.52060000  0.37980000  0.71980000  1.0 -0.7564226928
O  O10  1  0.71980000  0.37980000  0.52060000  1.0 -0.7564226928
O  O11  1  0.37980000  0.71980000  0.37980000  1.0 -0.7564226928
O  O12  1  0.37980000  0.52060000  0.37980000  1.0 -0.7564226928
O  O13  1  0.28020000  0.47940000  0.62020000  1.0 -0.7564226928
O  O14  1  0.47940000  0.28020000  0.62020000  1.0 -0.7564226928
O  O15  1  0.62020000  0.62020000  0.47940000  1.0 -0.7564226928
O  O16  1  0.62020000  0.62020000  0.28020000  1.0 -0.7564226928
O  O17  1  0.62020000  0.28020000  0.62020000  1.0 -0.7564226928
O  O18  1  0.62020000  0.47940000  0.62020000  1.0 -0.7564226928
O  O19  1  0.28020000  0.62020000  0.47940000  1.0 -0.7564226928
O  O20  1  0.47940000  0.62020000  0.28020000  1.0 -0.7564226928
O  O21  1  0.47940000  0.62020000  0.62020000  1.0 -0.7564226928
O  O22  1  0.28020000  0.62020000  0.62020000  1.0 -0.7564226928
O  O23  1  0.62020000  0.28020000  0.47940000  1.0 -0.7564226928
O  O24  1  0.62020000  0.47940000  0.28020000  1.0 -0.7564226928
O  O25  1  0.77760000  0.50000000  0.22240000  1.0 -0.4572190908
O  O26  1  0.50000000  0.77760000  0.50000000  1.0 -0.4572190908
O  O27  1  0.22240000  0.50000000  0.77760000  1.0 -0.4572190908
O  O28  1  0.50000000  0.22240000  0.50000000  1.0 -0.4572190908
O  O29  1  0.22240000  0.77760000  0.50000000  1.0 -0.4572190908
O  O30  1  0.50000000  0.50000000  0.77760000  1.0 -0.4572190908
O  O31  1  0.77760000  0.22240000  0.50000000  1.0 -0.4572190908
O  O32  1  0.50000000  0.50000000  0.22240000  1.0 -0.4572190908
O  O33  1  0.50000000  0.22240000  0.77760000  1.0 -0.4572190908
O  O34  1  0.77760000  0.50000000  0.50000000  1.0 -0.4572190908
O  O35  1  0.50000000  0.77760000  0.22240000  1.0 -0.4572190908
O  O36  1  0.22240000  0.50000000  0.50000000  1.0 -0.4572190908
O  O37  1  0.60110000  0.46630000  0.46630000  1.0 -0.2904215994
O  O38  1  0.46630000  0.60110000  0.46630000  1.0 -0.2904215994
O  O39  1  0.46630000  0.46630000  0.60110000  1.0 -0.2904215994
O  O40  1  0.46630000  0.46630000  0.46630000  1.0 -0.2904215994
O  O41  1  0.39890000  0.53370000  0.53370000  1.0 -0.2904215994
O  O42  1  0.53370000  0.39890000  0.53370000  1.0 -0.2904215994
O  O43  1  0.53370000  0.53370000  0.53370000  1.0 -0.2904215994
O  O44  1  0.53370000  0.53370000  0.39890000  1.0 -0.2904215994
O  O45  1  0.81660000  0.66740000  0.18340000  1.0 -0.4433211766
O  O46  1  0.66740000  0.81660000  0.33260000  1.0 -0.4433211766
O  O47  1  0.18340000  0.33260000  0.81660000  1.0 -0.4471654305
O  O48  1  0.33260000  0.18340000  0.66740000  1.0 -0.4471654305
O  O49  1  0.18340000  0.81660000  0.66740000  1.0 -0.4471654305
O  O50  1  0.33260000  0.66740000  0.81660000  1.0 -0.4471654305
O  O51  1  0.81660000  0.18340000  0.33260000  1.0 -0.4433211766
O  O52  1  0.66740000  0.33260000  0.18340000  1.0 -0.4433211766
O  O53  1  0.66740000  0.18340000  0.81660000  1.0 -0.4433211766
O  O54  1  0.81660000  0.33260000  0.66740000  1.0 -0.4471654305
O  O55  1  0.33260000  0.81660000  0.18340000  1.0 -0.4433211766
O  O56  1  0.18340000  0.66740000  0.33260000  1.0 -0.4433211766
O  O57  1  0.18340000  0.33260000  0.66740000  1.0 -0.4471654305
O  O58  1  0.33260000  0.18340000  0.81660000  1.0 -0.4433211766
O  O59  1  0.81660000  0.66740000  0.33260000  1.0 -0.4471654305
O  O60  1  0.66740000  0.81660000  0.18340000  1.0 -0.4433211766
O  O61  1  0.81660000  0.18340000  0.66740000  1.0 -0.4471654305
O  O62  1  0.66740000  0.33260000  0.81660000  1.0 -0.4433211766
O  O63  1  0.18340000  0.81660000  0.33260000  1.0 -0.4433211766
O  O64  1  0.33260000  0.66740000  0.18340000  1.0 -0.4433211766
O  O65  1  0.33260000  0.81660000  0.66740000  1.0 -0.4471654305
O  O66  1  0.18340000  0.66740000  0.81660000  1.0 -0.4433211766
O  O67  1  0.66740000  0.18340000  0.33260000  1.0 -0.4433211766
O  O68  1  0.81660000  0.33260000  0.18340000  1.0 -0.4433211766
O  O69  1  0.76890000  0.76890000  0.23110000  1.0 1.4760475812
O  O70  1  0.23110000  0.23110000  0.76890000  1.0 1.4858766255
O  O71  1  0.23110000  0.76890000  0.76890000  1.0 1.4858766255
O  O72  1  0.76890000  0.23110000  0.23110000  1.0 1.4715238867
O  O73  1  0.76890000  0.23110000  0.76890000  1.0 1.4858766255
O  O74  1  0.23110000  0.76890000  0.23110000  1.0 1.4715238867
O  O75  1  0.50747000  0.12611000  0.38783000  1.0 -0.4954444597
O  O76  1  0.12611000  0.50747000  0.97859000  1.0 -0.4954444597
O  O77  1  0.38783000  0.97859000  0.50747000  1.0 -0.4954444597
O  O78  1  0.97859000  0.38783000  0.12611000  1.0 -0.4954444597
O  O79  1  0.38783000  0.50747000  0.12611000  1.0 -0.4954444597
O  O80  1  0.97859000  0.12611000  0.50747000  1.0 -0.4954444597
O  O81  1  0.50747000  0.38783000  0.97859000  1.0 -0.4954444597
O  O82  1  0.12611000  0.97859000  0.38783000  1.0 -0.4954444597
O  O83  1  0.12611000  0.38783000  0.50747000  1.0 -0.4954444597
O  O84  1  0.50747000  0.97859000  0.12611000  1.0 -0.4954444597
O  O85  1  0.97859000  0.50747000  0.38783000  1.0 -0.4954444597
O  O86  1  0.38783000  0.12611000  0.97859000  1.0 -0.4954444597
O  O87  1  0.49253000  0.87389000  0.02141000  1.0 -0.4954444597
O  O88  1  0.87389000  0.49253000  0.61217000  1.0 -0.4954444597
O  O89  1  0.61217000  0.02141000  0.87389000  1.0 -0.4954444597
O  O90  1  0.02141000  0.61217000  0.49253000  1.0 -0.4954444597
O  O91  1  0.61217000  0.49253000  0.02141000  1.0 -0.4954444597
O  O92  1  0.02141000  0.87389000  0.61217000  1.0 -0.4954444597
O  O93  1  0.49253000  0.61217000  0.87389000  1.0 -0.4954444597
O  O94  1  0.87389000  0.02141000  0.49253000  1.0 -0.4954444597
O  O95  1  0.87389000  0.61217000  0.02141000  1.0 -0.4954444597
O  O96  1  0.49253000  0.02141000  0.61217000  1.0 -0.4954444597
O  O97  1  0.02141000  0.49253000  0.87389000  1.0 -0.4954444597
O  O98  1  0.61217000  0.87389000  0.49253000  1.0 -0.4954444597
O  O99  1  0.49253000  0.87389000  0.61217000  1.0 -0.4954444597
O  O100  1  0.87389000  0.49253000  0.02141000  1.0 -0.4954444597
O  O101  1  0.61217000  0.02141000  0.49253000  1.0 -0.4954444597
O  O102  1  0.02141000  0.61217000  0.87389000  1.0 -0.4954444597
O  O103  1  0.61217000  0.49253000  0.87389000  1.0 -0.4954444597
O  O104  1  0.02141000  0.87389000  0.49253000  1.0 -0.4954444597
O  O105  1  0.49253000  0.61217000  0.02141000  1.0 -0.4954444597
O  O106  1  0.87389000  0.02141000  0.61217000  1.0 -0.4954444597
O  O107  1  0.87389000  0.61217000  0.49253000  1.0 -0.4954444597
O  O108  1  0.49253000  0.02141000  0.87389000  1.0 -0.4954444597
O  O109  1  0.02141000  0.49253000  0.61217000  1.0 -0.4954444597
O  O110  1  0.61217000  0.87389000  0.02141000  1.0 -0.4954444597
O  O111  1  0.50747000  0.12611000  0.97859000  1.0 -0.4954444597
O  O112  1  0.12611000  0.50747000  0.38783000  1.0 -0.4954444597
O  O113  1  0.38783000  0.97859000  0.12611000  1.0 -0.4954444597
O  O114  1  0.97859000  0.38783000  0.50747000  1.0 -0.4954444597
O  O115  1  0.38783000  0.50747000  0.97859000  1.0 -0.4954444597
O  O116  1  0.97859000  0.12611000  0.38783000  1.0 -0.4954444597
O  O117  1  0.50747000  0.38783000  0.12611000  1.0 -0.4954444597
O  O118  1  0.12611000  0.97859000  0.50747000  1.0 -0.4954444597
O  O119  1  0.12611000  0.38783000  0.97859000  1.0 -0.4954444597
O  O120  1  0.50747000  0.97859000  0.38783000  1.0 -0.4954444597
O  O121  1  0.97859000  0.50747000  0.12611000  1.0 -0.4954444597
O  O122  1  0.38783000  0.12611000  0.50747000  1.0 -0.4954444597
O  O123  1  0.69480000  0.00000000  0.30520000  1.0 -0.0961357918
O  O124  1  0.00000000  0.69480000  0.00000000  1.0 -0.0913185152
O  O125  1  0.30520000  0.00000000  0.69480000  1.0 -0.0913185152
O  O126  1  0.00000000  0.30520000  0.00000000  1.0 -0.0829241275
O  O127  1  0.30520000  0.69480000  0.00000000  1.0 -0.0913185152
O  O128  1  0.00000000  0.00000000  0.69480000  1.0 -0.0913185152
O  O129  1  0.69480000  0.30520000  0.00000000  1.0 -0.0829241275
O  O130  1  0.00000000  0.00000000  0.30520000  1.0 -0.0961357918
O  O131  1  0.00000000  0.30520000  0.69480000  1.0 -0.0913185152
O  O132  1  0.69480000  0.00000000  0.00000000  1.0 -0.0829241275
O  O133  1  0.00000000  0.69480000  0.30520000  1.0 -0.0961357918
O  O134  1  0.30520000  0.00000000  0.00000000  1.0 -0.0829241275
