# DDEC6 charges by PACMAN v1.1 (https://github.com/mtap-research/PACMAN-charge/)
data_RIFNAZ_ion_pacman
_symmetry_space_group_name_H-M   'P 1'
_cell_length_a   38.45000000
_cell_length_b   34.61070000
_cell_length_c   21.53400000
_cell_angle_alpha   82.94000000
_cell_angle_beta   63.29390000
_cell_angle_gamma   33.76620000
_symmetry_Int_Tables_number   1
_chemical_formula_structural   Cd12H336C443(N2O5)12
_chemical_formula_sum   'Cd12 H336 C443 N24 O60'
_cell_volume   12281.74926635
_cell_formula_units_Z   1
loop_
 _symmetry_equiv_pos_site_id
 _symmetry_equiv_pos_as_xyz
  1  'x, y, z'
loop_
 _atom_site_type_symbol
 _atom_site_label
 _atom_site_symmetry_multiplicity
 _atom_site_fract_x
 _atom_site_fract_y
 _atom_site_fract_z
 _atom_site_occupancy
 _atom_site_charge
Cd  Cd1  1  0.72776000  0.27224000  0.72776000  1.0 0.9425746376
Cd  Cd2  1  0.97776000  0.52224000  0.97776000  1.0 0.9425746376
Cd  Cd3  1  0.55286000  0.94714000  0.55286000  1.0 1.1155786687
Cd  Cd4  1  0.30286000  0.69714000  0.30286000  1.0 1.1155786687
Cd  Cd5  1  0.71112000  0.73612000  0.42942000  1.0 0.9655454928
Cd  Cd6  1  0.42942000  0.12334000  0.71112000  1.0 0.9655454928
Cd  Cd7  1  0.12666000  0.82058000  0.51388000  1.0 0.9655454928
Cd  Cd8  1  0.51388000  0.53888000  0.12666000  1.0 0.9655454928
Cd  Cd9  1  0.84974000  0.63528000  0.20286000  1.0 1.0602028543
Cd  Cd10  1  0.20286000  0.31212000  0.84974000  1.0 1.0602028543
Cd  Cd11  1  0.93788000  0.04714000  0.61472000  1.0 1.0602028543
Cd  Cd12  1  0.61472000  0.40026000  0.93788000  1.0 1.0602028543
H  H1  1  0.49914000  0.23122000  0.16594000  1.0 0.2920617485
H  H2  1  0.16594000  0.10370000  0.49914000  1.0 0.2920617485
H  H3  1  0.14630000  0.08406000  0.01878000  1.0 0.2920617485
H  H4  1  0.01878000  0.75086000  0.14630000  1.0 0.2920617485
H  H5  1  0.48737000  0.20491000  0.21953000  1.0 0.2920617485
H  H6  1  0.21953000  0.08819000  0.48737000  1.0 0.2920617485
H  H7  1  0.16181000  0.03047000  0.04509000  1.0 0.2920617485
H  H8  1  0.04509000  0.76263000  0.16181000  1.0 0.2920617485
H  H9  1  0.11527000  0.40749000  0.37513000  1.0 0.129604549
H  H10  1  0.37513000  0.10211000  0.11527000  1.0 0.129604549
H  H11  1  0.14789000  0.87487000  0.84251000  1.0 0.1575943144
H  H12  1  0.84251000  0.13473000  0.14789000  1.0 0.129604549
H  H13  1  0.08847000  0.40499000  0.44713000  1.0 0.1575943144
H  H14  1  0.44713000  0.05941000  0.08847000  1.0 0.1575943144
H  H15  1  0.19059000  0.80287000  0.84501000  1.0 0.1899190271
H  H16  1  0.84501000  0.16153000  0.19059000  1.0 0.1575943144
H  H17  1  0.01453000  0.01487000  0.41399000  1.0 0.1209564664
H  H18  1  0.41399000  0.55661000  0.01453000  1.0 0.1209564664
H  H19  1  0.69339000  0.83601000  0.23513000  1.0 0.1209564664
H  H20  1  0.23513000  0.23547000  0.69339000  1.0 0.1209564664
H  H21  1  0.39374000  0.85356000  0.01228000  1.0 0.2505399758
H  H22  1  0.01228000  0.74042000  0.39374000  1.0 0.2505399758
H  H23  1  0.50958000  0.23772000  0.39644000  1.0 0.2505399758
H  H24  1  0.39644000  0.85626000  0.50958000  1.0 0.2505399758
H  H25  1  0.34502000  0.86638000  0.07616000  1.0 0.2505399758
H  H26  1  0.07616000  0.71244000  0.34502000  1.0 0.2505399758
H  H27  1  0.53756000  0.17384000  0.38362000  1.0 0.2505399758
H  H28  1  0.38362000  0.90498000  0.53756000  1.0 0.2505399758
H  H29  1  0.02530000  0.05788000  0.33105000  1.0 0.1209564664
H  H30  1  0.33105000  0.58576000  0.02531000  1.0 0.1209564664
H  H31  1  0.66425000  0.91894000  0.19212000  1.0 0.1209564664
H  H32  1  0.19212000  0.22469000  0.66424000  1.0 0.1209564664
H  H33  1  0.22769000  0.85647000  0.35437000  1.0 0.129604549
H  H34  1  0.35437000  0.56147000  0.22769000  1.0 0.129604549
H  H35  1  0.68853000  0.89563000  0.39353000  1.0 0.129604549
H  H36  1  0.39353000  0.02231000  0.68853000  1.0 0.129604549
H  H37  1  0.10044000  0.05008000  0.23666000  1.0 0.1209564664
H  H38  1  0.23666000  0.61282000  0.10044000  1.0 0.1209564664
H  H39  1  0.63718000  0.01334000  0.19992000  1.0 0.1209564664
H  H40  1  0.19992000  0.14956000  0.63718000  1.0 0.1209564664
H  H41  1  0.30034000  0.90790000  0.19156000  1.0 0.0993744745
H  H42  1  0.19156000  0.60020000  0.30034000  1.0 0.0993744745
H  H43  1  0.64980000  0.05844000  0.34210000  1.0 0.0993744745
H  H44  1  0.34210000  0.94966000  0.64980000  1.0 0.0993744745
H  H45  1  0.29944000  0.85514000  0.26200000  1.0 0.1107588848
H  H46  1  0.26200000  0.58342000  0.29944000  1.0 0.1107588848
H  H47  1  0.66658000  0.98800000  0.39486000  1.0 0.1107588848
H  H48  1  0.39486000  0.95056000  0.66658000  1.0 0.1107588848
H  H49  1  0.08346000  0.13670000  0.24432000  1.0 0.1209564664
H  H50  1  0.24432000  0.53552000  0.08346000  1.0 0.1209564664
H  H51  1  0.71448000  0.00568000  0.11330000  1.0 0.1209564664
H  H52  1  0.11330000  0.16654000  0.71448000  1.0 0.1209564664
H  H53  1  0.20126000  0.10980000  0.04690000  1.0 0.1209564664
H  H54  1  0.04690000  0.64204000  0.20126000  1.0 0.1209564664
H  H55  1  0.60796000  0.20310000  0.14020000  1.0 0.1209564664
H  H56  1  0.14020000  0.04874000  0.60796000  1.0 0.1209564664
H  H57  1  0.32370000  0.02542000  0.96996000  1.0 0.129604549
H  H58  1  0.96996000  0.68092000  0.32370000  1.0 0.129604549
H  H59  1  0.56908000  0.28004000  0.22458000  1.0 0.129604549
H  H60  1  0.22458000  0.92630000  0.56908000  1.0 0.129604549
H  H61  1  0.40824000  0.00710000  0.86164000  1.0 0.1209564664
H  H62  1  0.86164000  0.72302000  0.40824000  1.0 0.1209564664
H  H63  1  0.52698000  0.38836000  0.24290000  1.0 0.1209564664
H  H64  1  0.24290000  0.84176000  0.52698000  1.0 0.1209564664
H  H65  1  0.50487000  0.94389000  0.72915000  1.0 0.1383390041
H  H66  1  0.72915000  0.82209000  0.50487000  1.0 0.1383390041
H  H67  1  0.42791000  0.52085000  0.30611000  1.0 0.1383390041
H  H68  1  0.30611000  0.74513000  0.42791000  1.0 0.1383390041
H  H69  1  0.56007000  0.78485000  0.67185000  1.0 0.1107588848
H  H70  1  0.67185000  0.98323000  0.56007000  1.0 0.1107588848
H  H71  1  0.26677000  0.57815000  0.46515000  1.0 0.1107588848
H  H72  1  0.46515000  0.68993000  0.26677000  1.0 0.1107588848
H  H73  1  0.47271000  0.81073000  0.77229000  1.0 0.1107588848
H  H74  1  0.77229000  0.94427000  0.47271000  1.0 0.1107588848
H  H75  1  0.30573000  0.47771000  0.43927000  1.0 0.1107588848
H  H76  1  0.43927000  0.77729000  0.30573000  1.0 0.1107588848
H  H77  1  0.37538000  0.87028000  0.91404000  1.0 0.1107588848
H  H78  1  0.91404000  0.84030000  0.37538000  1.0 0.1107588848
H  H79  1  0.40970000  0.33596000  0.37972000  1.0 0.1107588848
H  H80  1  0.37972000  0.87462000  0.40970000  1.0 0.1107588848
H  H81  1  0.84885000  0.49733000  0.36905000  1.0 0.1107588848
H  H82  1  0.36905000  0.28477000  0.84885000  1.0 0.1107588848
H  H83  1  0.96523000  0.88095000  0.75267000  1.0 0.1107588848
H  H84  1  0.75267000  0.40115000  0.96523000  1.0 0.1107588848
H  H85  1  0.89764000  0.49456000  0.15738000  1.0 0.129604549
H  H86  1  0.15738000  0.45042000  0.89764000  1.0 0.129604549
H  H87  1  0.79958000  0.09262000  0.75544000  1.0 0.129604549
H  H88  1  0.75544000  0.35236000  0.79958000  1.0 0.129604549
H  H89  1  0.99709000  0.35977000  0.09285000  1.0 0.1209564664
H  H90  1  0.09285000  0.55029000  0.99709000  1.0 0.1209564664
H  H91  1  0.69971000  0.15715000  0.89023000  1.0 0.1209564664
H  H92  1  0.89023000  0.25291000  0.69971000  1.0 0.1209564664
H  H93  1  0.92296000  0.37806000  0.37442000  1.0 0.1209564664
H  H94  1  0.37442000  0.32456000  0.92296000  1.0 0.1209564664
H  H95  1  0.92544000  0.87558000  0.87194000  1.0 0.1209564664
H  H96  1  0.87194000  0.32704000  0.92544000  1.0 0.1209564664
H  H97  1  0.02240000  0.24326000  0.30990000  1.0 0.1107588848
H  H98  1  0.30990000  0.42444000  0.02240000  1.0 0.1107588848
H  H99  1  0.82556000  0.94010000  0.00674000  1.0 0.1107588848
H  H100  1  0.00674000  0.22760000  0.82556000  1.0 0.1107588848
H  H101  1  0.07120000  0.24048000  0.09822000  1.0 0.1209564664
H  H102  1  0.09822000  0.59010000  0.07120000  1.0 0.1209564664
H  H103  1  0.65990000  0.15178000  0.00952000  1.0 0.1209564664
H  H104  1  0.00952000  0.17880000  0.65990000  1.0 0.1209564664
H  H105  1  0.17735000  0.36434000  0.02259000  1.0 0.0993744745
H  H106  1  0.02259000  0.43572000  0.17735000  1.0 0.0993744745
H  H107  1  0.81427000  0.22741000  0.88567000  1.0 0.0993744745
H  H108  1  0.88567000  0.07265000  0.81427000  1.0 0.0993744745
H  H109  1  0.98949000  0.45585000  0.18545000  1.0 0.0795609078
H  H110  1  0.18545000  0.36921000  0.98949000  1.0 0.0795609078
H  H111  1  0.88079000  0.06455000  0.79415000  1.0 0.0795609078
H  H112  1  0.79415000  0.26051000  0.88079000  1.0 0.0795609078
H  H113  1  0.03638000  0.40298000  0.25900000  1.0 0.129604549
H  H114  1  0.25900000  0.30164000  0.03638000  1.0 0.129604549
H  H115  1  0.94836000  0.99100000  0.84702000  1.0 0.129604549
H  H116  1  0.84702000  0.21362000  0.94836000  1.0 0.129604549
H  H117  1  0.27491000  0.29005000  0.03975000  1.0 0.1107588848
H  H118  1  0.03975000  0.39529000  0.27491000  1.0 0.1107588848
H  H119  1  0.85471000  0.21025000  0.95995000  1.0 0.1107588848
H  H120  1  0.95995000  0.97509000  0.85471000  1.0 0.1107588848
H  H121  1  0.32179000  0.23717000  0.11331000  1.0 0.0714813176
H  H122  1  0.11331000  0.32773000  0.32179000  1.0 0.0795609078
H  H123  1  0.92227000  0.13669000  0.01283000  1.0 0.0714813176
H  H124  1  0.01283000  0.92821000  0.92227000  1.0 0.0795609078
H  H125  1  0.13394000  0.32870000  0.27616000  1.0 0.0714813176
H  H126  1  0.27616000  0.26120000  0.13394000  1.0 0.0714813176
H  H127  1  0.98880000  0.97384000  0.92130000  1.0 0.0714813176
H  H128  1  0.92130000  0.11606000  0.98880000  1.0 0.0714813176
H  H129  1  0.36713000  0.13391000  0.15411000  1.0 0.1107588848
H  H130  1  0.15411000  0.34485000  0.36713000  1.0 0.1107588848
H  H131  1  0.90515000  0.09589000  0.11609000  1.0 0.1107588848
H  H132  1  0.11609000  0.88287000  0.90515000  1.0 0.1209564664
H  H133  1  0.35731000  0.14749000  0.34719000  1.0 0.1209564664
H  H134  1  0.34719000  0.14801000  0.35731000  1.0 0.1209564664
H  H135  1  0.10199000  0.90281000  0.10251000  1.0 0.129604549
H  H136  1  0.10251000  0.89269000  0.10199000  1.0 0.129604549
H  H137  1  0.03110000  0.45242000  0.74072000  1.0 0.129604549
H  H138  1  0.74072000  0.77576000  0.03110000  1.0 0.129604549
H  H139  1  0.47424000  0.50928000  0.79758000  1.0 0.129604549
H  H140  1  0.79758000  0.21890000  0.47424000  1.0 0.129604549
H  H141  1  0.23003000  0.33077000  0.67501000  1.0 0.1209564664
H  H142  1  0.67501000  0.76419000  0.23003000  1.0 0.1209564664
H  H143  1  0.48581000  0.57499000  0.91923000  1.0 0.1209564664
H  H144  1  0.91923000  0.01997000  0.48581000  1.0 0.1209564664
H  H145  1  0.29584000  0.26466000  0.54014000  1.0 0.1107588848
H  H146  1  0.54014000  0.89936000  0.29584000  1.0 0.1107588848
H  H147  1  0.35064000  0.70986000  0.98534000  1.0 0.1107588848
H  H148  1  0.98534000  0.95416000  0.35064000  1.0 0.1107588848
H  H149  1  0.03066000  0.42964000  0.64006000  1.0 0.1209564664
H  H150  1  0.64006000  0.89964000  0.03066000  1.0 0.1209564664
H  H151  1  0.35036000  0.60994000  0.82036000  1.0 0.1209564664
H  H152  1  0.82036000  0.21934000  0.35036000  1.0 0.1209564664
H  H153  1  0.09646000  0.36354000  0.50518000  1.0 0.0993744745
H  H154  1  0.50518000  0.03482000  0.09646000  1.0 0.0993744745
H  H155  1  0.21518000  0.74482000  0.88646000  1.0 0.0993744745
H  H156  1  0.88646000  0.15354000  0.21518000  1.0 0.0993744745
H  H157  1  0.29539000  0.24189000  0.43947000  1.0 0.0993744745
H  H158  1  0.43947000  0.02325000  0.29539000  1.0 0.0993744745
H  H159  1  0.22675000  0.81053000  0.00811000  1.0 0.0993744745
H  H160  1  0.00811000  0.95461000  0.22675000  1.0 0.0993744745
H  H161  1  0.01467000  0.54705000  0.20744000  1.0 0.1209564664
H  H162  1  0.20744000  0.23083000  0.01467000  1.0 0.1209564664
H  H163  1  0.01918000  0.04256000  0.70295000  1.0 0.1209564664
H  H164  1  0.70295000  0.23533000  0.01917000  1.0 0.1209564664
H  H165  1  0.90579000  0.59955000  0.43841000  1.0 0.129604549
H  H166  1  0.43841000  0.05625000  0.90579000  1.0 0.129604549
H  H167  1  0.19375000  0.81159000  0.65045000  1.0 0.1209564664
H  H168  1  0.65045000  0.34421000  0.19375000  1.0 0.129604549
H  H169  1  0.01111000  0.53131000  0.42863000  1.0 0.1107588848
H  H170  1  0.42863000  0.02895000  0.01111000  1.0 0.1107588848
H  H171  1  0.22105000  0.82137000  0.71869000  1.0 0.1107588848
H  H172  1  0.71869000  0.23889000  0.22105000  1.0 0.1107588848
H  H173  1  0.14085000  0.47067000  0.13012000  1.0 0.1107588848
H  H174  1  0.13012000  0.25837000  0.14086000  1.0 0.1107588848
H  H175  1  0.99164000  0.11988000  0.77933000  1.0 0.1107588848
H  H176  1  0.77933000  0.10915000  0.99163000  1.0 0.1107588848
H  H177  1  0.24619000  0.40243000  0.12031000  1.0 0.1107588848
H  H178  1  0.12031000  0.23107000  0.24619000  1.0 0.1107588848
H  H179  1  0.01893000  0.12969000  0.84757000  1.0 0.1107588848
H  H180  1  0.84757000  0.00381000  0.01893000  1.0 0.1107588848
H  H181  1  0.13730000  0.45492000  0.35130000  1.0 0.1107588848
H  H182  1  0.35130000  0.05648000  0.13730000  1.0 0.1107588848
H  H183  1  0.19352000  0.89870000  0.79508000  1.0 0.1107588848
H  H184  1  0.79508000  0.11270000  0.19352000  1.0 0.1107588848
H  H185  1  0.28776000  0.41196000  0.16332000  1.0 0.1209564664
H  H186  1  0.16332000  0.13696000  0.28776000  1.0 0.1209564664
H  H187  1  0.11304000  0.08668000  0.83804000  1.0 0.1209564664
H  H188  1  0.83804000  0.96224000  0.11304000  1.0 0.1209564664
H  H189  1  0.28728000  0.31234000  0.28424000  1.0 0.129604549
H  H190  1  0.28424000  0.11614000  0.28728000  1.0 0.129604549
H  H191  1  0.13386000  0.96576000  0.93766000  1.0 0.129604549
H  H192  1  0.93766000  0.96272000  0.13386000  1.0 0.129604549
H  H193  1  0.44704000  0.14472000  0.22962000  1.0 0.129604549
H  H194  1  0.22962000  0.17862000  0.44704000  1.0 0.129604549
H  H195  1  0.07138000  0.02038000  0.10528000  1.0 0.129604549
H  H196  1  0.10528000  0.80296000  0.07138000  1.0 0.129604549
H  H197  1  0.49064000  0.07502000  0.29312000  1.0 0.1209564664
H  H198  1  0.29312000  0.14122000  0.49064000  1.0 0.1209564664
H  H199  1  0.10878000  0.95688000  0.17498000  1.0 0.1209564664
H  H200  1  0.17498000  0.75936000  0.10878000  1.0 0.1209564664
H  H201  1  0.35813000  0.30639000  0.37609000  1.0 0.129604549
H  H202  1  0.37609000  0.95939000  0.35813000  1.0 0.129604549
H  H203  1  0.29061000  0.87391000  0.94361000  1.0 0.129604549
H  H204  1  0.94361000  0.89187000  0.29061000  1.0 0.129604549
H  H205  1  0.35739000  0.29857000  0.49247000  1.0 0.1209564664
H  H206  1  0.49247000  0.85157000  0.35739000  1.0 0.1209564664
H  H207  1  0.39843000  0.75753000  0.95143000  1.0 0.1209564664
H  H208  1  0.95143000  0.89261000  0.39843000  1.0 0.1209564664
H  H209  1  0.40664000  0.22732000  0.55438000  1.0 0.1107588848
H  H210  1  0.55438000  0.81166000  0.40664000  1.0 0.1107588848
H  H211  1  0.43834000  0.69562000  0.02268000  1.0 0.1107588848
H  H212  1  0.02268000  0.84336000  0.43834000  1.0 0.1107588848
H  H213  1  0.49500000  0.06114000  0.40798000  1.0 0.1383390041
H  H214  1  0.40798000  0.03588000  0.49500000  1.0 0.1383390041
H  H215  1  0.21412000  0.84202000  0.18886000  1.0 0.1383390041
H  H216  1  0.18886000  0.75500000  0.21412000  1.0 0.1383390041
H  H217  1  0.39298000  0.38308000  0.22870000  1.0 0.1107588848
H  H218  1  0.22870000  0.99524000  0.39298000  1.0 0.1107588848
H  H219  1  0.25476000  0.02130000  0.86692000  1.0 0.1107588848
H  H220  1  0.86692000  0.85702000  0.25476000  1.0 0.1107588848
H  H221  1  0.45285000  0.38863000  0.16047000  1.0 0.1209564664
H  H222  1  0.16047000  0.99805000  0.45285000  1.0 0.1209564664
H  H223  1  0.25195000  0.08953000  0.86137000  1.0 0.1209564664
H  H224  1  0.86137000  0.79715000  0.25195000  1.0 0.1209564664
H  H225  1  0.44723000  0.30099000  0.02243000  1.0 0.129604549
H  H226  1  0.02243000  0.22935000  0.44723000  1.0 0.129604549
H  H227  1  0.02065000  0.22757000  0.94901000  1.0 0.129604549
H  H228  1  0.94901000  0.80277000  0.02065000  1.0 0.129604549
H  H229  1  0.50271000  0.30079000  0.90755000  1.0 0.1209564664
H  H230  1  0.90755000  0.28894000  0.50272000  1.0 0.1209564664
H  H231  1  0.96106000  0.34245000  0.94920000  1.0 0.1209564664
H  H232  1  0.94921000  0.74728000  0.96105000  1.0 0.1209564664
H  H233  1  0.58174000  0.28358000  0.83902000  1.0 0.129604549
H  H234  1  0.83902000  0.29566000  0.58174000  1.0 0.129604549
H  H235  1  0.95434000  0.41098000  0.96642000  1.0 0.129604549
H  H236  1  0.96642000  0.66826000  0.95434000  1.0 0.129604549
H  H237  1  0.51946000  0.37566000  0.04188000  1.0 0.129604549
H  H238  1  0.04188000  0.06300000  0.51946000  1.0 0.129604549
H  H239  1  0.18700000  0.20812000  0.87434000  1.0 0.129604549
H  H240  1  0.87434000  0.73054000  0.18700000  1.0 0.129604549
H  H241  1  0.61499000  0.52513000  0.81301000  1.0 0.129604549
H  H242  1  0.60775000  0.57665000  0.79139000  1.0 0.1107588848
H  H243  1  0.69155000  0.48107000  0.73369000  1.0 0.1209564664
H  H244  1  0.56072000  0.62676000  0.90819000  1.0 0.1107588848
H  H245  1  0.60231000  0.56795000  0.94319000  1.0 0.0993744745
H  H246  1  0.56913000  0.57295000  0.91051000  1.0 0.129604549
H  H247  1  0.71455000  0.46861000  0.81949000  1.0 0.2429654957
H  H248  1  0.67990000  0.53740000  0.81366000  1.0 0.2198576802
H  H249  1  0.81301000  0.04687000  0.61499000  1.0 0.129604549
H  H250  1  0.79139000  0.02421000  0.60775000  1.0 0.1107588848
H  H251  1  0.73369000  0.09369000  0.69155000  1.0 0.1209564664
H  H252  1  0.90819000  0.90433000  0.56073000  1.0 0.1107588848
H  H253  1  0.94319000  0.88655000  0.60231000  1.0 0.0993744745
H  H254  1  0.91051000  0.94741000  0.56913000  1.0 0.129604549
H  H255  1  0.81949000  0.99735000  0.71455000  1.0 0.2429654957
H  H256  1  0.81366000  0.96904000  0.67990000  1.0 0.2198576802
H  H257  1  0.20313000  0.43699000  0.72487000  1.0 0.129604549
H  H258  1  0.22579000  0.45861000  0.67335000  1.0 0.1107588848
H  H259  1  0.15631000  0.51631000  0.76893000  1.0 0.1209564664
H  H260  1  0.34567000  0.34181000  0.62325000  1.0 0.1107588848
H  H261  1  0.36345000  0.30681000  0.68205000  1.0 0.0993744745
H  H262  1  0.30259000  0.33949000  0.67705000  1.0 0.129604549
H  H263  1  0.25265000  0.43051000  0.78139000  1.0 0.2429654957
H  H264  1  0.28096000  0.43634000  0.71260000  1.0 0.2198576802
H  H265  1  0.72487000  0.63501000  0.20313000  1.0 0.129604549
H  H266  1  0.67335000  0.64225000  0.22579000  1.0 0.1107588848
H  H267  1  0.76893000  0.55845000  0.15631000  1.0 0.1209564664
H  H268  1  0.62324000  0.68927000  0.34567000  1.0 0.1107588848
H  H269  1  0.68205000  0.64769000  0.36345000  1.0 0.0993744745
H  H270  1  0.67705000  0.68087000  0.30259000  1.0 0.129604549
H  H271  1  0.78139000  0.53545000  0.25265000  1.0 0.2429654957
H  H272  1  0.71260000  0.57010000  0.28096000  1.0 0.2198576802
H  H273  1  0.42693000  0.76709000  0.68675000  1.0 0.2117123628
H  H274  1  0.41437000  0.81643000  0.66079000  1.0 0.2117123628
H  H275  1  0.37040000  0.82936000  0.79898000  1.0 0.1209564664
H  H276  1  0.29345000  0.91231000  0.80714000  1.0 0.129604549
H  H277  1  0.36862000  0.87470000  0.76606000  1.0 0.1209564664
H  H278  1  0.39740000  0.78172000  0.61380000  1.0 0.1209564664
H  H279  1  0.32412000  0.87610000  0.65612000  1.0 0.129604549
H  H280  1  0.31712000  0.84138000  0.70394000  1.0 0.1383390041
H  H281  1  0.68676000  0.11922000  0.42692000  1.0 0.2117123628
H  H282  1  0.66079000  0.10841000  0.41437000  1.0 0.2117123628
H  H283  1  0.79898000  0.00126000  0.37040000  1.0 0.1209564664
H  H284  1  0.80714000  0.98711000  0.29345000  1.0 0.129604549
H  H285  1  0.76606000  0.99062000  0.36862000  1.0 0.1209564664
H  H286  1  0.61380000  0.20708000  0.39740000  1.0 0.1209564664
H  H287  1  0.65612000  0.14366000  0.32412000  1.0 0.129604549
H  H288  1  0.70394000  0.13756000  0.31712000  1.0 0.1383390041
H  H289  1  0.13077000  0.56324000  0.48290000  1.0 0.2117123628
H  H290  1  0.14159000  0.58921000  0.43357000  1.0 0.2117123628
H  H291  1  0.24874000  0.45102000  0.42064000  1.0 0.1209564664
H  H292  1  0.26288000  0.44286000  0.33770000  1.0 0.129604549
H  H293  1  0.25938000  0.48394000  0.37530000  1.0 0.1209564664
H  H294  1  0.04292000  0.63620000  0.46828000  1.0 0.1209564664
H  H295  1  0.10634000  0.59388000  0.37390000  1.0 0.129604549
H  H296  1  0.11244000  0.54606000  0.40862000  1.0 0.1383390041
H  H297  1  0.48291000  0.82307000  0.13078000  1.0 0.2117123628
H  H298  1  0.43357000  0.83563000  0.14159000  1.0 0.2117123628
H  H299  1  0.42064000  0.87960000  0.24874000  1.0 0.1209564664
H  H300  1  0.33770000  0.95655000  0.26288000  1.0 0.129604549
H  H301  1  0.37530000  0.88138000  0.25938000  1.0 0.1209564664
H  H302  1  0.46828000  0.85260000  0.04292000  1.0 0.1209564664
H  H303  1  0.37390000  0.92588000  0.10634000  1.0 0.129604549
H  H304  1  0.40862000  0.93288000  0.11244000  1.0 0.1383390041
H  H305  1  0.56956000  0.60194000  0.02510000  1.0 0.1899190271
H  H306  1  0.52538000  0.61814000  0.10446000  1.0 0.2631977374
H  H307  1  0.47350000  0.73270000  0.13834000  1.0 0.1209564664
H  H308  1  0.42213000  0.74451000  0.14323000  1.0 0.129604549
H  H309  1  0.48385000  0.71659000  0.06021000  1.0 0.1209564664
H  H310  1  0.62587000  0.54511000  0.09085000  1.0 0.1464681202
H  H311  1  0.56723000  0.63151000  0.13949000  1.0 0.1209564664
H  H312  1  0.63764000  0.57678000  0.04430000  1.0 0.1209564664
H  H313  1  0.02510000  0.80340000  0.56956000  1.0 0.1899190271
H  H314  1  0.10446000  0.75202000  0.52538000  1.0 0.2631977374
H  H315  1  0.13834000  0.65546000  0.47350000  1.0 0.1209564664
H  H316  1  0.14323000  0.69013000  0.42213000  1.0 0.129604549
H  H317  1  0.06021000  0.73935000  0.48385000  1.0 0.1209564664
H  H318  1  0.09085000  0.73817000  0.62587000  1.0 0.1464681202
H  H319  1  0.13949000  0.66177000  0.56723000  1.0 0.1209564664
H  H320  1  0.04430000  0.74128000  0.63764000  1.0 0.1209564664
H  H321  1  0.44660000  0.22490000  0.64806000  1.0 0.1899190271
H  H322  1  0.49798000  0.14554000  0.63186000  1.0 0.2631977374
H  H323  1  0.59454000  0.11166000  0.51730000  1.0 0.1209564664
H  H324  1  0.55987000  0.10677000  0.50549000  1.0 0.129604549
H  H325  1  0.51065000  0.18979000  0.53341000  1.0 0.1209564664
H  H326  1  0.51183000  0.15915000  0.70489000  1.0 0.1464681202
H  H327  1  0.58823000  0.11051000  0.61849000  1.0 0.1209564664
H  H328  1  0.50872000  0.20570000  0.67322000  1.0 0.1209564664
H  H329  1  0.64806000  0.68044000  0.44660000  1.0 0.1899190271
H  H330  1  0.63186000  0.72462000  0.49798000  1.0 0.2631977374
H  H331  1  0.51730000  0.77650000  0.59454000  1.0 0.1209564664
H  H332  1  0.50549000  0.82787000  0.55987000  1.0 0.129604549
H  H333  1  0.53341000  0.76615000  0.51065000  1.0 0.1209564664
H  H334  1  0.70489000  0.62413000  0.51183000  1.0 0.1464681202
H  H335  1  0.61849000  0.68277000  0.58823000  1.0 0.1209564664
H  H336  1  0.67322000  0.61236000  0.50872000  1.0 0.1209564664
C  C1  1  0.12059000  0.89439000  0.43501000  1.0 0.5884272033
C  C2  1  0.43501000  0.55001000  0.12059000  1.0 0.5884272033
C  C3  1  0.69999000  0.81499000  0.35561000  1.0 0.5884272033
C  C4  1  0.35561000  0.12941000  0.69999000  1.0 0.5884272033
C  C5  1  0.12197000  0.92997000  0.38963000  1.0 -0.0203439963
C  C6  1  0.38963000  0.55843000  0.12197000  1.0 -0.0203439963
C  C7  1  0.69157000  0.86037000  0.32003000  1.0 -0.0203439963
C  C8  1  0.32003000  0.12803000  0.69157000  1.0 -0.0203439963
C  C9  1  0.05999000  0.99179000  0.38441000  1.0 -0.1001814692
C  C10  1  0.38441000  0.56381000  0.05999000  1.0 -0.1001814692
C  C11  1  0.68619000  0.86559000  0.25821000  1.0 -0.1001814692
C  C12  1  0.25821000  0.19001000  0.68619000  1.0 -0.1001814692
C  C13  1  0.06585000  0.01805000  0.33675000  1.0 -0.150277543
C  C14  1  0.33675000  0.57935000  0.06585000  1.0 -0.150277543
C  C15  1  0.67065000  0.91325000  0.23195000  1.0 -0.150277543
C  C16  1  0.23195000  0.18415000  0.67065000  1.0 -0.150277543
C  C17  1  0.13030000  0.98790000  0.29550000  1.0 0.0993744745
C  C18  1  0.29550000  0.58630000  0.13030000  1.0 0.0993744745
C  C19  1  0.66370000  0.95450000  0.26210000  1.0 0.0916838498
C  C20  1  0.26210000  0.11970000  0.66370000  1.0 0.0993744745
C  C21  1  0.19132000  0.92872000  0.30548000  1.0 0.0795609078
C  C22  1  0.30548000  0.57448000  0.19132000  1.0 0.0795609078
C  C23  1  0.67552000  0.94452000  0.32128000  1.0 0.0795609078
C  C24  1  0.32128000  0.05868000  0.67552000  1.0 0.0795609078
C  C25  1  0.18612000  0.89892000  0.35068000  1.0 -0.1599604272
C  C26  1  0.35068000  0.56428000  0.18612000  1.0 -0.1599604272
C  C27  1  0.68572000  0.89932000  0.35108000  1.0 -0.1599604272
C  C28  1  0.35108000  0.06388000  0.68572000  1.0 -0.1599604272
C  C29  1  0.13875000  0.01295000  0.24545000  1.0 -0.2193409419
C  C30  1  0.24545000  0.60285000  0.13875000  1.0 -0.2193409419
C  C31  1  0.64715000  0.00455000  0.23705000  1.0 -0.2193409419
C  C32  1  0.23705000  0.11125000  0.64715000  1.0 -0.2193409419
C  C33  1  0.20142000  0.98622000  0.20658000  1.0 0.0795609078
C  C34  1  0.20658000  0.60578000  0.20142000  1.0 0.0795609078
C  C35  1  0.64422000  0.04342000  0.26378000  1.0 0.0795609078
C  C36  1  0.26378000  0.04858000  0.64422000  1.0 0.0795609078
C  C37  1  0.25654000  0.92874000  0.21746000  1.0 -0.1708981503
C  C38  1  0.21746000  0.59726000  0.25654000  1.0 -0.1708981503
C  C39  1  0.65274000  0.03254000  0.32126000  1.0 -0.1708981503
C  C40  1  0.32126000  0.99346000  0.65274000  1.0 -0.1708981503
C  C41  1  0.25568000  0.89808000  0.26132000  1.0 -0.1388650811
C  C42  1  0.26132000  0.58492000  0.25568000  1.0 -0.1388650811
C  C43  1  0.66508000  0.98868000  0.35192000  1.0 -0.1388650811
C  C44  1  0.35192000  0.99432000  0.66508000  1.0 -0.1388650811
C  C45  1  0.20187000  0.01967000  0.15833000  1.0 -0.0203439963
C  C46  1  0.15833000  0.62013000  0.20187000  1.0 -0.0203439963
C  C47  1  0.62987000  0.09167000  0.23033000  1.0 -0.0285658285
C  C48  1  0.23033000  0.04813000  0.62987000  1.0 -0.0203439963
C  C49  1  0.13133000  0.10353000  0.19267000  1.0 -0.2193409419
C  C50  1  0.19267000  0.57247000  0.13133000  1.0 -0.2193409419
C  C51  1  0.67753000  0.05733000  0.14647000  1.0 -0.2193409419
C  C52  1  0.14647000  0.11867000  0.67753000  1.0 -0.2193409419
C  C53  1  0.12946000  0.13986000  0.15274000  1.0 0.0714813176
C  C54  1  0.15274000  0.57794000  0.12946000  1.0 0.0714813176
C  C55  1  0.67206000  0.09726000  0.11014000  1.0 0.0714813176
C  C56  1  0.11014000  0.12054000  0.67206000  1.0 0.0714813176
C  C57  1  0.20025000  0.08725000  0.07555000  1.0 -0.2193409419
C  C58  1  0.07555000  0.63695000  0.20025000  1.0 -0.2193409419
C  C59  1  0.61305000  0.17445000  0.16275000  1.0 -0.2193409419
C  C60  1  0.16275000  0.04975000  0.61305000  1.0 -0.2193409419
C  C61  1  0.26946000  0.00446000  0.03734000  1.0 -0.0203439963
C  C62  1  0.03734000  0.68874000  0.26946000  1.0 -0.0203439963
C  C63  1  0.56126000  0.21266000  0.24554000  1.0 -0.0203439963
C  C64  1  0.24554000  0.98054000  0.56126000  1.0 -0.0203439963
C  C65  1  0.27063000  0.97063000  0.07977000  1.0 0.1383390041
C  C66  1  0.07977000  0.67897000  0.27063000  1.0 0.1383390041
C  C67  1  0.57103000  0.17023000  0.27937000  1.0 0.1383390041
C  C68  1  0.27937000  0.97937000  0.57103000  1.0 0.1383390041
C  C69  1  0.33821000  0.95701000  0.95459000  1.0 0.0795609078
C  C70  1  0.95459000  0.75019000  0.33821000  1.0 0.0795609078
C  C71  1  0.49981000  0.29541000  0.29299000  1.0 0.0795609078
C  C72  1  0.29299000  0.91179000  0.49981000  1.0 0.0795609078
C  C73  1  0.35597000  0.97957000  0.92983000  1.0 -0.2007038589
C  C74  1  0.92983000  0.73463000  0.35597000  1.0 -0.2007038589
C  C75  1  0.51537000  0.32017000  0.27043000  1.0 -0.2007038589
C  C76  1  0.27043000  0.89403000  0.51537000  1.0 -0.2007038589
C  C77  1  0.41686000  0.94286000  0.85134000  1.0 0.0916838498
C  C78  1  0.85134000  0.78894000  0.41686000  1.0 0.0916838498
C  C79  1  0.46106000  0.39866000  0.30714000  1.0 0.0916838498
C  C80  1  0.30714000  0.83314000  0.46106000  1.0 0.0916838498
C  C81  1  0.43680000  0.96320000  0.82380000  1.0 -0.150277543
C  C82  1  0.82380000  0.77620000  0.43680000  1.0 -0.150277543
C  C83  1  0.47380000  0.42620000  0.28680000  1.0 -0.150277543
C  C84  1  0.28680000  0.81320000  0.47380000  1.0 -0.150277543
C  C85  1  0.49600000  0.92440000  0.74400000  1.0 -0.0766396573
C  C86  1  0.74400000  0.83560000  0.49600000  1.0 -0.0766396573
C  C87  1  0.41440000  0.50600000  0.32560000  1.0 -0.0766396573
C  C88  1  0.32560000  0.75400000  0.41440000  1.0 -0.0766396573
C  C89  1  0.80474000  0.59254000  0.31466000  1.0 0.5110589141
C  C90  1  0.31466000  0.28806000  0.80474000  1.0 0.5110589141
C  C91  1  0.96194000  0.93534000  0.65746000  1.0 0.5110589141
C  C92  1  0.65746000  0.44526000  0.96194000  1.0 0.5110589141
C  C93  1  0.52540000  0.83320000  0.71040000  1.0 -0.2060105682
C  C94  1  0.71040000  0.93100000  0.52540000  1.0 -0.2060105682
C  C95  1  0.31900000  0.53960000  0.41680000  1.0 -0.2060105682
C  C96  1  0.41680000  0.72460000  0.31900000  1.0 -0.2060105682
C  C97  1  0.45950000  0.87770000  0.78930000  1.0 0.0795609078
C  C98  1  0.78930000  0.87350000  0.45950000  1.0 0.0795609078
C  C99  1  0.37650000  0.46070000  0.37230000  1.0 0.0795609078
C  C100  1  0.37230000  0.79050000  0.37650000  1.0 0.0795609078
C  C101  1  0.44380000  0.85380000  0.81240000  1.0 -0.1599604272
C  C102  1  0.81240000  0.89000000  0.44380000  1.0 -0.1599604272
C  C103  1  0.36000000  0.43760000  0.39620000  1.0 -0.1599604272
C  C104  1  0.39620000  0.80620000  0.36000000  1.0 -0.1599604272
C  C105  1  0.38290000  0.89090000  0.89870000  1.0 -0.1881251839
C  C106  1  0.89870000  0.82750000  0.38290000  1.0 -0.1881251839
C  C107  1  0.42250000  0.35130000  0.35910000  1.0 -0.1881251839
C  C108  1  0.35910000  0.86710000  0.42250000  1.0 -0.1881251839
C  C109  1  0.53940000  0.86300000  0.68900000  1.0 -0.0203439963
C  C110  1  0.68900000  0.90860000  0.53940000  1.0 -0.0203439963
C  C111  1  0.34140000  0.56100000  0.38700000  1.0 -0.0203439963
C  C112  1  0.38700000  0.71060000  0.34140000  1.0 -0.0203439963
C  C113  1  0.60780000  0.81180000  0.60000000  1.0 0.5615230972
C  C114  1  0.60000000  0.98040000  0.60780000  1.0 0.5615230972
C  C115  1  0.26960000  0.65000000  0.43820000  1.0 0.5615230972
C  C116  1  0.43820000  0.64220000  0.26960000  1.0 0.5615230972
C  C117  1  0.87894000  0.46942000  0.31298000  1.0 -0.2060105682
C  C118  1  0.31298000  0.33866000  0.87894000  1.0 -0.2060105682
C  C119  1  0.91134000  0.93702000  0.78058000  1.0 -0.2060105682
C  C120  1  0.78058000  0.37106000  0.91134000  1.0 -0.2060105682
C  C121  1  0.86385000  0.50867000  0.26933000  1.0 -0.0203439963
C  C122  1  0.26933000  0.35815000  0.86385000  1.0 -0.0203439963
C  C123  1  0.89185000  0.98067000  0.74133000  1.0 -0.0203439963
C  C124  1  0.74133000  0.38615000  0.89185000  1.0 -0.0203439963
C  C125  1  0.90793000  0.46775000  0.18725000  1.0 -0.1708981503
C  C126  1  0.18725000  0.43707000  0.90793000  1.0 -0.1708981503
C  C127  1  0.81293000  0.06275000  0.78225000  1.0 -0.1708981503
C  C128  1  0.78225000  0.34207000  0.81293000  1.0 -0.1708981503
C  C129  1  0.96701000  0.38769000  0.14891000  1.0 -0.1792159044
C  C130  1  0.14891000  0.49639000  0.96701000  1.0 -0.1792159044
C  C131  1  0.75361000  0.10109000  0.86231000  1.0 -0.1792159044
C  C132  1  0.86231000  0.28299000  0.75361000  1.0 -0.1792159044
C  C133  1  0.98209000  0.34843000  0.19257000  1.0 0.0795609078
C  C134  1  0.19257000  0.47691000  0.98209000  1.0 0.0795609078
C  C135  1  0.77309000  0.05743000  0.90157000  1.0 0.0795609078
C  C136  1  0.90157000  0.26791000  0.77309000  1.0 0.0795609078
C  C137  1  0.93801000  0.38935000  0.27465000  1.0 0.0714813176
C  C138  1  0.27465000  0.39799000  0.93801000  1.0 0.0714813176
C  C139  1  0.85201000  0.97535000  0.86065000  1.0 0.0714813176
C  C140  1  0.86065000  0.31199000  0.85201000  1.0 0.0714813176
C  C141  1  0.95309000  0.35009000  0.31831000  1.0 -0.150277543
C  C142  1  0.31831000  0.37851000  0.95309000  1.0 -0.150277543
C  C143  1  0.87149000  0.93169000  0.89991000  1.0 -0.150277543
C  C144  1  0.89991000  0.29691000  0.87149000  1.0 -0.150277543
C  C145  1  0.01216000  0.27002000  0.27998000  1.0 -0.1599604272
C  C146  1  0.27998000  0.43784000  0.01216000  1.0 -0.1599604272
C  C147  1  0.81216000  0.97002000  0.97998000  1.0 -0.1599604272
C  C148  1  0.97998000  0.23784000  0.81216000  1.0 -0.1599604272
C  C149  1  0.05615000  0.22921000  0.19799000  1.0 0.0795609078
C  C150  1  0.19799000  0.51665000  0.05615000  1.0 0.0795609078
C  C151  1  0.73335000  0.05201000  0.02079000  1.0 0.0795609078
C  C152  1  0.02079000  0.19385000  0.73335000  1.0 0.0795609078
C  C153  1  0.04116000  0.26836000  0.15424000  1.0 -0.2007038589
C  C154  1  0.15424000  0.53624000  0.04116000  1.0 -0.2007038589
C  C155  1  0.71376000  0.09576000  0.98164000  1.0 -0.2007038589
C  C156  1  0.98164000  0.20884000  0.71376000  1.0 -0.2007038589
C  C157  1  0.04940000  0.45060000  0.04940000  1.0 0.4434670979
C  C158  1  0.79940000  0.20060000  0.79940000  1.0 0.4434670979
C  C159  1  0.14880000  0.37220000  0.07060000  1.0 -0.0029413067
C  C160  1  0.07060000  0.40840000  0.14880000  1.0 -0.0029413067
C  C161  1  0.84160000  0.17940000  0.87780000  1.0 -0.0077952218
C  C162  1  0.87780000  0.10120000  0.84160000  1.0 -0.0077952218
C  C163  1  0.07900000  0.41500000  0.09720000  1.0 0.0108994597
C  C164  1  0.09720000  0.40880000  0.07900000  1.0 0.0108994597
C  C165  1  0.84120000  0.15280000  0.83500000  1.0 0.0108994597
C  C166  1  0.83500000  0.17100000  0.84120000  1.0 0.0108994597
C  C167  1  0.03710000  0.42650000  0.16730000  1.0 -0.0493256125
C  C168  1  0.16730000  0.36910000  0.03710000  1.0 -0.0493256125
C  C169  1  0.88090000  0.08270000  0.82350000  1.0 -0.0493256125
C  C170  1  0.82350000  0.21290000  0.88090000  1.0 -0.0493256125
C  C171  1  0.06496000  0.39516000  0.21104000  1.0 -0.0864462679
C  C172  1  0.21104000  0.32884000  0.06496000  1.0 -0.0864462679
C  C173  1  0.92116000  0.03896000  0.85484000  1.0 -0.0864462679
C  C174  1  0.85484000  0.18504000  0.92116000  1.0 -0.0864462679
C  C175  1  0.13468000  0.35228000  0.18452000  1.0 -0.0029413067
C  C176  1  0.18452000  0.32852000  0.13468000  1.0 -0.0029413067
C  C177  1  0.92148000  0.06548000  0.89772000  1.0 -0.0029413067
C  C178  1  0.89772000  0.11532000  0.92148000  1.0 -0.0029413067
C  C179  1  0.17658000  0.34078000  0.11422000  1.0 0.0108994597
C  C180  1  0.11422000  0.36842000  0.17658000  1.0 0.0108994597
C  C181  1  0.88158000  0.13578000  0.90922000  1.0 0.0108994597
C  C182  1  0.90922000  0.07342000  0.88158000  1.0 0.0108994597
C  C183  1  0.24629000  0.29789000  0.08771000  1.0 -0.0704573965
C  C184  1  0.08771000  0.36811000  0.24629000  1.0 -0.0704573965
C  C185  1  0.88189000  0.16229000  0.95211000  1.0 -0.0704573965
C  C186  1  0.95211000  0.00371000  0.88189000  1.0 -0.0704573965
C  C187  1  0.27410000  0.26650000  0.13150000  1.0 -0.1191423685
C  C188  1  0.13150000  0.32790000  0.27410000  1.0 -0.1191423685
C  C189  1  0.92210000  0.11850000  0.98350000  1.0 -0.1191423685
C  C190  1  0.98350000  0.97590000  0.92210000  1.0 -0.1081462568
C  C191  1  0.23230000  0.27790000  0.20170000  1.0 0.0108994597
C  C192  1  0.20170000  0.28810000  0.23230000  1.0 0.0108994597
C  C193  1  0.96190000  0.04830000  0.97210000  1.0 0.0108994597
C  C194  1  0.97210000  0.01770000  0.96190000  1.0 0.0108994597
C  C195  1  0.16260000  0.32080000  0.22820000  1.0 0.0108994597
C  C196  1  0.22820000  0.28840000  0.16260000  1.0 0.0108994597
C  C197  1  0.96160000  0.02180000  0.92920000  1.0 0.0108994597
C  C198  1  0.92920000  0.08740000  0.96160000  1.0 0.0108994597
C  C199  1  0.25570000  0.24430000  0.25570000  1.0 0.0024596677
C  C200  1  0.00570000  0.99430000  0.00570000  1.0 -0.0203439963
C  C201  1  0.33730000  0.16410000  0.20910000  1.0 -0.0493256125
C  C202  1  0.20910000  0.28950000  0.33730000  1.0 -0.0493256125
C  C203  1  0.96050000  0.04090000  0.08590000  1.0 -0.0285658285
C  C204  1  0.08590000  0.91270000  0.96050000  1.0 0.0108994597
C  C205  1  0.37480000  0.12840000  0.24360000  1.0 0.0519756438
C  C206  1  0.24360000  0.25320000  0.37480000  1.0 0.0519756438
C  C207  1  0.99680000  0.00640000  0.12160000  1.0 0.0408178331
C  C208  1  0.12160000  0.87520000  0.99680000  1.0 -0.0285658285
C  C209  1  0.33150000  0.17210000  0.32390000  1.0 -0.1881251839
C  C210  1  0.32390000  0.17250000  0.33150000  1.0 -0.1881251839
C  C211  1  0.07750000  0.92610000  0.07790000  1.0 -0.1599604272
C  C212  1  0.07790000  0.91850000  0.07750000  1.0 -0.1599604272
C  C213  1  0.25020000  0.25200000  0.37000000  1.0 0.0620504738
C  C214  1  0.37000000  0.12780000  0.25020000  1.0 0.0620504738
C  C215  1  0.12220000  0.88000000  0.99800000  1.0 -0.0378591264
C  C216  1  0.99800000  0.99980000  0.12220000  1.0 0.0519756438
C  C217  1  0.08479000  0.41435000  0.70005000  1.0 -0.150277543
C  C218  1  0.70005000  0.80081000  0.08479000  1.0 -0.150277543
C  C219  1  0.44919000  0.54995000  0.83565000  1.0 -0.150277543
C  C220  1  0.83565000  0.16521000  0.44919000  1.0 -0.150277543
C  C221  1  0.12435000  0.39783000  0.72057000  1.0 -0.0077952218
C  C222  1  0.72057000  0.75725000  0.12435000  1.0 -0.0077952218
C  C223  1  0.49275000  0.52943000  0.85217000  1.0 -0.0077952218
C  C224  1  0.85217000  0.12565000  0.49275000  1.0 -0.0077952218
C  C225  1  0.20301000  0.34203000  0.66097000  1.0 -0.1297857253
C  C226  1  0.66097000  0.79399000  0.20301000  1.0 -0.1297857253
C  C227  1  0.45601000  0.58903000  0.90797000  1.0 -0.1297857253
C  C228  1  0.90797000  0.04699000  0.45601000  1.0 -0.1297857253
C  C229  1  0.24211000  0.30277000  0.58083000  1.0 -0.150277543
C  C230  1  0.58083000  0.87429000  0.24211000  1.0 -0.150277543
C  C231  1  0.37571000  0.66917000  0.94723000  1.0 -0.150277543
C  C232  1  0.94723000  0.00789000  0.37571000  1.0 -0.150277543
C  C233  1  0.20255000  0.31929000  0.56031000  1.0 0.0795609078
C  C234  1  0.56031000  0.91785000  0.20255000  1.0 0.0795609078
C  C235  1  0.33215000  0.68969000  0.93071000  1.0 0.0795609078
C  C236  1  0.93071000  0.04745000  0.33215000  1.0 0.0795609078
C  C237  1  0.12389000  0.37507000  0.61993000  1.0 0.0714813176
C  C238  1  0.61993000  0.88111000  0.12389000  1.0 0.0714813176
C  C239  1  0.36889000  0.63007000  0.87493000  1.0 0.0714813176
C  C240  1  0.87493000  0.12611000  0.36889000  1.0 0.0714813176
C  C241  1  0.08443000  0.39149000  0.59931000  1.0 -0.1297857253
C  C242  1  0.59931000  0.92477000  0.08443000  1.0 -0.1297857253
C  C243  1  0.32523000  0.65069000  0.85851000  1.0 -0.1388650811
C  C244  1  0.85851000  0.16557000  0.32523000  1.0 -0.1388650811
C  C245  1  0.12352000  0.35222000  0.51918000  1.0 -0.1792159044
C  C246  1  0.51918000  0.00508000  0.12352000  1.0 -0.1792159044
C  C247  1  0.24492000  0.73082000  0.89778000  1.0 -0.1708981503
C  C248  1  0.89778000  0.12648000  0.24492000  1.0 -0.1792159044
C  C249  1  0.20209000  0.29653000  0.45967000  1.0 0.0620504738
C  C250  1  0.45967000  0.04171000  0.20209000  1.0 0.0620504738
C  C251  1  0.20829000  0.79033000  0.95347000  1.0 0.0714813176
C  C252  1  0.95347000  0.04791000  0.20829000  1.0 0.0620504738
C  C253  1  0.24165000  0.28001000  0.48019000  1.0 -0.2400159364
C  C254  1  0.48019000  0.99815000  0.24165000  1.0 -0.2400159364
C  C255  1  0.25185000  0.76981000  0.96999000  1.0 -0.2475639781
C  C256  1  0.96999000  0.00835000  0.25185000  1.0 -0.2475639781
C  C257  1  0.08750000  0.43810000  0.80650000  1.0 0.5615230972
C  C258  1  0.80650000  0.66790000  0.08750000  1.0 0.5615230972
C  C259  1  0.58210000  0.44350000  0.81190000  1.0 0.5615230972
C  C260  1  0.81190000  0.16250000  0.58210000  1.0 0.5615230972
C  C261  1  0.88543000  0.61783000  0.32777000  1.0 0.5683358187
C  C262  1  0.32777000  0.16897000  0.88543000  1.0 0.5683358187
C  C263  1  0.08103000  0.92223000  0.63217000  1.0 0.5683358187
C  C264  1  0.63217000  0.36457000  0.08103000  1.0 0.5683358187
C  C265  1  0.01396000  0.54386000  0.25234000  1.0 -0.2621087631
C  C266  1  0.25234000  0.18984000  0.01396000  1.0 -0.2621087631
C  C267  1  0.06016000  0.99766000  0.70614000  1.0 -0.2621087631
C  C268  1  0.70614000  0.23604000  0.06016000  1.0 -0.2621087631
C  C269  1  0.95031000  0.57973000  0.32387000  1.0 -0.0203439963
C  C270  1  0.32387000  0.14609000  0.95031000  1.0 -0.0203439963
C  C271  1  0.10391000  0.92613000  0.67027000  1.0 -0.0203439963
C  C272  1  0.67027000  0.29969000  0.10391000  1.0 -0.0203439963
C  C273  1  0.94927000  0.57505000  0.38955000  1.0 -0.1191423685
C  C274  1  0.38955000  0.08613000  0.94927000  1.0 -0.1191423685
C  C275  1  0.16387000  0.86045000  0.67495000  1.0 -0.1191423685
C  C276  1  0.67495000  0.30073000  0.16387000  1.0 -0.1191423685
C  C277  1  0.01185000  0.53449000  0.38371000  1.0 -0.1599604272
C  C278  1  0.38371000  0.06995000  0.01185000  1.0 -0.1599604272
C  C279  1  0.18005000  0.86629000  0.71551000  1.0 -0.150277543
C  C280  1  0.71551000  0.23815000  0.18005000  1.0 -0.1599604272
C  C281  1  0.07550000  0.49862000  0.31218000  1.0 0.0795609078
C  C282  1  0.31218000  0.11370000  0.07550000  1.0 0.0795609078
C  C283  1  0.13630000  0.93782000  0.75138000  1.0 0.0795609078
C  C284  1  0.75138000  0.17450000  0.13630000  1.0 0.0795609078
C  C285  1  0.07654000  0.50330000  0.24650000  1.0 0.0620504738
C  C286  1  0.24650000  0.17366000  0.07654000  1.0 0.0620504738
C  C287  1  0.07634000  0.00350000  0.74670000  1.0 0.0620504738
C  C288  1  0.74670000  0.17346000  0.07634000  1.0 0.0620504738
C  C289  1  0.14017000  0.46743000  0.17497000  1.0 -0.2007038589
C  C290  1  0.17497000  0.21743000  0.14017000  1.0 -0.2007038589
C  C291  1  0.03257000  0.07503000  0.78257000  1.0 -0.2007038589
C  C292  1  0.78257000  0.10983000  0.03257000  1.0 -0.2060105682
C  C293  1  0.20267000  0.42697000  0.16923000  1.0 -0.1881251839
C  C294  1  0.16923000  0.20113000  0.20267000  1.0 -0.1881251839
C  C295  1  0.04887000  0.08077000  0.82303000  1.0 -0.1792159044
C  C296  1  0.82303000  0.04733000  0.04887000  1.0 -0.1881251839
C  C297  1  0.20162000  0.42228000  0.23492000  1.0 0.0714813176
C  C298  1  0.23492000  0.14118000  0.20162000  1.0 0.0714813176
C  C299  1  0.10882000  0.01508000  0.82772000  1.0 0.0795609078
C  C300  1  0.82772000  0.04838000  0.10882000  1.0 0.0795609078
C  C301  1  0.13798000  0.45816000  0.30644000  1.0 -0.2400159364
C  C302  1  0.30644000  0.09742000  0.13798000  1.0 -0.2400159364
C  C303  1  0.15258000  0.94356000  0.79184000  1.0 -0.2308340645
C  C304  1  0.79184000  0.11202000  0.15258000  1.0 -0.2400159364
C  C305  1  0.27040000  0.37460000  0.23060000  1.0 0.0714813176
C  C306  1  0.23060000  0.12440000  0.27040000  1.0 0.0714813176
C  C307  1  0.12560000  0.01940000  0.87540000  1.0 0.0714813176
C  C308  1  0.87540000  0.97960000  0.12560000  1.0 0.0714813176
C  C309  1  0.30830000  0.37850000  0.18630000  1.0 -0.1881251839
C  C310  1  0.18630000  0.12690000  0.30830000  1.0 -0.1881251839
C  C311  1  0.12310000  0.06370000  0.87150000  1.0 -0.2007038589
C  C312  1  0.87150000  0.94170000  0.12310000  1.0 -0.2007038589
C  C313  1  0.37300000  0.33520000  0.17660000  1.0 -0.0493256125
C  C314  1  0.17660000  0.11520000  0.37300000  1.0 -0.0493256125
C  C315  1  0.13480000  0.07340000  0.91480000  1.0 -0.0493256125
C  C316  1  0.91480000  0.87700000  0.13480000  1.0 -0.0493256125
C  C317  1  0.40590000  0.28410000  0.20890000  1.0 0.2117123628
C  C318  1  0.20890000  0.10110000  0.40590000  1.0 0.2117123628
C  C319  1  0.14890000  0.04110000  0.96590000  1.0 0.2117123628
C  C320  1  0.96590000  0.84410000  0.14890000  1.0 0.2117123628
C  C321  1  0.36690000  0.28150000  0.25890000  1.0 -0.0493256125
C  C322  1  0.25890000  0.09270000  0.36690000  1.0 -0.0493256125
C  C323  1  0.15730000  0.99110000  0.96850000  1.0 -0.0493256125
C  C324  1  0.96850000  0.88310000  0.15730000  1.0 -0.0493256125
C  C325  1  0.30630000  0.32150000  0.26070000  1.0 -0.2060105682
C  C326  1  0.26070000  0.11150000  0.30630000  1.0 -0.2060105682
C  C327  1  0.13850000  0.98930000  0.92850000  1.0 -0.2007038589
C  C328  1  0.92850000  0.94370000  0.13850000  1.0 -0.2007038589
C  C329  1  0.39670000  0.23450000  0.29790000  1.0 0.0714813176
C  C330  1  0.29790000  0.07090000  0.39670000  1.0 0.0714813176
C  C331  1  0.17910000  0.95210000  0.01550000  1.0 0.0714813176
C  C332  1  0.01550000  0.85330000  0.17910000  1.0 0.0714813176
C  C333  1  0.43700000  0.16420000  0.27380000  1.0 -0.150277543
C  C334  1  0.27380000  0.12500000  0.43700000  1.0 -0.150277543
C  C335  1  0.12500000  0.97620000  0.08580000  1.0 -0.150277543
C  C336  1  0.08580000  0.81300000  0.12500000  1.0 -0.150277543
C  C337  1  0.46180000  0.12380000  0.31300000  1.0 -0.150277543
C  C338  1  0.31300000  0.10140000  0.46180000  1.0 -0.150277543
C  C339  1  0.14860000  0.93700000  0.12620000  1.0 -0.150277543
C  C340  1  0.12620000  0.78820000  0.14860000  1.0 -0.150277543
C  C341  1  0.45050000  0.14490000  0.37910000  1.0 0.0795609078
C  C342  1  0.37910000  0.02550000  0.45050000  1.0 0.0795609078
C  C343  1  0.22450000  0.87090000  0.10510000  1.0 0.0795609078
C  C344  1  0.10510000  0.79950000  0.22450000  1.0 0.0795609078
C  C345  1  0.41020000  0.21800000  0.40340000  1.0 0.0916838498
C  C346  1  0.40340000  0.96840000  0.41020000  1.0 0.0916838498
C  C347  1  0.28160000  0.84660000  0.03200000  1.0 0.0916838498
C  C348  1  0.03200000  0.83980000  0.28160000  1.0 0.0916838498
C  C349  1  0.38520000  0.25840000  0.36000000  1.0 -0.2193409419
C  C350  1  0.36000000  0.99640000  0.38520000  1.0 -0.2193409419
C  C351  1  0.25360000  0.89000000  0.99160000  1.0 -0.2193409419
C  C352  1  0.99160000  0.86480000  0.25360000  1.0 -0.2193409419
C  C353  1  0.39080000  0.24700000  0.47180000  1.0 -0.150277543
C  C354  1  0.47180000  0.89040000  0.39080000  1.0 -0.150277543
C  C355  1  0.35960000  0.77820000  0.00300000  1.0 -0.150277543
C  C356  1  0.00300000  0.85920000  0.35960000  1.0 -0.150277543
C  C357  1  0.41570000  0.20790000  0.51150000  1.0 -0.150277543
C  C358  1  0.51150000  0.86490000  0.41570000  1.0 -0.150277543
C  C359  1  0.38510000  0.73850000  0.04210000  1.0 -0.150277543
C  C360  1  0.04210000  0.83430000  0.38510000  1.0 -0.150277543
C  C361  1  0.45764000  0.13344000  0.48656000  1.0 -0.0077952218
C  C362  1  0.48656000  0.92236000  0.45764000  1.0 -0.0077952218
C  C363  1  0.32764000  0.76344000  0.11656000  1.0 -0.0077952218
C  C364  1  0.11656000  0.79236000  0.32764000  1.0 -0.0077952218
C  C365  1  0.47080000  0.10720000  0.42240000  1.0 -0.1599604272
C  C366  1  0.42240000  0.99960000  0.47080000  1.0 -0.1599604272
C  C367  1  0.25040000  0.82760000  0.14280000  1.0 -0.1599604272
C  C368  1  0.14280000  0.77920000  0.25040000  1.0 -0.1599604272
C  C369  1  0.47795000  0.09395000  0.53605000  1.0 0.5615230972
C  C370  1  0.53605000  0.89205000  0.47795000  1.0 0.5615230972
C  C371  1  0.35795000  0.71395000  0.15605000  1.0 0.5615230972
C  C372  1  0.15605000  0.77205000  0.35795000  1.0 0.5615230972
C  C373  1  0.40980000  0.34220000  0.13700000  1.0 0.0620504738
C  C374  1  0.13700000  0.11100000  0.40980000  1.0 0.0620504738
C  C375  1  0.13900000  0.11300000  0.90780000  1.0 0.0620504738
C  C376  1  0.90780000  0.84020000  0.13900000  1.0 0.0620504738
C  C377  1  0.41550000  0.36790000  0.17370000  1.0 -0.1792159044
C  C378  1  0.17370000  0.04290000  0.41550000  1.0 -0.1792159044
C  C379  1  0.20710000  0.07630000  0.88210000  1.0 -0.1792159044
C  C380  1  0.88210000  0.83450000  0.20710000  1.0 -0.1792159044
C  C381  1  0.45100000  0.37120000  0.13340000  1.0 -0.1191423685
C  C382  1  0.13340000  0.04440000  0.45100000  1.0 -0.1191423685
C  C383  1  0.20560000  0.11660000  0.87880000  1.0 -0.1191423685
C  C384  1  0.87880000  0.79900000  0.20560000  1.0 -0.1191423685
C  C385  1  0.48410000  0.35030000  0.05510000  1.0 0.0620504738
C  C386  1  0.05510000  0.11050000  0.48410000  1.0 0.0620504738
C  C387  1  0.13950000  0.19490000  0.89970000  1.0 0.0620504738
C  C388  1  0.89970000  0.76590000  0.13950000  1.0 0.0620504738
C  C389  1  0.47490000  0.33170000  0.01770000  1.0 0.0916838498
C  C390  1  0.01770000  0.17570000  0.47490000  1.0 0.0916838498
C  C391  1  0.07430000  0.23230000  0.91830000  1.0 0.0916838498
C  C392  1  0.91830000  0.77510000  0.07430000  1.0 0.0916838498
C  C393  1  0.44510000  0.32150000  0.05250000  1.0 -0.2193409419
C  C394  1  0.05250000  0.18090000  0.44510000  1.0 -0.2193409419
C  C395  1  0.06910000  0.19750000  0.92850000  1.0 -0.2193409419
C  C396  1  0.92850000  0.80490000  0.06910000  1.0 -0.2193409419
C  C397  1  0.51030000  0.31090000  0.93410000  1.0 -0.150277543
C  C398  1  0.93410000  0.24470000  0.51030000  1.0 -0.150277543
C  C399  1  0.00530000  0.31590000  0.93910000  1.0 -0.150277543
C  C400  1  0.93910000  0.73970000  0.00530000  1.0 -0.150277543
C  C401  1  0.55190000  0.30590000  0.89570000  1.0 -0.1081462568
C  C402  1  0.89570000  0.24650000  0.55190000  1.0 -0.1081462568
C  C403  1  0.00350000  0.35430000  0.94410000  1.0 -0.1081462568
C  C404  1  0.94410000  0.69810000  0.00350000  1.0 -0.1081462568
C  C405  1  0.55530000  0.33230000  0.93470000  1.0 -0.0077952218
C  C406  1  0.93470000  0.17770000  0.55530000  1.0 -0.0077952218
C  C407  1  0.07230000  0.31530000  0.91770000  1.0 -0.0077952218
C  C408  1  0.91770000  0.69470000  0.07230000  1.0 -0.0077952218
C  C409  1  0.52010000  0.35570000  0.01390000  1.0 -0.150277543
C  C410  1  0.01390000  0.11030000  0.52010000  1.0 -0.150277543
C  C411  1  0.13970000  0.23610000  0.89430000  1.0 -0.150277543
C  C412  1  0.89430000  0.72990000  0.13970000  1.0 -0.150277543
C  C413  1  0.59595000  0.33555000  0.88685000  1.0 0.5683358187
C  C414  1  0.88685000  0.18165000  0.59595000  1.0 0.5683358187
C  C415  1  0.06835000  0.36315000  0.91445000  1.0 0.5683358187
C  C416  1  0.91445000  0.65405000  0.06835000  1.0 0.5683358187
C  C417  1  0.33630000  0.16330000  0.21190000  1.0 -0.0493256125
C  C418  1  0.21190000  0.28850000  0.33630000  1.0 -0.0493256125
C  C419  1  0.96150000  0.03810000  0.08670000  1.0 -0.0378591264
C  C420  1  0.64350000  0.52530000  0.78970000  1.0 -0.2621087631
C  C421  1  0.59490000  0.57470000  0.90270000  1.0 -0.3123400038
C  C422  1  0.78970000  0.04150000  0.64350000  1.0 -0.2621087631
C  C423  1  0.90270000  0.92770000  0.59490000  1.0 -0.3123400038
C  C424  1  0.20850000  0.46030000  0.72470000  1.0 -0.2621087631
C  C425  1  0.32230000  0.34730000  0.67530000  1.0 -0.3123400038
C  C426  1  0.72470000  0.60650000  0.20850000  1.0 -0.2621087631
C  C427  1  0.67530000  0.65510000  0.32230000  1.0 -0.3123400038
C  C428  1  0.35220000  0.86220000  0.77320000  1.0 -0.3279944187
C  C429  1  0.35380000  0.83040000  0.66480000  1.0 -0.3123400038
C  C430  1  0.77320000  0.01240000  0.35220000  1.0 -0.3279944187
C  C431  1  0.66480000  0.15100000  0.35380000  1.0 -0.3123400038
C  C432  1  0.23760000  0.47680000  0.38780000  1.0 -0.3279944187
C  C433  1  0.09900000  0.58520000  0.41960000  1.0 -0.3123400038
C  C434  1  0.38780000  0.89780000  0.23760000  1.0 -0.3279944187
C  C435  1  0.41960000  0.89620000  0.09900000  1.0 -0.3123400038
C  C436  1  0.47410000  0.71250000  0.10890000  1.0 -0.3565837568
C  C437  1  0.59810000  0.59270000  0.08850000  1.0 -0.298181822
C  C438  1  0.10890000  0.70450000  0.47410000  1.0 -0.3565837568
C  C439  1  0.08850000  0.72070000  0.59810000  1.0 -0.298181822
C  C440  1  0.54550000  0.14110000  0.53750000  1.0 -0.3565837568
C  C441  1  0.52930000  0.16150000  0.65730000  1.0 -0.298181822
C  C442  1  0.53750000  0.77590000  0.54550000  1.0 -0.3565837568
C  C443  1  0.65730000  0.65190000  0.52930000  1.0 -0.298181822
N  N1  1  0.47115000  0.23475000  0.19685000  1.0 -0.5025226338
N  N2  1  0.19685000  0.09725000  0.47115000  1.0 -0.5099172658
N  N3  1  0.15275000  0.05315000  0.01525000  1.0 -0.5025226338
N  N4  1  0.01525000  0.77885000  0.15275000  1.0 -0.5025226338
N  N5  1  0.12380000  0.37460000  0.38900000  1.0 -0.3690037753
N  N6  1  0.38900000  0.11260000  0.12380000  1.0 -0.3690037753
N  N7  1  0.13740000  0.86100000  0.87540000  1.0 -0.5025226338
N  N8  1  0.87540000  0.12620000  0.13740000  1.0 -0.3690037753
N  N9  1  0.34637000  0.88337000  0.04183000  1.0 -0.5920320427
N  N10  1  0.04183000  0.72843000  0.34637000  1.0 -0.5920320427
N  N11  1  0.52157000  0.20817000  0.36663000  1.0 -0.5920320427
N  N12  1  0.36663000  0.90363000  0.52157000  1.0 -0.5920320427
N  N13  1  0.67180000  0.51840000  0.82640000  1.0 -0.1388650811
N  N14  1  0.82640000  0.98340000  0.67180000  1.0 -0.1388650811
N  N15  1  0.26660000  0.42360000  0.73160000  1.0 -0.1388650811
N  N16  1  0.73160000  0.57820000  0.26660000  1.0 -0.1388650811
N  N17  1  0.38790000  0.81830000  0.69590000  1.0 -0.1191423685
N  N18  1  0.69590000  0.09790000  0.38790000  1.0 -0.1191423685
N  N19  1  0.15210000  0.55410000  0.43170000  1.0 -0.1191423685
N  N20  1  0.43170000  0.86210000  0.15210000  1.0 -0.1191423685
N  N21  1  0.54280000  0.62720000  0.07840000  1.0 -0.1001814692
N  N22  1  0.07840000  0.75160000  0.54280000  1.0 -0.1001814692
N  N23  1  0.49840000  0.17160000  0.62280000  1.0 -0.1001814692
N  N24  1  0.62280000  0.70720000  0.49840000  1.0 -0.1001814692
O  O1  1  0.57972000  0.37472000  0.93108000  1.0 -0.5576524561
O  O2  1  0.93108000  0.11448000  0.57972000  1.0 -0.5576524561
O  O3  1  0.13552000  0.31892000  0.87528000  1.0 -0.5576524561
O  O4  1  0.87528000  0.67028000  0.13552000  1.0 -0.5576524561
O  O5  1  0.64052000  0.29912000  0.81368000  1.0 -0.5025226338
O  O6  1  0.81368000  0.24668000  0.64052000  1.0 -0.5025226338
O  O7  1  0.00332000  0.43632000  0.95088000  1.0 -0.5025226338
O  O8  1  0.95088000  0.60948000  0.00332000  1.0 -0.5025226338
O  O9  1  0.46293000  0.12233000  0.59287000  1.0 -0.5519921458
O  O10  1  0.59287000  0.82187000  0.46293000  1.0 -0.5519921458
O  O11  1  0.42813000  0.65713000  0.12767000  1.0 -0.5519921458
O  O12  1  0.12767000  0.78707000  0.42813000  1.0 -0.5519921458
O  O13  1  0.51051000  0.03311000  0.51249000  1.0 -0.5701172029
O  O14  1  0.51249000  0.94389000  0.51051000  1.0 -0.5701172029
O  O15  1  0.30611000  0.73751000  0.21689000  1.0 -0.5701172029
O  O16  1  0.21689000  0.73949000  0.30611000  1.0 -0.5701172029
O  O17  1  0.13191000  0.40871000  0.81869000  1.0 -0.5419579373
O  O18  1  0.81869000  0.64069000  0.13191000  1.0 -0.5419579373
O  O19  1  0.60931000  0.43131000  0.84129000  1.0 -0.5419579373
O  O20  1  0.84129000  0.11809000  0.60931000  1.0 -0.5419579373
O  O21  1  0.00934000  0.50674000  0.85386000  1.0 -0.5099172658
O  O22  1  0.85386000  0.63006000  0.00934000  1.0 -0.5099172658
O  O23  1  0.61994000  0.39614000  0.74326000  1.0 -0.5099172658
O  O24  1  0.74326000  0.24066000  0.61994000  1.0 -0.5099172658
O  O25  1  0.82730000  0.65310000  0.39450000  1.0 -0.5419579373
O  O26  1  0.39450000  0.12510000  0.82730000  1.0 -0.5419579373
O  O27  1  0.12490000  0.85550000  0.59690000  1.0 -0.5419579373
O  O28  1  0.59690000  0.42270000  0.12490000  1.0 -0.5419579373
O  O29  1  0.89441000  0.61641000  0.26379000  1.0 -0.5795263177
O  O30  1  0.26379000  0.22539000  0.89441000  1.0 -0.5795263177
O  O31  1  0.02461000  0.98621000  0.63359000  1.0 -0.5795263177
O  O32  1  0.63359000  0.35559000  0.02461000  1.0 -0.5795263177
O  O33  1  0.76449000  0.62929000  0.38851000  1.0 -0.5235913819
O  O34  1  0.38851000  0.21771000  0.76449000  1.0 -0.5235913819
O  O35  1  0.03229000  0.86149000  0.62071000  1.0 -0.5235913819
O  O36  1  0.62071000  0.48551000  0.03229000  1.0 -0.5235913819
O  O37  1  0.80294000  0.61854000  0.25286000  1.0 -0.6862566298
O  O38  1  0.25286000  0.32566000  0.80294000  1.0 -0.6862566298
O  O39  1  0.92434000  0.99714000  0.63146000  1.0 -0.6862566298
O  O40  1  0.63146000  0.44706000  0.92434000  1.0 -0.6862566298
O  O41  1  0.97808000  0.50328000  0.08972000  1.0 -0.475128693
O  O42  1  0.08972000  0.42892000  0.97808000  1.0 -0.475128693
O  O43  1  0.82108000  0.16028000  0.74672000  1.0 -0.471485061
O  O44  1  0.74672000  0.27192000  0.82108000  1.0 -0.471485061
O  O45  1  0.65444000  0.74844000  0.55496000  1.0 -0.471485061
O  O46  1  0.55496000  0.04216000  0.65444000  1.0 -0.471485061
O  O47  1  0.20784000  0.69504000  0.50156000  1.0 -0.471485061
O  O48  1  0.50156000  0.59556000  0.20784000  1.0 -0.471485061
O  O49  1  0.61072000  0.84732000  0.58168000  1.0 -0.6153958267
O  O50  1  0.58168000  0.96028000  0.61072000  1.0 -0.6153958267
O  O51  1  0.28972000  0.66832000  0.40268000  1.0 -0.6153958267
O  O52  1  0.40268000  0.63928000  0.28972000  1.0 -0.6153958267
O  O53  1  0.18591000  0.82439000  0.41981000  1.0 -0.5795263177
O  O54  1  0.41981000  0.56989000  0.18591000  1.0 -0.5795263177
O  O55  1  0.68011000  0.83019000  0.42561000  1.0 -0.5795263177
O  O56  1  0.42561000  0.06409000  0.68011000  1.0 -0.5795263177
O  O57  1  0.05719000  0.93159000  0.48601000  1.0 -0.5419579373
O  O58  1  0.48601000  0.52521000  0.05719000  1.0 -0.5419579373
O  O59  1  0.72479000  0.76399000  0.31841000  1.0 -0.5419579373
O  O60  1  0.31841000  0.19281000  0.72479000  1.0 -0.5419579373
