# DDEC6 charges by PACMAN v1.1 (https://github.com/mtap-research/PACMAN-charge/)
data_RIFSOQ_FSR_pacman
_symmetry_space_group_name_H-M   'P 1'
_cell_length_a   45.30670000
_cell_length_b   45.30670000
_cell_length_c   45.30670000
_cell_angle_alpha   60.00000000
_cell_angle_beta   60.00000000
_cell_angle_gamma   60.00000000
_symmetry_Int_Tables_number   1
_chemical_formula_structural   CoH16C26(SN5)2
_chemical_formula_sum   'Co48 H768 C1248 S96 N480'
_cell_volume   65761.58833733
_cell_formula_units_Z   48
loop_
 _symmetry_equiv_pos_site_id
 _symmetry_equiv_pos_as_xyz
  1  'x, y, z'
loop_
 _atom_site_type_symbol
 _atom_site_label
 _atom_site_symmetry_multiplicity
 _atom_site_fract_x
 _atom_site_fract_y
 _atom_site_fract_z
 _atom_site_occupancy
 _atom_site_charge
Co  Co1  1  0.12500000  0.86856000  0.62500000  1.0 0.6728174064
Co  Co2  1  0.86856000  0.12500000  0.38144000  1.0 0.6728174064
Co  Co3  1  0.62500000  0.38144000  0.12500000  1.0 0.6728174064
Co  Co4  1  0.38144000  0.62500000  0.86856000  1.0 0.6728174064
Co  Co5  1  0.62500000  0.12500000  0.86856000  1.0 0.6728174064
Co  Co6  1  0.38144000  0.86856000  0.12500000  1.0 0.6728174064
Co  Co7  1  0.12500000  0.62500000  0.38144000  1.0 0.6728174064
Co  Co8  1  0.86856000  0.38144000  0.62500000  1.0 0.6728174064
Co  Co9  1  0.86856000  0.62500000  0.12500000  1.0 0.6728174064
Co  Co10  1  0.12500000  0.38144000  0.86856000  1.0 0.6728174064
Co  Co11  1  0.38144000  0.12500000  0.62500000  1.0 0.6728174064
Co  Co12  1  0.62500000  0.86856000  0.38144000  1.0 0.6728174064
Co  Co13  1  0.62500000  0.88144000  0.12500000  1.0 0.6728174064
Co  Co14  1  0.88144000  0.62500000  0.36856000  1.0 0.6728174064
Co  Co15  1  0.12500000  0.36856000  0.62500000  1.0 0.6728174064
Co  Co16  1  0.36856000  0.12500000  0.88144000  1.0 0.6728174064
Co  Co17  1  0.12500000  0.62500000  0.88144000  1.0 0.6728174064
Co  Co18  1  0.36856000  0.88144000  0.62500000  1.0 0.6728174064
Co  Co19  1  0.62500000  0.12500000  0.36856000  1.0 0.6728174064
Co  Co20  1  0.88144000  0.36856000  0.12500000  1.0 0.6728174064
Co  Co21  1  0.88144000  0.12500000  0.62500000  1.0 0.6728174064
Co  Co22  1  0.62500000  0.36856000  0.88144000  1.0 0.6756018063
Co  Co23  1  0.36856000  0.62500000  0.12500000  1.0 0.6728174064
Co  Co24  1  0.12500000  0.88144000  0.36856000  1.0 0.6728174064
Co  Co25  1  0.12288000  0.12288000  0.37712000  1.0 0.6616841441
Co  Co26  1  0.37712000  0.37712000  0.12288000  1.0 0.6616841441
Co  Co27  1  0.37712000  0.12288000  0.12288000  1.0 0.6616841441
Co  Co28  1  0.12288000  0.37712000  0.37712000  1.0 0.6616841441
Co  Co29  1  0.12288000  0.37712000  0.12288000  1.0 0.6616841441
Co  Co30  1  0.37712000  0.12288000  0.37712000  1.0 0.6616841441
Co  Co31  1  0.12712000  0.12712000  0.87288000  1.0 0.6616841441
Co  Co32  1  0.87288000  0.87288000  0.12712000  1.0 0.6616841441
Co  Co33  1  0.87288000  0.12712000  0.87288000  1.0 0.6616841441
Co  Co34  1  0.12712000  0.87288000  0.12712000  1.0 0.6616841441
Co  Co35  1  0.12712000  0.87288000  0.87288000  1.0 0.6616841441
Co  Co36  1  0.87288000  0.12712000  0.12712000  1.0 0.6616841441
Co  Co37  1  0.62712000  0.62712000  0.37288000  1.0 0.6616841441
Co  Co38  1  0.37288000  0.37288000  0.62712000  1.0 0.6616841441
Co  Co39  1  0.37288000  0.62712000  0.62712000  1.0 0.6616841441
Co  Co40  1  0.62712000  0.37288000  0.37288000  1.0 0.6616841441
Co  Co41  1  0.62712000  0.37288000  0.62712000  1.0 0.6616841441
Co  Co42  1  0.37288000  0.62712000  0.37288000  1.0 0.6616841441
Co  Co43  1  0.62288000  0.62288000  0.87712000  1.0 0.6616841441
Co  Co44  1  0.87712000  0.87712000  0.62288000  1.0 0.6616841441
Co  Co45  1  0.87712000  0.62288000  0.87712000  1.0 0.6616841441
Co  Co46  1  0.62288000  0.87712000  0.62288000  1.0 0.6616841441
Co  Co47  1  0.62288000  0.87712000  0.87712000  1.0 0.6616841441
Co  Co48  1  0.87712000  0.62288000  0.62288000  1.0 0.6616841441
H  H1  1  0.91470000  0.18930000  0.56270000  1.0 0.1004440452
H  H2  1  0.18930000  0.91470000  0.33333333  1.0 0.1004440452
H  H3  1  0.56270000  0.33333333  0.91470000  1.0 0.1004440452
H  H4  1  0.33333333  0.56270000  0.18930000  1.0 0.1004440452
H  H5  1  0.56270000  0.91470000  0.18930000  1.0 0.1004440452
H  H6  1  0.33333333  0.18930000  0.91470000  1.0 0.1004440452
H  H7  1  0.91470000  0.56270000  0.33333333  1.0 0.1004440452
H  H8  1  0.18930000  0.33333333  0.56270000  1.0 0.1004440452
H  H9  1  0.18930000  0.56270000  0.91470000  1.0 0.1004440452
H  H10  1  0.91470000  0.33333333  0.18930000  1.0 0.1004440452
H  H11  1  0.33333333  0.91470000  0.56270000  1.0 0.1004440452
H  H12  1  0.56270000  0.18930000  0.33333333  1.0 0.1004440452
H  H13  1  0.33530000  0.06070000  0.91670000  1.0 0.1004440452
H  H14  1  0.06070000  0.33530000  0.68730000  1.0 0.1004440452
H  H15  1  0.68730000  0.91670000  0.06070000  1.0 0.1004440452
H  H16  1  0.91670000  0.68730000  0.33530000  1.0 0.1004440452
H  H17  1  0.68730000  0.33530000  0.91670000  1.0 0.1004440452
H  H18  1  0.91670000  0.06070000  0.68730000  1.0 0.1004440452
H  H19  1  0.33530000  0.68730000  0.06070000  1.0 0.1004440452
H  H20  1  0.06070000  0.91670000  0.33530000  1.0 0.1004440452
H  H21  1  0.06070000  0.68730000  0.91670000  1.0 0.1004440452
H  H22  1  0.33530000  0.91670000  0.68730000  1.0 0.1004440452
H  H23  1  0.91670000  0.33530000  0.06070000  1.0 0.1004440452
H  H24  1  0.68730000  0.06070000  0.33530000  1.0 0.1004440452
H  H25  1  0.83530000  0.56070000  0.18730000  1.0 0.1004440452
H  H26  1  0.56070000  0.83530000  0.41670000  1.0 0.1004440452
H  H27  1  0.18730000  0.41670000  0.83530000  1.0 0.1004440452
H  H28  1  0.41670000  0.18730000  0.56070000  1.0 0.1004440452
H  H29  1  0.18730000  0.83530000  0.56070000  1.0 0.1004440452
H  H30  1  0.41670000  0.56070000  0.83530000  1.0 0.1004440452
H  H31  1  0.83530000  0.18730000  0.41670000  1.0 0.1004440452
H  H32  1  0.56070000  0.41670000  0.18730000  1.0 0.1004440452
H  H33  1  0.56070000  0.18730000  0.83530000  1.0 0.1004440452
H  H34  1  0.83530000  0.41670000  0.56070000  1.0 0.1004440452
H  H35  1  0.41670000  0.83530000  0.18730000  1.0 0.1004440452
H  H36  1  0.18730000  0.56070000  0.41670000  1.0 0.1004440452
H  H37  1  0.41470000  0.68930000  0.83330000  1.0 0.1004440452
H  H38  1  0.68930000  0.41470000  0.06270000  1.0 0.1004440452
H  H39  1  0.06270000  0.83330000  0.68930000  1.0 0.1004440452
H  H40  1  0.83330000  0.06270000  0.41470000  1.0 0.1004440452
H  H41  1  0.06270000  0.41470000  0.83330000  1.0 0.1004440452
H  H42  1  0.83330000  0.68930000  0.06270000  1.0 0.1004440452
H  H43  1  0.41470000  0.06270000  0.68930000  1.0 0.1004440452
H  H44  1  0.68930000  0.83330000  0.41470000  1.0 0.1004440452
H  H45  1  0.68930000  0.06270000  0.83330000  1.0 0.1004440452
H  H46  1  0.41470000  0.83330000  0.06270000  1.0 0.1004440452
H  H47  1  0.83330000  0.41470000  0.68930000  1.0 0.1004440452
H  H48  1  0.06270000  0.68930000  0.41470000  1.0 0.1004440452
H  H49  1  0.96860000  0.19660000  0.51960000  1.0 0.1368968812
H  H50  1  0.19660000  0.96860000  0.31520000  1.0 0.1368968812
H  H51  1  0.51960000  0.31520000  0.96860000  1.0 0.1368968812
H  H52  1  0.31520000  0.51960000  0.19660000  1.0 0.1368968812
H  H53  1  0.51960000  0.96860000  0.19660000  1.0 0.1368968812
H  H54  1  0.31520000  0.19660000  0.96860000  1.0 0.1368968812
H  H55  1  0.96860000  0.51960000  0.31520000  1.0 0.1368968812
H  H56  1  0.19660000  0.31520000  0.51960000  1.0 0.1368968812
H  H57  1  0.19660000  0.51960000  0.96860000  1.0 0.1368968812
H  H58  1  0.96860000  0.31520000  0.19660000  1.0 0.1368968812
H  H59  1  0.31520000  0.96860000  0.51960000  1.0 0.1368968812
H  H60  1  0.51960000  0.19660000  0.31520000  1.0 0.1368968812
H  H61  1  0.28140000  0.05340000  0.93480000  1.0 0.1368968812
H  H62  1  0.05340000  0.28140000  0.73040000  1.0 0.1368968812
H  H63  1  0.73040000  0.93480000  0.05340000  1.0 0.1368968812
H  H64  1  0.93480000  0.73040000  0.28140000  1.0 0.1368968812
H  H65  1  0.73040000  0.28140000  0.93480000  1.0 0.1368968812
H  H66  1  0.93480000  0.05340000  0.73040000  1.0 0.1368968812
H  H67  1  0.28140000  0.73040000  0.05340000  1.0 0.1368968812
H  H68  1  0.05340000  0.93480000  0.28140000  1.0 0.1368968812
H  H69  1  0.05340000  0.73040000  0.93480000  1.0 0.1368968812
H  H70  1  0.28140000  0.93480000  0.73040000  1.0 0.1368968812
H  H71  1  0.93480000  0.28140000  0.05340000  1.0 0.1368968812
H  H72  1  0.73040000  0.05340000  0.28140000  1.0 0.1368968812
H  H73  1  0.78140000  0.55340000  0.23040000  1.0 0.1368968812
H  H74  1  0.55340000  0.78140000  0.43480000  1.0 0.1368968812
H  H75  1  0.23040000  0.43480000  0.78140000  1.0 0.1368968812
H  H76  1  0.43480000  0.23040000  0.55340000  1.0 0.1368968812
H  H77  1  0.23040000  0.78140000  0.55340000  1.0 0.1368968812
H  H78  1  0.43480000  0.55340000  0.78140000  1.0 0.1368968812
H  H79  1  0.78140000  0.23040000  0.43480000  1.0 0.1368968812
H  H80  1  0.55340000  0.43480000  0.23040000  1.0 0.1368968812
H  H81  1  0.55340000  0.23040000  0.78140000  1.0 0.1368968812
H  H82  1  0.78140000  0.43480000  0.55340000  1.0 0.1368968812
H  H83  1  0.43480000  0.78140000  0.23040000  1.0 0.1368968812
H  H84  1  0.23040000  0.55340000  0.43480000  1.0 0.1368968812
H  H85  1  0.46860000  0.69660000  0.81520000  1.0 0.1368968812
H  H86  1  0.69660000  0.46860000  0.01960000  1.0 0.1368968812
H  H87  1  0.01960000  0.81520000  0.69660000  1.0 0.1368968812
H  H88  1  0.81520000  0.01960000  0.46860000  1.0 0.1368968812
H  H89  1  0.01960000  0.46860000  0.81520000  1.0 0.1368968812
H  H90  1  0.81520000  0.69660000  0.01960000  1.0 0.1368968812
H  H91  1  0.46860000  0.01960000  0.69660000  1.0 0.1368968812
H  H92  1  0.69660000  0.81520000  0.46860000  1.0 0.1368968812
H  H93  1  0.69660000  0.01960000  0.81520000  1.0 0.1368968812
H  H94  1  0.46860000  0.81520000  0.01960000  1.0 0.1368968812
H  H95  1  0.81520000  0.46860000  0.69660000  1.0 0.1368968812
H  H96  1  0.01960000  0.69660000  0.46860000  1.0 0.1368968812
H  H97  1  0.02150000  0.14510000  0.51450000  1.0 0.1215501415
H  H98  1  0.14510000  0.02150000  0.31890000  1.0 0.1215501415
H  H99  1  0.51450000  0.31890000  0.02150000  1.0 0.1215501415
H  H100  1  0.31890000  0.51450000  0.14510000  1.0 0.1215501415
H  H101  1  0.51450000  0.02150000  0.14510000  1.0 0.1215501415
H  H102  1  0.31890000  0.14510000  0.02150000  1.0 0.1215501415
H  H103  1  0.02150000  0.51450000  0.31890000  1.0 0.1215501415
H  H104  1  0.14510000  0.31890000  0.51450000  1.0 0.1215501415
H  H105  1  0.14510000  0.51450000  0.02150000  1.0 0.1215501415
H  H106  1  0.02150000  0.31890000  0.14510000  1.0 0.1215501415
H  H107  1  0.31890000  0.02150000  0.51450000  1.0 0.1215501415
H  H108  1  0.51450000  0.14510000  0.31890000  1.0 0.1215501415
H  H109  1  0.22850000  0.10490000  0.93110000  1.0 0.1215501415
H  H110  1  0.10490000  0.22850000  0.73550000  1.0 0.1215501415
H  H111  1  0.73550000  0.93110000  0.10490000  1.0 0.1215501415
H  H112  1  0.93110000  0.73550000  0.22850000  1.0 0.1215501415
H  H113  1  0.73550000  0.22850000  0.93110000  1.0 0.1215501415
H  H114  1  0.93110000  0.10490000  0.73550000  1.0 0.1215501415
H  H115  1  0.22850000  0.73550000  0.10490000  1.0 0.1215501415
H  H116  1  0.10490000  0.93110000  0.22850000  1.0 0.1215501415
H  H117  1  0.10490000  0.73550000  0.93110000  1.0 0.1215501415
H  H118  1  0.22850000  0.93110000  0.73550000  1.0 0.1215501415
H  H119  1  0.93110000  0.22850000  0.10490000  1.0 0.1215501415
H  H120  1  0.73550000  0.10490000  0.22850000  1.0 0.1215501415
H  H121  1  0.72850000  0.60490000  0.23550000  1.0 0.1215501415
H  H122  1  0.60490000  0.72850000  0.43110000  1.0 0.1215501415
H  H123  1  0.23550000  0.43110000  0.72850000  1.0 0.1215501415
H  H124  1  0.43110000  0.23550000  0.60490000  1.0 0.1215501415
H  H125  1  0.23550000  0.72850000  0.60490000  1.0 0.1215501415
H  H126  1  0.43110000  0.60490000  0.72850000  1.0 0.1215501415
H  H127  1  0.72850000  0.23550000  0.43110000  1.0 0.1215501415
H  H128  1  0.60490000  0.43110000  0.23550000  1.0 0.1215501415
H  H129  1  0.60490000  0.23550000  0.72850000  1.0 0.1215501415
H  H130  1  0.72850000  0.43110000  0.60490000  1.0 0.1215501415
H  H131  1  0.43110000  0.72850000  0.23550000  1.0 0.1215501415
H  H132  1  0.23550000  0.60490000  0.43110000  1.0 0.1215501415
H  H133  1  0.52150000  0.64510000  0.81890000  1.0 0.1215501415
H  H134  1  0.64510000  0.52150000  0.01450000  1.0 0.1215501415
H  H135  1  0.01450000  0.81890000  0.64510000  1.0 0.1215501415
H  H136  1  0.81890000  0.01450000  0.52150000  1.0 0.1215501415
H  H137  1  0.01450000  0.52150000  0.81890000  1.0 0.1215501415
H  H138  1  0.81890000  0.64510000  0.01450000  1.0 0.1215501415
H  H139  1  0.52150000  0.01450000  0.64510000  1.0 0.1215501415
H  H140  1  0.64510000  0.81890000  0.52150000  1.0 0.1215501415
H  H141  1  0.64510000  0.01450000  0.81890000  1.0 0.1215501415
H  H142  1  0.52150000  0.81890000  0.01450000  1.0 0.1215501415
H  H143  1  0.81890000  0.52150000  0.64510000  1.0 0.1215501415
H  H144  1  0.01450000  0.64510000  0.52150000  1.0 0.1215501415
H  H145  1  0.96040000  0.08420000  0.59960000  1.0 0.1073331323
H  H146  1  0.08420000  0.96040000  0.35580000  1.0 0.1073331323
H  H147  1  0.59960000  0.35580000  0.96040000  1.0 0.1073331323
H  H148  1  0.35580000  0.59960000  0.08420000  1.0 0.1073331323
H  H149  1  0.59960000  0.96040000  0.08420000  1.0 0.1073331323
H  H150  1  0.35580000  0.08420000  0.96040000  1.0 0.1073331323
H  H151  1  0.96040000  0.59960000  0.35580000  1.0 0.1073331323
H  H152  1  0.08420000  0.35580000  0.59960000  1.0 0.1073331323
H  H153  1  0.08420000  0.59960000  0.96040000  1.0 0.1073331323
H  H154  1  0.96040000  0.35580000  0.08420000  1.0 0.1073331323
H  H155  1  0.35580000  0.96040000  0.59960000  1.0 0.1073331323
H  H156  1  0.59960000  0.08420000  0.35580000  1.0 0.1073331323
H  H157  1  0.28960000  0.16580000  0.89420000  1.0 0.1073331323
H  H158  1  0.16580000  0.28960000  0.65040000  1.0 0.1073331323
H  H159  1  0.65040000  0.89420000  0.16580000  1.0 0.1073331323
H  H160  1  0.89420000  0.65040000  0.28960000  1.0 0.1073331323
H  H161  1  0.65040000  0.28960000  0.89420000  1.0 0.1073331323
H  H162  1  0.89420000  0.16580000  0.65040000  1.0 0.1073331323
H  H163  1  0.28960000  0.65040000  0.16580000  1.0 0.1073331323
H  H164  1  0.16580000  0.89420000  0.28960000  1.0 0.1073331323
H  H165  1  0.16580000  0.65040000  0.89420000  1.0 0.1073331323
H  H166  1  0.28960000  0.89420000  0.65040000  1.0 0.1073331323
H  H167  1  0.89420000  0.28960000  0.16580000  1.0 0.1073331323
H  H168  1  0.65040000  0.16580000  0.28960000  1.0 0.1073331323
H  H169  1  0.78960000  0.66580000  0.15040000  1.0 0.1073331323
H  H170  1  0.66580000  0.78960000  0.39420000  1.0 0.1073331323
H  H171  1  0.15040000  0.39420000  0.78960000  1.0 0.1073331323
H  H172  1  0.39420000  0.15040000  0.66580000  1.0 0.1073331323
H  H173  1  0.15040000  0.78960000  0.66580000  1.0 0.1073331323
H  H174  1  0.39420000  0.66580000  0.78960000  1.0 0.1073331323
H  H175  1  0.78960000  0.15040000  0.39420000  1.0 0.1073331323
H  H176  1  0.66580000  0.39420000  0.15040000  1.0 0.1073331323
H  H177  1  0.66580000  0.15040000  0.78960000  1.0 0.1073331323
H  H178  1  0.78960000  0.39420000  0.66580000  1.0 0.1073331323
H  H179  1  0.39420000  0.78960000  0.15040000  1.0 0.1073331323
H  H180  1  0.15040000  0.66580000  0.39420000  1.0 0.1073331323
H  H181  1  0.46040000  0.58420000  0.85580000  1.0 0.1073331323
H  H182  1  0.58420000  0.46040000  0.09960000  1.0 0.1073331323
H  H183  1  0.09960000  0.85580000  0.58420000  1.0 0.1073331323
H  H184  1  0.85580000  0.09960000  0.46040000  1.0 0.1073331323
H  H185  1  0.09960000  0.46040000  0.85580000  1.0 0.1073331323
H  H186  1  0.85580000  0.58420000  0.09960000  1.0 0.1073331323
H  H187  1  0.46040000  0.09960000  0.58420000  1.0 0.1073331323
H  H188  1  0.58420000  0.85580000  0.46040000  1.0 0.1073331323
H  H189  1  0.58420000  0.09960000  0.85580000  1.0 0.1073331323
H  H190  1  0.46040000  0.85580000  0.09960000  1.0 0.1073331323
H  H191  1  0.85580000  0.46040000  0.58420000  1.0 0.1073331323
H  H192  1  0.09960000  0.58420000  0.46040000  1.0 0.1073331323
H  H193  1  0.10020000  0.95020000  0.58740000  1.0 0.1073331323
H  H194  1  0.95020000  0.10020000  0.36220000  1.0 0.1073331323
H  H195  1  0.58740000  0.36220000  0.10020000  1.0 0.1073331323
H  H196  1  0.36220000  0.58740000  0.95020000  1.0 0.1073331323
H  H197  1  0.58740000  0.10020000  0.95020000  1.0 0.1073331323
H  H198  1  0.36220000  0.95020000  0.10020000  1.0 0.1073331323
H  H199  1  0.10020000  0.58740000  0.36220000  1.0 0.1073331323
H  H200  1  0.95020000  0.36220000  0.58740000  1.0 0.1073331323
H  H201  1  0.95020000  0.58740000  0.10020000  1.0 0.1073331323
H  H202  1  0.10020000  0.36220000  0.95020000  1.0 0.1073331323
H  H203  1  0.36220000  0.10020000  0.58740000  1.0 0.1073331323
H  H204  1  0.58740000  0.95020000  0.36220000  1.0 0.1073331323
H  H205  1  0.14980000  0.29980000  0.88780000  1.0 0.1073331323
H  H206  1  0.29980000  0.14980000  0.66260000  1.0 0.1073331323
H  H207  1  0.66260000  0.88780000  0.29980000  1.0 0.1073331323
H  H208  1  0.88780000  0.66260000  0.14980000  1.0 0.1073331323
H  H209  1  0.66260000  0.14980000  0.88780000  1.0 0.1073331323
H  H210  1  0.88780000  0.29980000  0.66260000  1.0 0.1073331323
H  H211  1  0.14980000  0.66260000  0.29980000  1.0 0.1073331323
H  H212  1  0.29980000  0.88780000  0.14980000  1.0 0.1073331323
H  H213  1  0.29980000  0.66260000  0.88780000  1.0 0.1073331323
H  H214  1  0.14980000  0.88780000  0.66260000  1.0 0.1073331323
H  H215  1  0.88780000  0.14980000  0.29980000  1.0 0.1073331323
H  H216  1  0.66260000  0.29980000  0.14980000  1.0 0.1073331323
H  H217  1  0.64980000  0.79980000  0.16260000  1.0 0.1073331323
H  H218  1  0.79980000  0.64980000  0.38780000  1.0 0.1073331323
H  H219  1  0.16260000  0.38780000  0.64980000  1.0 0.1073331323
H  H220  1  0.38780000  0.16260000  0.79980000  1.0 0.1073331323
H  H221  1  0.16260000  0.64980000  0.79980000  1.0 0.1073331323
H  H222  1  0.38780000  0.79980000  0.64980000  1.0 0.1073331323
H  H223  1  0.64980000  0.16260000  0.38780000  1.0 0.1073331323
H  H224  1  0.79980000  0.38780000  0.16260000  1.0 0.1073331323
H  H225  1  0.79980000  0.16260000  0.64980000  1.0 0.1073331323
H  H226  1  0.64980000  0.38780000  0.79980000  1.0 0.1073331323
H  H227  1  0.38780000  0.64980000  0.16260000  1.0 0.1073331323
H  H228  1  0.16260000  0.79980000  0.38780000  1.0 0.1073331323
H  H229  1  0.60020000  0.45020000  0.86220000  1.0 0.1073331323
H  H230  1  0.45020000  0.60020000  0.08740000  1.0 0.1073331323
H  H231  1  0.08740000  0.86220000  0.45020000  1.0 0.1073331323
H  H232  1  0.86220000  0.08740000  0.60020000  1.0 0.1073331323
H  H233  1  0.08740000  0.60020000  0.86220000  1.0 0.1073331323
H  H234  1  0.86220000  0.45020000  0.08740000  1.0 0.1073331323
H  H235  1  0.60020000  0.08740000  0.45020000  1.0 0.1073331323
H  H236  1  0.45020000  0.86220000  0.60020000  1.0 0.1073331323
H  H237  1  0.45020000  0.08740000  0.86220000  1.0 0.1073331323
H  H238  1  0.60020000  0.86220000  0.08740000  1.0 0.1073331323
H  H239  1  0.86220000  0.60020000  0.45020000  1.0 0.1073331323
H  H240  1  0.08740000  0.45020000  0.60020000  1.0 0.1073331323
H  H241  1  0.00440000  0.00260000  0.64880000  1.0 0.1215501415
H  H242  1  0.00260000  0.00440000  0.34420000  1.0 0.1215501415
H  H243  1  0.64880000  0.34420000  0.00440000  1.0 0.1215501415
H  H244  1  0.34420000  0.64880000  0.00260000  1.0 0.1215501415
H  H245  1  0.64880000  0.00440000  0.00260000  1.0 0.1215501415
H  H246  1  0.34420000  0.00260000  0.00440000  1.0 0.1215501415
H  H247  1  0.00440000  0.64880000  0.34420000  1.0 0.1215501415
H  H248  1  0.00260000  0.34420000  0.64880000  1.0 0.1215501415
H  H249  1  0.00260000  0.64880000  0.00440000  1.0 0.1215501415
H  H250  1  0.00440000  0.34420000  0.00260000  1.0 0.1215501415
H  H251  1  0.34420000  0.00440000  0.64880000  1.0 0.1215501415
H  H252  1  0.64880000  0.00260000  0.34420000  1.0 0.1215501415
H  H253  1  0.24560000  0.24740000  0.90580000  1.0 0.1215501415
H  H254  1  0.24740000  0.24560000  0.60120000  1.0 0.1215501415
H  H255  1  0.60120000  0.90580000  0.24740000  1.0 0.1215501415
H  H256  1  0.90580000  0.60120000  0.24560000  1.0 0.1215501415
H  H257  1  0.60120000  0.24560000  0.90580000  1.0 0.1215501415
H  H258  1  0.90580000  0.24740000  0.60120000  1.0 0.1215501415
H  H259  1  0.24560000  0.60120000  0.24740000  1.0 0.1215501415
H  H260  1  0.24740000  0.90580000  0.24560000  1.0 0.1215501415
H  H261  1  0.24740000  0.60120000  0.90580000  1.0 0.1215501415
H  H262  1  0.24560000  0.90580000  0.60120000  1.0 0.1215501415
H  H263  1  0.90580000  0.24560000  0.24740000  1.0 0.1215501415
H  H264  1  0.60120000  0.24740000  0.24560000  1.0 0.1215501415
H  H265  1  0.74560000  0.74740000  0.10120000  1.0 0.1215501415
H  H266  1  0.74740000  0.74560000  0.40580000  1.0 0.1215501415
H  H267  1  0.10120000  0.40580000  0.74560000  1.0 0.1215501415
H  H268  1  0.40580000  0.10120000  0.74740000  1.0 0.1215501415
H  H269  1  0.10120000  0.74560000  0.74740000  1.0 0.1215501415
H  H270  1  0.40580000  0.74740000  0.74560000  1.0 0.1215501415
H  H271  1  0.74560000  0.10120000  0.40580000  1.0 0.1215501415
H  H272  1  0.74740000  0.40580000  0.10120000  1.0 0.1215501415
H  H273  1  0.74740000  0.10120000  0.74560000  1.0 0.1215501415
H  H274  1  0.74560000  0.40580000  0.74740000  1.0 0.1215501415
H  H275  1  0.40580000  0.74560000  0.10120000  1.0 0.1215501415
H  H276  1  0.10120000  0.74740000  0.40580000  1.0 0.1215501415
H  H277  1  0.50440000  0.50260000  0.84420000  1.0 0.1215501415
H  H278  1  0.50260000  0.50440000  0.14880000  1.0 0.1215501415
H  H279  1  0.14880000  0.84420000  0.50260000  1.0 0.1215501415
H  H280  1  0.84420000  0.14880000  0.50440000  1.0 0.1215501415
H  H281  1  0.14880000  0.50440000  0.84420000  1.0 0.1215501415
H  H282  1  0.84420000  0.50260000  0.14880000  1.0 0.1215501415
H  H283  1  0.50440000  0.14880000  0.50260000  1.0 0.1215501415
H  H284  1  0.50260000  0.84420000  0.50440000  1.0 0.1215501415
H  H285  1  0.50260000  0.14880000  0.84420000  1.0 0.1215501415
H  H286  1  0.50440000  0.84420000  0.14880000  1.0 0.1215501415
H  H287  1  0.84420000  0.50440000  0.50260000  1.0 0.1215501415
H  H288  1  0.14880000  0.50260000  0.50440000  1.0 0.1215501415
H  H289  1  0.00730000  0.94730000  0.69690000  1.0 0.1368968812
H  H290  1  0.94730000  0.00730000  0.34850000  1.0 0.1368968812
H  H291  1  0.69690000  0.34850000  0.00730000  1.0 0.1368968812
H  H292  1  0.34850000  0.69690000  0.94730000  1.0 0.1368968812
H  H293  1  0.69690000  0.00730000  0.94730000  1.0 0.1368968812
H  H294  1  0.34850000  0.94730000  0.00730000  1.0 0.1368968812
H  H295  1  0.00730000  0.69690000  0.34850000  1.0 0.1368968812
H  H296  1  0.94730000  0.34850000  0.69690000  1.0 0.1368968812
H  H297  1  0.94730000  0.69690000  0.00730000  1.0 0.1368968812
H  H298  1  0.00730000  0.34850000  0.94730000  1.0 0.1368968812
H  H299  1  0.34850000  0.00730000  0.69690000  1.0 0.1368968812
H  H300  1  0.69690000  0.94730000  0.34850000  1.0 0.1368968812
H  H301  1  0.24270000  0.30270000  0.90150000  1.0 0.1368968812
H  H302  1  0.30270000  0.24270000  0.55310000  1.0 0.1368968812
H  H303  1  0.55310000  0.90150000  0.30270000  1.0 0.1368968812
H  H304  1  0.90150000  0.55310000  0.24270000  1.0 0.1368968812
H  H305  1  0.55310000  0.24270000  0.90150000  1.0 0.1368968812
H  H306  1  0.90150000  0.30270000  0.55310000  1.0 0.1368968812
H  H307  1  0.24270000  0.55310000  0.30270000  1.0 0.1368968812
H  H308  1  0.30270000  0.90150000  0.24270000  1.0 0.1368968812
H  H309  1  0.30270000  0.55310000  0.90150000  1.0 0.1368968812
H  H310  1  0.24270000  0.90150000  0.55310000  1.0 0.1368968812
H  H311  1  0.90150000  0.24270000  0.30270000  1.0 0.1368968812
H  H312  1  0.55310000  0.30270000  0.24270000  1.0 0.1368968812
H  H313  1  0.74270000  0.80270000  0.05310000  1.0 0.1368968812
H  H314  1  0.80270000  0.74270000  0.40150000  1.0 0.1368968812
H  H315  1  0.05310000  0.40150000  0.74270000  1.0 0.1368968812
H  H316  1  0.40150000  0.05310000  0.80270000  1.0 0.1368968812
H  H317  1  0.05310000  0.74270000  0.80270000  1.0 0.1368968812
H  H318  1  0.40150000  0.80270000  0.74270000  1.0 0.1368968812
H  H319  1  0.74270000  0.05310000  0.40150000  1.0 0.1368968812
H  H320  1  0.80270000  0.40150000  0.05310000  1.0 0.1368968812
H  H321  1  0.80270000  0.05310000  0.74270000  1.0 0.1368968812
H  H322  1  0.74270000  0.40150000  0.80270000  1.0 0.1368968812
H  H323  1  0.40150000  0.74270000  0.05310000  1.0 0.1368968812
H  H324  1  0.05310000  0.80270000  0.40150000  1.0 0.1368968812
H  H325  1  0.50730000  0.44730000  0.84850000  1.0 0.1368968812
H  H326  1  0.44730000  0.50730000  0.19690000  1.0 0.1368968812
H  H327  1  0.19690000  0.84850000  0.44730000  1.0 0.1368968812
H  H328  1  0.84850000  0.19690000  0.50730000  1.0 0.1368968812
H  H329  1  0.19690000  0.50730000  0.84850000  1.0 0.1368968812
H  H330  1  0.84850000  0.44730000  0.19690000  1.0 0.1368968812
H  H331  1  0.50730000  0.19690000  0.44730000  1.0 0.1368968812
H  H332  1  0.44730000  0.84850000  0.50730000  1.0 0.1368968812
H  H333  1  0.44730000  0.19690000  0.84850000  1.0 0.1368968812
H  H334  1  0.50730000  0.84850000  0.19690000  1.0 0.1368968812
H  H335  1  0.84850000  0.50730000  0.44730000  1.0 0.1368968812
H  H336  1  0.19690000  0.44730000  0.50730000  1.0 0.1368968812
H  H337  1  0.05570000  0.89570000  0.68790000  1.0 0.1004440452
H  H338  1  0.89570000  0.05570000  0.36070000  1.0 0.1004440452
H  H339  1  0.68790000  0.36070000  0.05570000  1.0 0.1004440452
H  H340  1  0.36070000  0.68790000  0.89570000  1.0 0.1004440452
H  H341  1  0.68790000  0.05570000  0.89570000  1.0 0.1004440452
H  H342  1  0.36070000  0.89570000  0.05570000  1.0 0.1004440452
H  H343  1  0.05570000  0.68790000  0.36070000  1.0 0.1004440452
H  H344  1  0.89570000  0.36070000  0.68790000  1.0 0.1004440452
H  H345  1  0.89570000  0.68790000  0.05570000  1.0 0.1004440452
H  H346  1  0.05570000  0.36070000  0.89570000  1.0 0.1004440452
H  H347  1  0.36070000  0.05570000  0.68790000  1.0 0.1004440452
H  H348  1  0.68790000  0.89570000  0.36070000  1.0 0.1004440452
H  H349  1  0.19430000  0.35430000  0.88930000  1.0 0.1004440452
H  H350  1  0.35430000  0.19430000  0.56210000  1.0 0.1004440452
H  H351  1  0.56210000  0.88930000  0.35430000  1.0 0.1004440452
H  H352  1  0.88930000  0.56210000  0.19430000  1.0 0.1004440452
H  H353  1  0.56210000  0.19430000  0.88930000  1.0 0.1004440452
H  H354  1  0.88930000  0.35430000  0.56210000  1.0 0.1004440452
H  H355  1  0.19430000  0.56210000  0.35430000  1.0 0.1004440452
H  H356  1  0.35430000  0.88930000  0.19430000  1.0 0.1004440452
H  H357  1  0.35430000  0.56210000  0.88930000  1.0 0.1004440452
H  H358  1  0.19430000  0.88930000  0.56210000  1.0 0.1004440452
H  H359  1  0.88930000  0.19430000  0.35430000  1.0 0.1004440452
H  H360  1  0.56210000  0.35430000  0.19430000  1.0 0.1004440452
H  H361  1  0.69430000  0.85430000  0.06210000  1.0 0.1004440452
H  H362  1  0.85430000  0.69430000  0.38930000  1.0 0.1004440452
H  H363  1  0.06210000  0.38930000  0.69430000  1.0 0.1004440452
H  H364  1  0.38930000  0.06210000  0.85430000  1.0 0.1004440452
H  H365  1  0.06210000  0.69430000  0.85430000  1.0 0.1004440452
H  H366  1  0.38930000  0.85430000  0.69430000  1.0 0.1004440452
H  H367  1  0.69430000  0.06210000  0.38930000  1.0 0.1004440452
H  H368  1  0.85430000  0.38930000  0.06210000  1.0 0.1004440452
H  H369  1  0.85430000  0.06210000  0.69430000  1.0 0.1004440452
H  H370  1  0.69430000  0.38930000  0.85430000  1.0 0.1004440452
H  H371  1  0.38930000  0.69430000  0.06210000  1.0 0.1004440452
H  H372  1  0.06210000  0.85430000  0.38930000  1.0 0.1004440452
H  H373  1  0.55570000  0.39570000  0.86070000  1.0 0.1004440452
H  H374  1  0.39570000  0.55570000  0.18790000  1.0 0.1004440452
H  H375  1  0.18790000  0.86070000  0.39570000  1.0 0.1004440452
H  H376  1  0.86070000  0.18790000  0.55570000  1.0 0.1004440452
H  H377  1  0.18790000  0.55570000  0.86070000  1.0 0.1004440452
H  H378  1  0.86070000  0.39570000  0.18790000  1.0 0.1004440452
H  H379  1  0.55570000  0.18790000  0.39570000  1.0 0.1004440452
H  H380  1  0.39570000  0.86070000  0.55570000  1.0 0.1004440452
H  H381  1  0.39570000  0.18790000  0.86070000  1.0 0.1004440452
H  H382  1  0.55570000  0.86070000  0.18790000  1.0 0.1004440452
H  H383  1  0.86070000  0.55570000  0.39570000  1.0 0.1004440452
H  H384  1  0.18790000  0.39570000  0.55570000  1.0 0.1004440452
H  H385  1  0.13730000  0.98810000  0.50290000  1.0 0.1215501415
H  H386  1  0.98810000  0.13730000  0.37170000  1.0 0.1215501415
H  H387  1  0.50290000  0.37170000  0.13730000  1.0 0.1215501415
H  H388  1  0.37170000  0.50290000  0.98810000  1.0 0.1215501415
H  H389  1  0.50290000  0.13730000  0.98810000  1.0 0.1215501415
H  H390  1  0.37170000  0.98810000  0.13730000  1.0 0.1215501415
H  H391  1  0.13730000  0.50290000  0.37170000  1.0 0.1215501415
H  H392  1  0.98810000  0.37170000  0.50290000  1.0 0.1215501415
H  H393  1  0.98810000  0.50290000  0.13730000  1.0 0.1215501415
H  H394  1  0.13730000  0.37170000  0.98810000  1.0 0.1215501415
H  H395  1  0.37170000  0.13730000  0.50290000  1.0 0.1215501415
H  H396  1  0.50290000  0.98810000  0.37170000  1.0 0.1215501415
H  H397  1  0.11270000  0.26190000  0.87830000  1.0 0.1215501415
H  H398  1  0.26190000  0.11270000  0.74710000  1.0 0.1215501415
H  H399  1  0.74710000  0.87830000  0.26190000  1.0 0.1215501415
H  H400  1  0.87830000  0.74710000  0.11270000  1.0 0.1215501415
H  H401  1  0.74710000  0.11270000  0.87830000  1.0 0.1215501415
H  H402  1  0.87830000  0.26190000  0.74710000  1.0 0.1215501415
H  H403  1  0.11270000  0.74710000  0.26190000  1.0 0.1215501415
H  H404  1  0.26190000  0.87830000  0.11270000  1.0 0.1215501415
H  H405  1  0.26190000  0.74710000  0.87830000  1.0 0.1215501415
H  H406  1  0.11270000  0.87830000  0.74710000  1.0 0.1215501415
H  H407  1  0.87830000  0.11270000  0.26190000  1.0 0.1215501415
H  H408  1  0.74710000  0.26190000  0.11270000  1.0 0.1215501415
H  H409  1  0.61270000  0.76190000  0.24710000  1.0 0.1215501415
H  H410  1  0.76190000  0.61270000  0.37830000  1.0 0.1215501415
H  H411  1  0.24710000  0.37830000  0.61270000  1.0 0.1215501415
H  H412  1  0.37830000  0.24710000  0.76190000  1.0 0.1215501415
H  H413  1  0.24710000  0.61270000  0.76190000  1.0 0.1215501415
H  H414  1  0.37830000  0.76190000  0.61270000  1.0 0.1215501415
H  H415  1  0.61270000  0.24710000  0.37830000  1.0 0.1215501415
H  H416  1  0.76190000  0.37830000  0.24710000  1.0 0.1215501415
H  H417  1  0.76190000  0.24710000  0.61270000  1.0 0.1215501415
H  H418  1  0.61270000  0.37830000  0.76190000  1.0 0.1215501415
H  H419  1  0.37830000  0.61270000  0.24710000  1.0 0.1215501415
H  H420  1  0.24710000  0.76190000  0.37830000  1.0 0.1215501415
H  H421  1  0.63730000  0.48810000  0.87170000  1.0 0.1215501415
H  H422  1  0.48810000  0.63730000  0.00290000  1.0 0.1215501415
H  H423  1  0.00290000  0.87170000  0.48810000  1.0 0.1215501415
H  H424  1  0.87170000  0.00290000  0.63730000  1.0 0.1215501415
H  H425  1  0.00290000  0.63730000  0.87170000  1.0 0.1215501415
H  H426  1  0.87170000  0.48810000  0.00290000  1.0 0.1215501415
H  H427  1  0.63730000  0.00290000  0.48810000  1.0 0.1215501415
H  H428  1  0.48810000  0.87170000  0.63730000  1.0 0.1215501415
H  H429  1  0.48810000  0.00290000  0.87170000  1.0 0.1215501415
H  H430  1  0.63730000  0.87170000  0.00290000  1.0 0.1215501415
H  H431  1  0.87170000  0.63730000  0.48810000  1.0 0.1215501415
H  H432  1  0.00290000  0.48810000  0.63730000  1.0 0.1215501415
H  H433  1  0.17920000  0.98860000  0.44500000  1.0 0.1368968812
H  H434  1  0.98860000  0.17920000  0.38720000  1.0 0.1368968812
H  H435  1  0.44500000  0.38720000  0.17920000  1.0 0.1368968812
H  H436  1  0.38720000  0.44500000  0.98860000  1.0 0.1368968812
H  H437  1  0.44500000  0.17920000  0.98860000  1.0 0.1368968812
H  H438  1  0.38720000  0.98860000  0.17920000  1.0 0.1368968812
H  H439  1  0.17920000  0.44500000  0.38720000  1.0 0.1368968812
H  H440  1  0.98860000  0.38720000  0.44500000  1.0 0.1368968812
H  H441  1  0.98860000  0.44500000  0.17920000  1.0 0.1368968812
H  H442  1  0.17920000  0.38720000  0.98860000  1.0 0.1368968812
H  H443  1  0.38720000  0.17920000  0.44500000  1.0 0.1368968812
H  H444  1  0.44500000  0.98860000  0.38720000  1.0 0.1368968812
H  H445  1  0.07080000  0.26140000  0.86280000  1.0 0.1368968812
H  H446  1  0.26140000  0.07080000  0.80500000  1.0 0.1368968812
H  H447  1  0.80500000  0.86280000  0.26140000  1.0 0.1368968812
H  H448  1  0.86280000  0.80500000  0.07080000  1.0 0.1368968812
H  H449  1  0.80500000  0.07080000  0.86280000  1.0 0.1368968812
H  H450  1  0.86280000  0.26140000  0.80500000  1.0 0.1368968812
H  H451  1  0.07080000  0.80500000  0.26140000  1.0 0.1368968812
H  H452  1  0.26140000  0.86280000  0.07080000  1.0 0.1368968812
H  H453  1  0.26140000  0.80500000  0.86280000  1.0 0.1368968812
H  H454  1  0.07080000  0.86280000  0.80500000  1.0 0.1368968812
H  H455  1  0.86280000  0.07080000  0.26140000  1.0 0.1368968812
H  H456  1  0.80500000  0.26140000  0.07080000  1.0 0.1368968812
H  H457  1  0.57080000  0.76140000  0.30500000  1.0 0.1368968812
H  H458  1  0.76140000  0.57080000  0.36280000  1.0 0.1368968812
H  H459  1  0.30500000  0.36280000  0.57080000  1.0 0.1368968812
H  H460  1  0.36280000  0.30500000  0.76140000  1.0 0.1368968812
H  H461  1  0.30500000  0.57080000  0.76140000  1.0 0.1368968812
H  H462  1  0.36280000  0.76140000  0.57080000  1.0 0.1368968812
H  H463  1  0.57080000  0.30500000  0.36280000  1.0 0.1368968812
H  H464  1  0.76140000  0.36280000  0.30500000  1.0 0.1368968812
H  H465  1  0.76140000  0.30500000  0.57080000  1.0 0.1368968812
H  H466  1  0.57080000  0.36280000  0.76140000  1.0 0.1368968812
H  H467  1  0.36280000  0.57080000  0.30500000  1.0 0.1368968812
H  H468  1  0.30500000  0.76140000  0.36280000  1.0 0.1368968812
H  H469  1  0.67920000  0.48860000  0.88720000  1.0 0.1368968812
H  H470  1  0.48860000  0.67920000  0.94500000  1.0 0.1368968812
H  H471  1  0.94500000  0.88720000  0.48860000  1.0 0.1368968812
H  H472  1  0.88720000  0.94500000  0.67920000  1.0 0.1368968812
H  H473  1  0.94500000  0.67920000  0.88720000  1.0 0.1368968812
H  H474  1  0.88720000  0.48860000  0.94500000  1.0 0.1368968812
H  H475  1  0.67920000  0.94500000  0.48860000  1.0 0.1368968812
H  H476  1  0.48860000  0.88720000  0.67920000  1.0 0.1368968812
H  H477  1  0.48860000  0.94500000  0.88720000  1.0 0.1368968812
H  H478  1  0.67920000  0.88720000  0.94500000  1.0 0.1368968812
H  H479  1  0.88720000  0.67920000  0.48860000  1.0 0.1368968812
H  H480  1  0.94500000  0.48860000  0.67920000  1.0 0.1368968812
H  H481  1  0.17140000  0.04160000  0.39560000  1.0 0.1004440452
H  H482  1  0.04160000  0.17140000  0.39140000  1.0 0.1004440452
H  H483  1  0.39560000  0.39140000  0.17140000  1.0 0.1004440452
H  H484  1  0.39140000  0.39560000  0.04160000  1.0 0.1004440452
H  H485  1  0.39560000  0.17140000  0.04160000  1.0 0.1004440452
H  H486  1  0.39140000  0.04160000  0.17140000  1.0 0.1004440452
H  H487  1  0.17140000  0.39560000  0.39140000  1.0 0.1004440452
H  H488  1  0.04160000  0.39140000  0.39560000  1.0 0.1004440452
H  H489  1  0.04160000  0.39560000  0.17140000  1.0 0.1004440452
H  H490  1  0.17140000  0.39140000  0.04160000  1.0 0.1004440452
H  H491  1  0.39140000  0.17140000  0.39560000  1.0 0.1004440452
H  H492  1  0.39560000  0.04160000  0.39140000  1.0 0.1004440452
H  H493  1  0.07860000  0.20840000  0.85860000  1.0 0.1004440452
H  H494  1  0.20840000  0.07860000  0.85440000  1.0 0.1004440452
H  H495  1  0.85440000  0.85860000  0.20840000  1.0 0.1004440452
H  H496  1  0.85860000  0.85440000  0.07860000  1.0 0.1004440452
H  H497  1  0.85440000  0.07860000  0.85860000  1.0 0.1004440452
H  H498  1  0.85860000  0.20840000  0.85440000  1.0 0.1004440452
H  H499  1  0.07860000  0.85440000  0.20840000  1.0 0.1004440452
H  H500  1  0.20840000  0.85860000  0.07860000  1.0 0.1004440452
H  H501  1  0.20840000  0.85440000  0.85860000  1.0 0.1004440452
H  H502  1  0.07860000  0.85860000  0.85440000  1.0 0.1004440452
H  H503  1  0.85860000  0.07860000  0.20840000  1.0 0.1004440452
H  H504  1  0.85440000  0.20840000  0.07860000  1.0 0.1004440452
H  H505  1  0.57860000  0.70840000  0.35440000  1.0 0.1004440452
H  H506  1  0.70840000  0.57860000  0.35860000  1.0 0.1004440452
H  H507  1  0.35440000  0.35860000  0.57860000  1.0 0.1004440452
H  H508  1  0.35860000  0.35440000  0.70840000  1.0 0.1004440452
H  H509  1  0.35440000  0.57860000  0.70840000  1.0 0.1004440452
H  H510  1  0.35860000  0.70840000  0.57860000  1.0 0.1004440452
H  H511  1  0.57860000  0.35440000  0.35860000  1.0 0.1004440452
H  H512  1  0.70840000  0.35860000  0.35440000  1.0 0.1004440452
H  H513  1  0.70840000  0.35440000  0.57860000  1.0 0.1004440452
H  H514  1  0.57860000  0.35860000  0.70840000  1.0 0.1004440452
H  H515  1  0.35860000  0.57860000  0.35440000  1.0 0.1004440452
H  H516  1  0.35440000  0.70840000  0.35860000  1.0 0.1004440452
H  H517  1  0.67140000  0.54160000  0.89140000  1.0 0.1004440452
H  H518  1  0.54160000  0.67140000  0.89560000  1.0 0.1004440452
H  H519  1  0.89560000  0.89140000  0.54160000  1.0 0.1004440452
H  H520  1  0.89140000  0.89560000  0.67140000  1.0 0.1004440452
H  H521  1  0.89560000  0.67140000  0.89140000  1.0 0.1004440452
H  H522  1  0.89140000  0.54160000  0.89560000  1.0 0.1004440452
H  H523  1  0.67140000  0.89560000  0.54160000  1.0 0.1004440452
H  H524  1  0.54160000  0.89140000  0.67140000  1.0 0.1004440452
H  H525  1  0.54160000  0.89560000  0.89140000  1.0 0.1004440452
H  H526  1  0.67140000  0.89140000  0.89560000  1.0 0.1004440452
H  H527  1  0.89140000  0.67140000  0.54160000  1.0 0.1004440452
H  H528  1  0.89560000  0.54160000  0.67140000  1.0 0.1004440452
H  H529  1  0.08320000  0.09300000  0.45800000  1.0 0.1004440452
H  H530  1  0.09300000  0.08320000  0.36580000  1.0 0.1004440452
H  H531  1  0.45800000  0.36580000  0.08320000  1.0 0.1004440452
H  H532  1  0.36580000  0.45800000  0.09300000  1.0 0.1004440452
H  H533  1  0.45800000  0.08320000  0.09300000  1.0 0.1004440452
H  H534  1  0.36580000  0.09300000  0.08320000  1.0 0.1004440452
H  H535  1  0.08320000  0.45800000  0.36580000  1.0 0.1004440452
H  H536  1  0.09300000  0.36580000  0.45800000  1.0 0.1004440452
H  H537  1  0.09300000  0.45800000  0.08320000  1.0 0.1004440452
H  H538  1  0.08320000  0.36580000  0.09300000  1.0 0.1004440452
H  H539  1  0.36580000  0.08320000  0.45800000  1.0 0.1004440452
H  H540  1  0.45800000  0.09300000  0.36580000  1.0 0.1004440452
H  H541  1  0.16680000  0.15700000  0.88420000  1.0 0.1004440452
H  H542  1  0.15700000  0.16680000  0.79200000  1.0 0.1004440452
H  H543  1  0.79200000  0.88420000  0.15700000  1.0 0.1004440452
H  H544  1  0.88420000  0.79200000  0.16680000  1.0 0.1004440452
H  H545  1  0.79200000  0.16680000  0.88420000  1.0 0.1004440452
H  H546  1  0.88420000  0.15700000  0.79200000  1.0 0.1004440452
H  H547  1  0.16680000  0.79200000  0.15700000  1.0 0.1004440452
H  H548  1  0.15700000  0.88420000  0.16680000  1.0 0.1073331323
H  H549  1  0.15700000  0.79200000  0.88420000  1.0 0.1004440452
H  H550  1  0.16680000  0.88420000  0.79200000  1.0 0.1004440452
H  H551  1  0.88420000  0.16680000  0.15700000  1.0 0.1004440452
H  H552  1  0.79200000  0.15700000  0.16680000  1.0 0.1004440452
H  H553  1  0.66680000  0.65700000  0.29200000  1.0 0.1004440452
H  H554  1  0.65700000  0.66680000  0.38420000  1.0 0.1004440452
H  H555  1  0.29200000  0.38420000  0.66680000  1.0 0.1004440452
H  H556  1  0.38420000  0.29200000  0.65700000  1.0 0.1004440452
H  H557  1  0.29200000  0.66680000  0.65700000  1.0 0.1004440452
H  H558  1  0.38420000  0.65700000  0.66680000  1.0 0.1004440452
H  H559  1  0.66680000  0.29200000  0.38420000  1.0 0.1004440452
H  H560  1  0.65700000  0.38420000  0.29200000  1.0 0.1004440452
H  H561  1  0.65700000  0.29200000  0.66680000  1.0 0.1004440452
H  H562  1  0.66680000  0.38420000  0.65700000  1.0 0.1004440452
H  H563  1  0.38420000  0.66680000  0.29200000  1.0 0.1004440452
H  H564  1  0.29200000  0.65700000  0.38420000  1.0 0.1004440452
H  H565  1  0.58320000  0.59300000  0.86580000  1.0 0.1004440452
H  H566  1  0.59300000  0.58320000  0.95800000  1.0 0.1004440452
H  H567  1  0.95800000  0.86580000  0.59300000  1.0 0.1004440452
H  H568  1  0.86580000  0.95800000  0.58320000  1.0 0.1004440452
H  H569  1  0.95800000  0.58320000  0.86580000  1.0 0.1004440452
H  H570  1  0.86580000  0.59300000  0.95800000  1.0 0.1004440452
H  H571  1  0.58320000  0.95800000  0.59300000  1.0 0.1004440452
H  H572  1  0.59300000  0.86580000  0.58320000  1.0 0.1004440452
H  H573  1  0.59300000  0.95800000  0.86580000  1.0 0.1004440452
H  H574  1  0.58320000  0.86580000  0.95800000  1.0 0.1073331323
H  H575  1  0.86580000  0.58320000  0.59300000  1.0 0.1004440452
H  H576  1  0.95800000  0.59300000  0.58320000  1.0 0.1004440452
H  H577  1  0.14900000  0.11520000  0.43300000  1.0 0.1004440452
H  H578  1  0.11520000  0.14900000  0.30280000  1.0 0.1004440452
H  H579  1  0.43300000  0.30280000  0.14900000  1.0 0.1004440452
H  H580  1  0.30280000  0.43300000  0.11520000  1.0 0.1004440452
H  H581  1  0.43300000  0.14900000  0.11520000  1.0 0.1004440452
H  H582  1  0.30280000  0.11520000  0.14900000  1.0 0.1004440452
H  H583  1  0.14900000  0.43300000  0.30280000  1.0 0.1004440452
H  H584  1  0.11520000  0.30280000  0.43300000  1.0 0.1004440452
H  H585  1  0.11520000  0.43300000  0.14900000  1.0 0.1004440452
H  H586  1  0.14900000  0.30280000  0.11520000  1.0 0.1004440452
H  H587  1  0.30280000  0.14900000  0.43300000  1.0 0.1004440452
H  H588  1  0.43300000  0.11520000  0.30280000  1.0 0.1004440452
H  H589  1  0.10100000  0.13480000  0.94720000  1.0 0.1004440452
H  H590  1  0.13480000  0.10100000  0.81700000  1.0 0.1004440452
H  H591  1  0.81700000  0.94720000  0.13480000  1.0 0.1004440452
H  H592  1  0.94720000  0.81700000  0.10100000  1.0 0.1004440452
H  H593  1  0.81700000  0.10100000  0.94720000  1.0 0.1004440452
H  H594  1  0.94720000  0.13480000  0.81700000  1.0 0.1004440452
H  H595  1  0.10100000  0.81700000  0.13480000  1.0 0.1073331323
H  H596  1  0.13480000  0.94720000  0.10100000  1.0 0.1004440452
H  H597  1  0.13480000  0.81700000  0.94720000  1.0 0.1004440452
H  H598  1  0.10100000  0.94720000  0.81700000  1.0 0.1004440452
H  H599  1  0.94720000  0.10100000  0.13480000  1.0 0.1004440452
H  H600  1  0.81700000  0.13480000  0.10100000  1.0 0.1004440452
H  H601  1  0.60100000  0.63480000  0.31700000  1.0 0.1004440452
H  H602  1  0.63480000  0.60100000  0.44720000  1.0 0.1004440452
H  H603  1  0.31700000  0.44720000  0.60100000  1.0 0.1004440452
H  H604  1  0.44720000  0.31700000  0.63480000  1.0 0.1004440452
H  H605  1  0.31700000  0.60100000  0.63480000  1.0 0.1004440452
H  H606  1  0.44720000  0.63480000  0.60100000  1.0 0.1004440452
H  H607  1  0.60100000  0.31700000  0.44720000  1.0 0.1004440452
H  H608  1  0.63480000  0.44720000  0.31700000  1.0 0.1004440452
H  H609  1  0.63480000  0.31700000  0.60100000  1.0 0.1004440452
H  H610  1  0.60100000  0.44720000  0.63480000  1.0 0.1004440452
H  H611  1  0.44720000  0.60100000  0.31700000  1.0 0.1004440452
H  H612  1  0.31700000  0.63480000  0.44720000  1.0 0.1004440452
H  H613  1  0.64900000  0.61520000  0.80280000  1.0 0.1004440452
H  H614  1  0.61520000  0.64900000  0.93300000  1.0 0.1004440452
H  H615  1  0.93300000  0.80280000  0.61520000  1.0 0.1004440452
H  H616  1  0.80280000  0.93300000  0.64900000  1.0 0.1004440452
H  H617  1  0.93300000  0.64900000  0.80280000  1.0 0.1004440452
H  H618  1  0.80280000  0.61520000  0.93300000  1.0 0.1004440452
H  H619  1  0.64900000  0.93300000  0.61520000  1.0 0.1004440452
H  H620  1  0.61520000  0.80280000  0.64900000  1.0 0.1004440452
H  H621  1  0.61520000  0.93300000  0.80280000  1.0 0.1004440452
H  H622  1  0.64900000  0.80280000  0.93300000  1.0 0.1004440452
H  H623  1  0.80280000  0.64900000  0.61520000  1.0 0.1004440452
H  H624  1  0.93300000  0.61520000  0.64900000  1.0 0.1004440452
H  H625  1  0.20000000  0.10240000  0.44220000  1.0 0.1368968812
H  H626  1  0.10240000  0.20000000  0.25540000  1.0 0.1368968812
H  H627  1  0.44220000  0.25540000  0.20000000  1.0 0.1368968812
H  H628  1  0.25540000  0.44220000  0.10240000  1.0 0.1368968812
H  H629  1  0.44220000  0.20000000  0.10240000  1.0 0.1368968812
H  H630  1  0.25540000  0.10240000  0.20000000  1.0 0.1368968812
H  H631  1  0.20000000  0.44220000  0.25540000  1.0 0.1368968812
H  H632  1  0.10240000  0.25540000  0.44220000  1.0 0.1368968812
H  H633  1  0.10240000  0.44220000  0.20000000  1.0 0.1368968812
H  H634  1  0.20000000  0.25540000  0.10240000  1.0 0.1368968812
H  H635  1  0.25540000  0.20000000  0.44220000  1.0 0.1368968812
H  H636  1  0.44220000  0.10240000  0.25540000  1.0 0.1368968812
H  H637  1  0.05000000  0.14760000  0.99460000  1.0 0.1368968812
H  H638  1  0.14760000  0.05000000  0.80780000  1.0 0.1368968812
H  H639  1  0.80780000  0.99460000  0.14760000  1.0 0.1368968812
H  H640  1  0.99460000  0.80780000  0.05000000  1.0 0.1368968812
H  H641  1  0.80780000  0.05000000  0.99460000  1.0 0.1368968812
H  H642  1  0.99460000  0.14760000  0.80780000  1.0 0.1368968812
H  H643  1  0.05000000  0.80780000  0.14760000  1.0 0.1368968812
H  H644  1  0.14760000  0.99460000  0.05000000  1.0 0.1368968812
H  H645  1  0.14760000  0.80780000  0.99460000  1.0 0.1368968812
H  H646  1  0.05000000  0.99460000  0.80780000  1.0 0.1368968812
H  H647  1  0.99460000  0.05000000  0.14760000  1.0 0.1368968812
H  H648  1  0.80780000  0.14760000  0.05000000  1.0 0.1368968812
H  H649  1  0.55000000  0.64760000  0.30780000  1.0 0.1368968812
H  H650  1  0.64760000  0.55000000  0.49460000  1.0 0.1368968812
H  H651  1  0.30780000  0.49460000  0.55000000  1.0 0.1368968812
H  H652  1  0.49460000  0.30780000  0.64760000  1.0 0.1368968812
H  H653  1  0.30780000  0.55000000  0.64760000  1.0 0.1368968812
H  H654  1  0.49460000  0.64760000  0.55000000  1.0 0.1368968812
H  H655  1  0.55000000  0.30780000  0.49460000  1.0 0.1368968812
H  H656  1  0.64760000  0.49460000  0.30780000  1.0 0.1368968812
H  H657  1  0.64760000  0.30780000  0.55000000  1.0 0.1368968812
H  H658  1  0.55000000  0.49460000  0.64760000  1.0 0.1368968812
H  H659  1  0.49460000  0.55000000  0.30780000  1.0 0.1368968812
H  H660  1  0.30780000  0.64760000  0.49460000  1.0 0.1368968812
H  H661  1  0.70000000  0.60240000  0.75540000  1.0 0.1368968812
H  H662  1  0.60240000  0.70000000  0.94220000  1.0 0.1368968812
H  H663  1  0.94220000  0.75540000  0.60240000  1.0 0.1368968812
H  H664  1  0.75540000  0.94220000  0.70000000  1.0 0.1368968812
H  H665  1  0.94220000  0.70000000  0.75540000  1.0 0.1368968812
H  H666  1  0.75540000  0.60240000  0.94220000  1.0 0.1368968812
H  H667  1  0.70000000  0.94220000  0.60240000  1.0 0.1368968812
H  H668  1  0.60240000  0.75540000  0.70000000  1.0 0.1368968812
H  H669  1  0.60240000  0.94220000  0.75540000  1.0 0.1368968812
H  H670  1  0.70000000  0.75540000  0.94220000  1.0 0.1368968812
H  H671  1  0.75540000  0.70000000  0.60240000  1.0 0.1368968812
H  H672  1  0.94220000  0.60240000  0.70000000  1.0 0.1368968812
H  H673  1  0.25600000  0.09740000  0.39400000  1.0 0.1215501415
H  H674  1  0.09740000  0.25600000  0.25260000  1.0 0.1215501415
H  H675  1  0.39400000  0.25260000  0.25600000  1.0 0.1215501415
H  H676  1  0.25260000  0.39400000  0.09740000  1.0 0.1215501415
H  H677  1  0.39400000  0.25600000  0.09740000  1.0 0.1215501415
H  H678  1  0.25260000  0.09740000  0.25600000  1.0 0.1215501415
H  H679  1  0.25600000  0.39400000  0.25260000  1.0 0.1215501415
H  H680  1  0.09740000  0.25260000  0.39400000  1.0 0.1215501415
H  H681  1  0.09740000  0.39400000  0.25600000  1.0 0.1215501415
H  H682  1  0.25600000  0.25260000  0.09740000  1.0 0.1215501415
H  H683  1  0.25260000  0.25600000  0.39400000  1.0 0.1215501415
H  H684  1  0.39400000  0.09740000  0.25260000  1.0 0.1215501415
H  H685  1  0.99400000  0.15260000  0.99740000  1.0 0.1215501415
H  H686  1  0.15260000  0.99400000  0.85600000  1.0 0.1215501415
H  H687  1  0.85600000  0.99740000  0.15260000  1.0 0.1215501415
H  H688  1  0.99740000  0.85600000  0.99400000  1.0 0.1215501415
H  H689  1  0.85600000  0.99400000  0.99740000  1.0 0.1215501415
H  H690  1  0.99740000  0.15260000  0.85600000  1.0 0.1215501415
H  H691  1  0.99400000  0.85600000  0.15260000  1.0 0.1215501415
H  H692  1  0.15260000  0.99740000  0.99400000  1.0 0.1215501415
H  H693  1  0.15260000  0.85600000  0.99740000  1.0 0.1215501415
H  H694  1  0.99400000  0.99740000  0.85600000  1.0 0.1215501415
H  H695  1  0.99740000  0.99400000  0.15260000  1.0 0.1215501415
H  H696  1  0.85600000  0.15260000  0.99400000  1.0 0.1215501415
H  H697  1  0.49400000  0.65260000  0.35600000  1.0 0.1215501415
H  H698  1  0.65260000  0.49400000  0.49740000  1.0 0.1215501415
H  H699  1  0.35600000  0.49740000  0.49400000  1.0 0.1215501415
H  H700  1  0.49740000  0.35600000  0.65260000  1.0 0.1215501415
H  H701  1  0.35600000  0.49400000  0.65260000  1.0 0.1215501415
H  H702  1  0.49740000  0.65260000  0.49400000  1.0 0.1215501415
H  H703  1  0.49400000  0.35600000  0.49740000  1.0 0.1215501415
H  H704  1  0.65260000  0.49740000  0.35600000  1.0 0.1215501415
H  H705  1  0.65260000  0.35600000  0.49400000  1.0 0.1215501415
H  H706  1  0.49400000  0.49740000  0.65260000  1.0 0.1215501415
H  H707  1  0.49740000  0.49400000  0.35600000  1.0 0.1215501415
H  H708  1  0.35600000  0.65260000  0.49740000  1.0 0.1215501415
H  H709  1  0.75600000  0.59740000  0.75260000  1.0 0.1215501415
H  H710  1  0.59740000  0.75600000  0.89400000  1.0 0.1215501415
H  H711  1  0.89400000  0.75260000  0.59740000  1.0 0.1215501415
H  H712  1  0.75260000  0.89400000  0.75600000  1.0 0.1215501415
H  H713  1  0.89400000  0.75600000  0.75260000  1.0 0.1215501415
H  H714  1  0.75260000  0.59740000  0.89400000  1.0 0.1215501415
H  H715  1  0.75600000  0.89400000  0.59740000  1.0 0.1215501415
H  H716  1  0.59740000  0.75260000  0.75600000  1.0 0.1215501415
H  H717  1  0.59740000  0.89400000  0.75260000  1.0 0.1215501415
H  H718  1  0.75600000  0.75260000  0.89400000  1.0 0.1215501415
H  H719  1  0.75260000  0.75600000  0.59740000  1.0 0.1215501415
H  H720  1  0.89400000  0.59740000  0.75600000  1.0 0.1215501415
H  H721  1  0.20350000  0.11930000  0.33110000  1.0 0.1073331323
H  H722  1  0.11930000  0.20350000  0.34610000  1.0 0.1073331323
H  H723  1  0.33110000  0.34610000  0.20350000  1.0 0.1073331323
H  H724  1  0.34610000  0.33110000  0.11930000  1.0 0.1073331323
H  H725  1  0.33110000  0.20350000  0.11930000  1.0 0.1073331323
H  H726  1  0.34610000  0.11930000  0.20350000  1.0 0.1073331323
H  H727  1  0.20350000  0.33110000  0.34610000  1.0 0.1073331323
H  H728  1  0.11930000  0.34610000  0.33110000  1.0 0.1073331323
H  H729  1  0.11930000  0.33110000  0.20350000  1.0 0.1073331323
H  H730  1  0.20350000  0.34610000  0.11930000  1.0 0.1073331323
H  H731  1  0.34610000  0.20350000  0.33110000  1.0 0.1073331323
H  H732  1  0.33110000  0.11930000  0.34610000  1.0 0.1073331323
H  H733  1  0.04650000  0.13070000  0.90390000  1.0 0.1073331323
H  H734  1  0.13070000  0.04650000  0.91890000  1.0 0.1073331323
H  H735  1  0.91890000  0.90390000  0.13070000  1.0 0.1073331323
H  H736  1  0.90390000  0.91890000  0.04650000  1.0 0.1073331323
H  H737  1  0.91890000  0.04650000  0.90390000  1.0 0.1073331323
H  H738  1  0.90390000  0.13070000  0.91890000  1.0 0.1073331323
H  H739  1  0.04650000  0.91890000  0.13070000  1.0 0.1073331323
H  H740  1  0.13070000  0.90390000  0.04650000  1.0 0.1073331323
H  H741  1  0.13070000  0.91890000  0.90390000  1.0 0.1073331323
H  H742  1  0.04650000  0.90390000  0.91890000  1.0 0.1073331323
H  H743  1  0.90390000  0.04650000  0.13070000  1.0 0.1073331323
H  H744  1  0.91890000  0.13070000  0.04650000  1.0 0.1073331323
H  H745  1  0.54650000  0.63070000  0.41890000  1.0 0.1073331323
H  H746  1  0.63070000  0.54650000  0.40390000  1.0 0.1073331323
H  H747  1  0.41890000  0.40390000  0.54650000  1.0 0.1073331323
H  H748  1  0.40390000  0.41890000  0.63070000  1.0 0.1073331323
H  H749  1  0.41890000  0.54650000  0.63070000  1.0 0.1073331323
H  H750  1  0.40390000  0.63070000  0.54650000  1.0 0.1073331323
H  H751  1  0.54650000  0.41890000  0.40390000  1.0 0.1073331323
H  H752  1  0.63070000  0.40390000  0.41890000  1.0 0.1073331323
H  H753  1  0.63070000  0.41890000  0.54650000  1.0 0.1073331323
H  H754  1  0.54650000  0.40390000  0.63070000  1.0 0.1073331323
H  H755  1  0.40390000  0.54650000  0.41890000  1.0 0.1073331323
H  H756  1  0.41890000  0.63070000  0.40390000  1.0 0.1073331323
H  H757  1  0.70350000  0.61930000  0.84610000  1.0 0.1073331323
H  H758  1  0.61930000  0.70350000  0.83110000  1.0 0.1073331323
H  H759  1  0.83110000  0.84610000  0.61930000  1.0 0.1073331323
H  H760  1  0.84610000  0.83110000  0.70350000  1.0 0.1073331323
H  H761  1  0.83110000  0.70350000  0.84610000  1.0 0.1073331323
H  H762  1  0.84610000  0.61930000  0.83110000  1.0 0.1073331323
H  H763  1  0.70350000  0.83110000  0.61930000  1.0 0.1073331323
H  H764  1  0.61930000  0.84610000  0.70350000  1.0 0.1073331323
H  H765  1  0.61930000  0.83110000  0.84610000  1.0 0.1073331323
H  H766  1  0.70350000  0.84610000  0.83110000  1.0 0.1073331323
H  H767  1  0.84610000  0.70350000  0.61930000  1.0 0.1073331323
H  H768  1  0.83110000  0.61930000  0.70350000  1.0 0.1073331323
C  C1  1  0.93558000  0.16844000  0.56130000  1.0 0.0711530076
C  C2  1  0.16844000  0.93558000  0.33468000  1.0 0.0711530076
C  C3  1  0.56130000  0.33468000  0.93558000  1.0 0.0711530076
C  C4  1  0.33468000  0.56130000  0.16844000  1.0 0.0711530076
C  C5  1  0.56130000  0.93558000  0.16844000  1.0 0.0711530076
C  C6  1  0.33468000  0.16844000  0.93558000  1.0 0.0711530076
C  C7  1  0.93558000  0.56130000  0.33468000  1.0 0.0711530076
C  C8  1  0.16844000  0.33468000  0.56130000  1.0 0.0711530076
C  C9  1  0.16844000  0.56130000  0.93558000  1.0 0.0711530076
C  C10  1  0.93558000  0.33468000  0.16844000  1.0 0.0711530076
C  C11  1  0.33468000  0.93558000  0.56130000  1.0 0.0711530076
C  C12  1  0.56130000  0.16844000  0.33468000  1.0 0.0711530076
C  C13  1  0.31442000  0.08156000  0.91532000  1.0 0.0711530076
C  C14  1  0.08156000  0.31442000  0.68870000  1.0 0.0711530076
C  C15  1  0.68870000  0.91532000  0.08156000  1.0 0.0711530076
C  C16  1  0.91532000  0.68870000  0.31442000  1.0 0.0711530076
C  C17  1  0.68870000  0.31442000  0.91532000  1.0 0.0711530076
C  C18  1  0.91532000  0.08156000  0.68870000  1.0 0.0711530076
C  C19  1  0.31442000  0.68870000  0.08156000  1.0 0.0711530076
C  C20  1  0.08156000  0.91532000  0.31442000  1.0 0.0711530076
C  C21  1  0.08156000  0.68870000  0.91532000  1.0 0.0711530076
C  C22  1  0.31442000  0.91532000  0.68870000  1.0 0.0711530076
C  C23  1  0.91532000  0.31442000  0.08156000  1.0 0.0711530076
C  C24  1  0.68870000  0.08156000  0.31442000  1.0 0.0711530076
C  C25  1  0.81442000  0.58156000  0.18870000  1.0 0.0711530076
C  C26  1  0.58156000  0.81442000  0.41532000  1.0 0.0711530076
C  C27  1  0.18870000  0.41532000  0.81442000  1.0 0.0711530076
C  C28  1  0.41532000  0.18870000  0.58156000  1.0 0.0711530076
C  C29  1  0.18870000  0.81442000  0.58156000  1.0 0.0711530076
C  C30  1  0.41532000  0.58156000  0.81442000  1.0 0.0711530076
C  C31  1  0.81442000  0.18870000  0.41532000  1.0 0.0711530076
C  C32  1  0.58156000  0.41532000  0.18870000  1.0 0.0711530076
C  C33  1  0.58156000  0.18870000  0.81442000  1.0 0.0711530076
C  C34  1  0.81442000  0.41532000  0.58156000  1.0 0.0711530076
C  C35  1  0.41532000  0.81442000  0.18870000  1.0 0.0711530076
C  C36  1  0.18870000  0.58156000  0.41532000  1.0 0.0711530076
C  C37  1  0.43558000  0.66844000  0.83468000  1.0 0.0711530076
C  C38  1  0.66844000  0.43558000  0.06130000  1.0 0.0711530076
C  C39  1  0.06130000  0.83468000  0.66844000  1.0 0.0711530076
C  C40  1  0.83468000  0.06130000  0.43558000  1.0 0.0711530076
C  C41  1  0.06130000  0.43558000  0.83468000  1.0 0.0711530076
C  C42  1  0.83468000  0.66844000  0.06130000  1.0 0.0711530076
C  C43  1  0.43558000  0.06130000  0.66844000  1.0 0.0711530076
C  C44  1  0.66844000  0.83468000  0.43558000  1.0 0.0711530076
C  C45  1  0.66844000  0.06130000  0.83468000  1.0 0.0711530076
C  C46  1  0.43558000  0.83468000  0.06130000  1.0 0.0711530076
C  C47  1  0.83468000  0.43558000  0.66844000  1.0 0.0711530076
C  C48  1  0.06130000  0.66844000  0.43558000  1.0 0.0711530076
C  C49  1  0.96760000  0.17306000  0.53544000  1.0 -0.1309815009
C  C50  1  0.17306000  0.96760000  0.32390000  1.0 -0.1309815009
C  C51  1  0.53544000  0.32390000  0.96760000  1.0 -0.1309815009
C  C52  1  0.32390000  0.53544000  0.17306000  1.0 -0.1309815009
C  C53  1  0.53544000  0.96760000  0.17306000  1.0 -0.1309815009
C  C54  1  0.32390000  0.17306000  0.96760000  1.0 -0.1309815009
C  C55  1  0.96760000  0.53544000  0.32390000  1.0 -0.1309815009
C  C56  1  0.17306000  0.32390000  0.53544000  1.0 -0.1309815009
C  C57  1  0.17306000  0.53544000  0.96760000  1.0 -0.1309815009
C  C58  1  0.96760000  0.32390000  0.17306000  1.0 -0.1309815009
C  C59  1  0.32390000  0.96760000  0.53544000  1.0 -0.1309815009
C  C60  1  0.53544000  0.17306000  0.32390000  1.0 -0.1309815009
C  C61  1  0.28240000  0.07694000  0.92610000  1.0 -0.1309815009
C  C62  1  0.07694000  0.28240000  0.71456000  1.0 -0.1309815009
C  C63  1  0.71456000  0.92610000  0.07694000  1.0 -0.1309815009
C  C64  1  0.92610000  0.71456000  0.28240000  1.0 -0.1309815009
C  C65  1  0.71456000  0.28240000  0.92610000  1.0 -0.1309815009
C  C66  1  0.92610000  0.07694000  0.71456000  1.0 -0.1309815009
C  C67  1  0.28240000  0.71456000  0.07694000  1.0 -0.1309815009
C  C68  1  0.07694000  0.92610000  0.28240000  1.0 -0.1309815009
C  C69  1  0.07694000  0.71456000  0.92610000  1.0 -0.1309815009
C  C70  1  0.28240000  0.92610000  0.71456000  1.0 -0.1309815009
C  C71  1  0.92610000  0.28240000  0.07694000  1.0 -0.1309815009
C  C72  1  0.71456000  0.07694000  0.28240000  1.0 -0.1309815009
C  C73  1  0.78240000  0.57694000  0.21456000  1.0 -0.1309815009
C  C74  1  0.57694000  0.78240000  0.42610000  1.0 -0.1309815009
C  C75  1  0.21456000  0.42610000  0.78240000  1.0 -0.1309815009
C  C76  1  0.42610000  0.21456000  0.57694000  1.0 -0.1309815009
C  C77  1  0.21456000  0.78240000  0.57694000  1.0 -0.1309815009
C  C78  1  0.42610000  0.57694000  0.78240000  1.0 -0.1309815009
C  C79  1  0.78240000  0.21456000  0.42610000  1.0 -0.1309815009
C  C80  1  0.57694000  0.42610000  0.21456000  1.0 -0.1309815009
C  C81  1  0.57694000  0.21456000  0.78240000  1.0 -0.1309815009
C  C82  1  0.78240000  0.42610000  0.57694000  1.0 -0.1309815009
C  C83  1  0.42610000  0.78240000  0.21456000  1.0 -0.1309815009
C  C84  1  0.21456000  0.57694000  0.42610000  1.0 -0.1309815009
C  C85  1  0.46760000  0.67306000  0.82390000  1.0 -0.1309815009
C  C86  1  0.67306000  0.46760000  0.03544000  1.0 -0.1309815009
C  C87  1  0.03544000  0.82390000  0.67306000  1.0 -0.1309815009
C  C88  1  0.82390000  0.03544000  0.46760000  1.0 -0.1309815009
C  C89  1  0.03544000  0.46760000  0.82390000  1.0 -0.1309815009
C  C90  1  0.82390000  0.67306000  0.03544000  1.0 -0.1309815009
C  C91  1  0.46760000  0.03544000  0.67306000  1.0 -0.1309815009
C  C92  1  0.67306000  0.82390000  0.46760000  1.0 -0.1309815009
C  C93  1  0.67306000  0.03544000  0.82390000  1.0 -0.1309815009
C  C94  1  0.46760000  0.82390000  0.03544000  1.0 -0.1309815009
C  C95  1  0.82390000  0.46760000  0.67306000  1.0 -0.1309815009
C  C96  1  0.03544000  0.67306000  0.46760000  1.0 -0.1309815009
C  C97  1  0.99904000  0.14274000  0.53252000  1.0 -0.0542836303
C  C98  1  0.14274000  0.99904000  0.32570000  1.0 -0.0542836303
C  C99  1  0.53252000  0.32570000  0.99904000  1.0 -0.0583302208
C  C100  1  0.32570000  0.53252000  0.14274000  1.0 -0.0542836303
C  C101  1  0.53252000  0.99904000  0.14274000  1.0 -0.0542836303
C  C102  1  0.32570000  0.14274000  0.99904000  1.0 -0.0542836303
C  C103  1  0.99904000  0.53252000  0.32570000  1.0 -0.0542836303
C  C104  1  0.14274000  0.32570000  0.53252000  1.0 -0.0542836303
C  C105  1  0.14274000  0.53252000  0.99904000  1.0 -0.0583302208
C  C106  1  0.99904000  0.32570000  0.14274000  1.0 -0.0542836303
C  C107  1  0.32570000  0.99904000  0.53252000  1.0 -0.0583302208
C  C108  1  0.53252000  0.14274000  0.32570000  1.0 -0.0542836303
C  C109  1  0.25096000  0.10726000  0.92430000  1.0 -0.0542836303
C  C110  1  0.10726000  0.25096000  0.71748000  1.0 -0.0542836303
C  C111  1  0.71748000  0.92430000  0.10726000  1.0 -0.0542836303
C  C112  1  0.92430000  0.71748000  0.25096000  1.0 -0.0542836303
C  C113  1  0.71748000  0.25096000  0.92430000  1.0 -0.0542836303
C  C114  1  0.92430000  0.10726000  0.71748000  1.0 -0.0542836303
C  C115  1  0.25096000  0.71748000  0.10726000  1.0 -0.0542836303
C  C116  1  0.10726000  0.92430000  0.25096000  1.0 -0.0583302208
C  C117  1  0.10726000  0.71748000  0.92430000  1.0 -0.0542836303
C  C118  1  0.25096000  0.92430000  0.71748000  1.0 -0.0542836303
C  C119  1  0.92430000  0.25096000  0.10726000  1.0 -0.0542836303
C  C120  1  0.71748000  0.10726000  0.25096000  1.0 -0.0542836303
C  C121  1  0.75096000  0.60726000  0.21748000  1.0 -0.0542836303
C  C122  1  0.60726000  0.75096000  0.42430000  1.0 -0.0583302208
C  C123  1  0.21748000  0.42430000  0.75096000  1.0 -0.0542836303
C  C124  1  0.42430000  0.21748000  0.60726000  1.0 -0.0542836303
C  C125  1  0.21748000  0.75096000  0.60726000  1.0 -0.0542836303
C  C126  1  0.42430000  0.60726000  0.75096000  1.0 -0.0583302208
C  C127  1  0.75096000  0.21748000  0.42430000  1.0 -0.0542836303
C  C128  1  0.60726000  0.42430000  0.21748000  1.0 -0.0542836303
C  C129  1  0.60726000  0.21748000  0.75096000  1.0 -0.0542836303
C  C130  1  0.75096000  0.42430000  0.60726000  1.0 -0.0542836303
C  C131  1  0.42430000  0.75096000  0.21748000  1.0 -0.0542836303
C  C132  1  0.21748000  0.60726000  0.42430000  1.0 -0.0542836303
C  C133  1  0.49904000  0.64274000  0.82570000  1.0 -0.0542836303
C  C134  1  0.64274000  0.49904000  0.03252000  1.0 -0.0542836303
C  C135  1  0.03252000  0.82570000  0.64274000  1.0 -0.0542836303
C  C136  1  0.82570000  0.03252000  0.49904000  1.0 -0.0542836303
C  C137  1  0.03252000  0.49904000  0.82570000  1.0 -0.0542836303
C  C138  1  0.82570000  0.64274000  0.03252000  1.0 -0.0583302208
C  C139  1  0.49904000  0.03252000  0.64274000  1.0 -0.0542836303
C  C140  1  0.64274000  0.82570000  0.49904000  1.0 -0.0542836303
C  C141  1  0.64274000  0.03252000  0.82570000  1.0 -0.0542836303
C  C142  1  0.49904000  0.82570000  0.03252000  1.0 -0.0542836303
C  C143  1  0.82570000  0.49904000  0.64274000  1.0 -0.0542836303
C  C144  1  0.03252000  0.64274000  0.49904000  1.0 -0.0542836303
C  C145  1  0.99586000  0.10910000  0.55726000  1.0 -0.0270119152
C  C146  1  0.10910000  0.99586000  0.33778000  1.0 -0.0270119152
C  C147  1  0.55726000  0.33778000  0.99586000  1.0 -0.0270119152
C  C148  1  0.33778000  0.55726000  0.10910000  1.0 -0.0270119152
C  C149  1  0.55726000  0.99586000  0.10910000  1.0 -0.0270119152
C  C150  1  0.33778000  0.10910000  0.99586000  1.0 -0.0270119152
C  C151  1  0.99586000  0.55726000  0.33778000  1.0 -0.0270119152
C  C152  1  0.10910000  0.33778000  0.55726000  1.0 -0.0270119152
C  C153  1  0.10910000  0.55726000  0.99586000  1.0 -0.0270119152
C  C154  1  0.99586000  0.33778000  0.10910000  1.0 -0.0270119152
C  C155  1  0.33778000  0.99586000  0.55726000  1.0 -0.0270119152
C  C156  1  0.55726000  0.10910000  0.33778000  1.0 -0.0270119152
C  C157  1  0.25414000  0.14090000  0.91222000  1.0 -0.0270119152
C  C158  1  0.14090000  0.25414000  0.69274000  1.0 -0.0270119152
C  C159  1  0.69274000  0.91222000  0.14090000  1.0 -0.0270119152
C  C160  1  0.91222000  0.69274000  0.25414000  1.0 -0.0270119152
C  C161  1  0.69274000  0.25414000  0.91222000  1.0 -0.0270119152
C  C162  1  0.91222000  0.14090000  0.69274000  1.0 -0.0270119152
C  C163  1  0.25414000  0.69274000  0.14090000  1.0 -0.0270119152
C  C164  1  0.14090000  0.91222000  0.25414000  1.0 -0.0270119152
C  C165  1  0.14090000  0.69274000  0.91222000  1.0 -0.0270119152
C  C166  1  0.25414000  0.91222000  0.69274000  1.0 -0.0270119152
C  C167  1  0.91222000  0.25414000  0.14090000  1.0 -0.0270119152
C  C168  1  0.69274000  0.14090000  0.25414000  1.0 -0.0270119152
C  C169  1  0.75414000  0.64090000  0.19274000  1.0 -0.0270119152
C  C170  1  0.64090000  0.75414000  0.41222000  1.0 -0.0270119152
C  C171  1  0.19274000  0.41222000  0.75414000  1.0 -0.0270119152
C  C172  1  0.41222000  0.19274000  0.64090000  1.0 -0.0270119152
C  C173  1  0.19274000  0.75414000  0.64090000  1.0 -0.0270119152
C  C174  1  0.41222000  0.64090000  0.75414000  1.0 -0.0270119152
C  C175  1  0.75414000  0.19274000  0.41222000  1.0 -0.0270119152
C  C176  1  0.64090000  0.41222000  0.19274000  1.0 -0.0270119152
C  C177  1  0.64090000  0.19274000  0.75414000  1.0 -0.0270119152
C  C178  1  0.75414000  0.41222000  0.64090000  1.0 -0.0270119152
C  C179  1  0.41222000  0.75414000  0.19274000  1.0 -0.0270119152
C  C180  1  0.19274000  0.64090000  0.41222000  1.0 -0.0270119152
C  C181  1  0.49586000  0.60910000  0.83778000  1.0 -0.0270119152
C  C182  1  0.60910000  0.49586000  0.05726000  1.0 -0.0270119152
C  C183  1  0.05726000  0.83778000  0.60910000  1.0 -0.0270119152
C  C184  1  0.83778000  0.05726000  0.49586000  1.0 -0.0270119152
C  C185  1  0.05726000  0.49586000  0.83778000  1.0 -0.0270119152
C  C186  1  0.83778000  0.60910000  0.05726000  1.0 -0.0270119152
C  C187  1  0.49586000  0.05726000  0.60910000  1.0 -0.0270119152
C  C188  1  0.60910000  0.83778000  0.49586000  1.0 -0.0270119152
C  C189  1  0.60910000  0.05726000  0.83778000  1.0 -0.0270119152
C  C190  1  0.49586000  0.83778000  0.05726000  1.0 -0.0270119152
C  C191  1  0.83778000  0.49586000  0.60910000  1.0 -0.0270119152
C  C192  1  0.05726000  0.60910000  0.49586000  1.0 -0.0270119152
C  C193  1  0.96219000  0.10721000  0.58273000  1.0 0.0594889447
C  C194  1  0.10721000  0.96219000  0.34787000  1.0 0.0594889447
C  C195  1  0.58273000  0.34787000  0.96219000  1.0 0.0594889447
C  C196  1  0.34787000  0.58273000  0.10721000  1.0 0.0594889447
C  C197  1  0.58273000  0.96219000  0.10721000  1.0 0.0594889447
C  C198  1  0.34787000  0.10721000  0.96219000  1.0 0.0594889447
C  C199  1  0.96219000  0.58273000  0.34787000  1.0 0.0594889447
C  C200  1  0.10721000  0.34787000  0.58273000  1.0 0.0594889447
C  C201  1  0.10721000  0.58273000  0.96219000  1.0 0.0594889447
C  C202  1  0.96219000  0.34787000  0.10721000  1.0 0.0594889447
C  C203  1  0.34787000  0.96219000  0.58273000  1.0 0.0594889447
C  C204  1  0.58273000  0.10721000  0.34787000  1.0 0.0594889447
C  C205  1  0.28781000  0.14279000  0.90213000  1.0 0.0594889447
C  C206  1  0.14279000  0.28781000  0.66727000  1.0 0.0594889447
C  C207  1  0.66727000  0.90213000  0.14279000  1.0 0.0594889447
C  C208  1  0.90213000  0.66727000  0.28781000  1.0 0.0594889447
C  C209  1  0.66727000  0.28781000  0.90213000  1.0 0.0594889447
C  C210  1  0.90213000  0.14279000  0.66727000  1.0 0.0594889447
C  C211  1  0.28781000  0.66727000  0.14279000  1.0 0.0594889447
C  C212  1  0.14279000  0.90213000  0.28781000  1.0 0.0594889447
C  C213  1  0.14279000  0.66727000  0.90213000  1.0 0.0594889447
C  C214  1  0.28781000  0.90213000  0.66727000  1.0 0.0594889447
C  C215  1  0.90213000  0.28781000  0.14279000  1.0 0.0594889447
C  C216  1  0.66727000  0.14279000  0.28781000  1.0 0.0594889447
C  C217  1  0.78781000  0.64279000  0.16727000  1.0 0.0594889447
C  C218  1  0.64279000  0.78781000  0.40213000  1.0 0.0594889447
C  C219  1  0.16727000  0.40213000  0.78781000  1.0 0.0594889447
C  C220  1  0.40213000  0.16727000  0.64279000  1.0 0.0594889447
C  C221  1  0.16727000  0.78781000  0.64279000  1.0 0.0594889447
C  C222  1  0.40213000  0.64279000  0.78781000  1.0 0.0594889447
C  C223  1  0.78781000  0.16727000  0.40213000  1.0 0.0594889447
C  C224  1  0.64279000  0.40213000  0.16727000  1.0 0.0594889447
C  C225  1  0.64279000  0.16727000  0.78781000  1.0 0.0594889447
C  C226  1  0.78781000  0.40213000  0.64279000  1.0 0.0594889447
C  C227  1  0.40213000  0.78781000  0.16727000  1.0 0.0594889447
C  C228  1  0.16727000  0.64279000  0.40213000  1.0 0.0594889447
C  C229  1  0.46219000  0.60721000  0.84787000  1.0 0.0594889447
C  C230  1  0.60721000  0.46219000  0.08273000  1.0 0.0594889447
C  C231  1  0.08273000  0.84787000  0.60721000  1.0 0.0594889447
C  C232  1  0.84787000  0.08273000  0.46219000  1.0 0.0594889447
C  C233  1  0.08273000  0.46219000  0.84787000  1.0 0.0594889447
C  C234  1  0.84787000  0.60721000  0.08273000  1.0 0.0594889447
C  C235  1  0.46219000  0.08273000  0.60721000  1.0 0.0594889447
C  C236  1  0.60721000  0.84787000  0.46219000  1.0 0.0594889447
C  C237  1  0.60721000  0.08273000  0.84787000  1.0 0.0594889447
C  C238  1  0.46219000  0.84787000  0.08273000  1.0 0.0594889447
C  C239  1  0.84787000  0.46219000  0.60721000  1.0 0.0594889447
C  C240  1  0.08273000  0.60721000  0.46219000  1.0 0.0594889447
C  C241  1  0.10378000  0.83666000  0.71098000  1.0 0.241690483
C  C242  1  0.83666000  0.10378000  0.34858000  1.0 0.241690483
C  C243  1  0.71098000  0.34858000  0.10378000  1.0 0.241690483
C  C244  1  0.34858000  0.71098000  0.83666000  1.0 0.241690483
C  C245  1  0.71098000  0.10378000  0.83666000  1.0 0.241690483
C  C246  1  0.34858000  0.83666000  0.10378000  1.0 0.241690483
C  C247  1  0.10378000  0.71098000  0.34858000  1.0 0.241690483
C  C248  1  0.83666000  0.34858000  0.71098000  1.0 0.241690483
C  C249  1  0.83666000  0.71098000  0.10378000  1.0 0.241690483
C  C250  1  0.10378000  0.34858000  0.83666000  1.0 0.241690483
C  C251  1  0.34858000  0.10378000  0.71098000  1.0 0.241690483
C  C252  1  0.71098000  0.83666000  0.34858000  1.0 0.241690483
C  C253  1  0.14622000  0.41334000  0.90142000  1.0 0.241690483
C  C254  1  0.41334000  0.14622000  0.53902000  1.0 0.241690483
C  C255  1  0.53902000  0.90142000  0.41334000  1.0 0.241690483
C  C256  1  0.90142000  0.53902000  0.14622000  1.0 0.241690483
C  C257  1  0.53902000  0.14622000  0.90142000  1.0 0.241690483
C  C258  1  0.90142000  0.41334000  0.53902000  1.0 0.241690483
C  C259  1  0.14622000  0.53902000  0.41334000  1.0 0.241690483
C  C260  1  0.41334000  0.90142000  0.14622000  1.0 0.241690483
C  C261  1  0.41334000  0.53902000  0.90142000  1.0 0.241690483
C  C262  1  0.14622000  0.90142000  0.53902000  1.0 0.241690483
C  C263  1  0.90142000  0.14622000  0.41334000  1.0 0.241690483
C  C264  1  0.53902000  0.41334000  0.14622000  1.0 0.241690483
C  C265  1  0.64622000  0.91334000  0.03902000  1.0 0.241690483
C  C266  1  0.91334000  0.64622000  0.40142000  1.0 0.241690483
C  C267  1  0.03902000  0.40142000  0.64622000  1.0 0.241690483
C  C268  1  0.40142000  0.03902000  0.91334000  1.0 0.241690483
C  C269  1  0.03902000  0.64622000  0.91334000  1.0 0.241690483
C  C270  1  0.40142000  0.91334000  0.64622000  1.0 0.241690483
C  C271  1  0.64622000  0.03902000  0.40142000  1.0 0.241690483
C  C272  1  0.91334000  0.40142000  0.03902000  1.0 0.241690483
C  C273  1  0.91334000  0.03902000  0.64622000  1.0 0.241690483
C  C274  1  0.64622000  0.40142000  0.91334000  1.0 0.241690483
C  C275  1  0.40142000  0.64622000  0.03902000  1.0 0.241690483
C  C276  1  0.03902000  0.91334000  0.40142000  1.0 0.241690483
C  C277  1  0.60378000  0.33666000  0.84858000  1.0 0.241690483
C  C278  1  0.33666000  0.60378000  0.21098000  1.0 0.241690483
C  C279  1  0.21098000  0.84858000  0.33666000  1.0 0.241690483
C  C280  1  0.84858000  0.21098000  0.60378000  1.0 0.241690483
C  C281  1  0.21098000  0.60378000  0.84858000  1.0 0.241690483
C  C282  1  0.84858000  0.33666000  0.21098000  1.0 0.241690483
C  C283  1  0.60378000  0.21098000  0.33666000  1.0 0.241690483
C  C284  1  0.33666000  0.84858000  0.60378000  1.0 0.241690483
C  C285  1  0.33666000  0.21098000  0.84858000  1.0 0.241690483
C  C286  1  0.60378000  0.84858000  0.21098000  1.0 0.241690483
C  C287  1  0.84858000  0.60378000  0.33666000  1.0 0.241690483
C  C288  1  0.21098000  0.33666000  0.60378000  1.0 0.241690483
C  C289  1  0.08098000  0.94976000  0.60966000  1.0 0.0594889447
C  C290  1  0.94976000  0.08098000  0.35960000  1.0 0.0594889447
C  C291  1  0.60966000  0.35960000  0.08098000  1.0 0.0594889447
C  C292  1  0.35960000  0.60966000  0.94976000  1.0 0.0594889447
C  C293  1  0.60966000  0.08098000  0.94976000  1.0 0.0594889447
C  C294  1  0.35960000  0.94976000  0.08098000  1.0 0.0594889447
C  C295  1  0.08098000  0.60966000  0.35960000  1.0 0.0594889447
C  C296  1  0.94976000  0.35960000  0.60966000  1.0 0.0594889447
C  C297  1  0.94976000  0.60966000  0.08098000  1.0 0.0594889447
C  C298  1  0.08098000  0.35960000  0.94976000  1.0 0.0594889447
C  C299  1  0.35960000  0.08098000  0.60966000  1.0 0.0594889447
C  C300  1  0.60966000  0.94976000  0.35960000  1.0 0.0594889447
C  C301  1  0.16902000  0.30024000  0.89040000  1.0 0.0594889447
C  C302  1  0.30024000  0.16902000  0.64034000  1.0 0.0594889447
C  C303  1  0.64034000  0.89040000  0.30024000  1.0 0.0594889447
C  C304  1  0.89040000  0.64034000  0.16902000  1.0 0.0594889447
C  C305  1  0.64034000  0.16902000  0.89040000  1.0 0.0594889447
C  C306  1  0.89040000  0.30024000  0.64034000  1.0 0.0594889447
C  C307  1  0.16902000  0.64034000  0.30024000  1.0 0.0594889447
C  C308  1  0.30024000  0.89040000  0.16902000  1.0 0.0594889447
C  C309  1  0.30024000  0.64034000  0.89040000  1.0 0.0594889447
C  C310  1  0.16902000  0.89040000  0.64034000  1.0 0.0594889447
C  C311  1  0.89040000  0.16902000  0.30024000  1.0 0.0594889447
C  C312  1  0.64034000  0.30024000  0.16902000  1.0 0.0594889447
C  C313  1  0.66902000  0.80024000  0.14034000  1.0 0.0594889447
C  C314  1  0.80024000  0.66902000  0.39040000  1.0 0.0594889447
C  C315  1  0.14034000  0.39040000  0.66902000  1.0 0.0594889447
C  C316  1  0.39040000  0.14034000  0.80024000  1.0 0.0594889447
C  C317  1  0.14034000  0.66902000  0.80024000  1.0 0.0594889447
C  C318  1  0.39040000  0.80024000  0.66902000  1.0 0.0594889447
C  C319  1  0.66902000  0.14034000  0.39040000  1.0 0.0594889447
C  C320  1  0.80024000  0.39040000  0.14034000  1.0 0.0594889447
C  C321  1  0.80024000  0.14034000  0.66902000  1.0 0.0594889447
C  C322  1  0.66902000  0.39040000  0.80024000  1.0 0.0594889447
C  C323  1  0.39040000  0.66902000  0.14034000  1.0 0.0594889447
C  C324  1  0.14034000  0.80024000  0.39040000  1.0 0.0594889447
C  C325  1  0.58098000  0.44976000  0.85960000  1.0 0.0594889447
C  C326  1  0.44976000  0.58098000  0.10966000  1.0 0.0594889447
C  C327  1  0.10966000  0.85960000  0.44976000  1.0 0.0594889447
C  C328  1  0.85960000  0.10966000  0.58098000  1.0 0.0594889447
C  C329  1  0.10966000  0.58098000  0.85960000  1.0 0.0594889447
C  C330  1  0.85960000  0.44976000  0.10966000  1.0 0.0594889447
C  C331  1  0.58098000  0.10966000  0.44976000  1.0 0.0594889447
C  C332  1  0.44976000  0.85960000  0.58098000  1.0 0.0594889447
C  C333  1  0.44976000  0.10966000  0.85960000  1.0 0.0594889447
C  C334  1  0.58098000  0.85960000  0.10966000  1.0 0.0594889447
C  C335  1  0.85960000  0.58098000  0.44976000  1.0 0.0594889447
C  C336  1  0.10966000  0.44976000  0.58098000  1.0 0.0594889447
C  C337  1  0.05295000  0.98185000  0.61285000  1.0 -0.0270119152
C  C338  1  0.98185000  0.05295000  0.35235000  1.0 -0.0270119152
C  C339  1  0.61285000  0.35235000  0.05295000  1.0 -0.0270119152
C  C340  1  0.35235000  0.61285000  0.98185000  1.0 -0.0270119152
C  C341  1  0.61285000  0.05295000  0.98185000  1.0 -0.0270119152
C  C342  1  0.35235000  0.98185000  0.05295000  1.0 -0.0270119152
C  C343  1  0.05295000  0.61285000  0.35235000  1.0 -0.0270119152
C  C344  1  0.98185000  0.35235000  0.61285000  1.0 -0.0270119152
C  C345  1  0.98185000  0.61285000  0.05295000  1.0 -0.0270119152
C  C346  1  0.05295000  0.35235000  0.98185000  1.0 -0.0270119152
C  C347  1  0.35235000  0.05295000  0.61285000  1.0 -0.0270119152
C  C348  1  0.61285000  0.98185000  0.35235000  1.0 -0.0270119152
C  C349  1  0.19705000  0.26815000  0.89765000  1.0 -0.0270119152
C  C350  1  0.26815000  0.19705000  0.63715000  1.0 -0.0270119152
C  C351  1  0.63715000  0.89765000  0.26815000  1.0 -0.0270119152
C  C352  1  0.89765000  0.63715000  0.19705000  1.0 -0.0270119152
C  C353  1  0.63715000  0.19705000  0.89765000  1.0 -0.0270119152
C  C354  1  0.89765000  0.26815000  0.63715000  1.0 -0.0270119152
C  C355  1  0.19705000  0.63715000  0.26815000  1.0 -0.0270119152
C  C356  1  0.26815000  0.89765000  0.19705000  1.0 -0.0270119152
C  C357  1  0.26815000  0.63715000  0.89765000  1.0 -0.0270119152
C  C358  1  0.19705000  0.89765000  0.63715000  1.0 -0.0270119152
C  C359  1  0.89765000  0.19705000  0.26815000  1.0 -0.0270119152
C  C360  1  0.63715000  0.26815000  0.19705000  1.0 -0.0270119152
C  C361  1  0.69705000  0.76815000  0.13715000  1.0 -0.0270119152
C  C362  1  0.76815000  0.69705000  0.39765000  1.0 -0.0270119152
C  C363  1  0.13715000  0.39765000  0.69705000  1.0 -0.0270119152
C  C364  1  0.39765000  0.13715000  0.76815000  1.0 -0.0270119152
C  C365  1  0.13715000  0.69705000  0.76815000  1.0 -0.0270119152
C  C366  1  0.39765000  0.76815000  0.69705000  1.0 -0.0270119152
C  C367  1  0.69705000  0.13715000  0.39765000  1.0 -0.0270119152
C  C368  1  0.76815000  0.39765000  0.13715000  1.0 -0.0270119152
C  C369  1  0.76815000  0.13715000  0.69705000  1.0 -0.0270119152
C  C370  1  0.69705000  0.39765000  0.76815000  1.0 -0.0270119152
C  C371  1  0.39765000  0.69705000  0.13715000  1.0 -0.0270119152
C  C372  1  0.13715000  0.76815000  0.39765000  1.0 -0.0270119152
C  C373  1  0.55295000  0.48185000  0.85235000  1.0 -0.0270119152
C  C374  1  0.48185000  0.55295000  0.11285000  1.0 -0.0270119152
C  C375  1  0.11285000  0.85235000  0.48185000  1.0 -0.0270119152
C  C376  1  0.85235000  0.11285000  0.55295000  1.0 -0.0270119152
C  C377  1  0.11285000  0.55295000  0.85235000  1.0 -0.0270119152
C  C378  1  0.85235000  0.48185000  0.11285000  1.0 -0.0270119152
C  C379  1  0.55295000  0.11285000  0.48185000  1.0 -0.0270119152
C  C380  1  0.48185000  0.85235000  0.55295000  1.0 -0.0270119152
C  C381  1  0.48185000  0.11285000  0.85235000  1.0 -0.0270119152
C  C382  1  0.55295000  0.85235000  0.11285000  1.0 -0.0270119152
C  C383  1  0.85235000  0.55295000  0.48185000  1.0 -0.0270119152
C  C384  1  0.11285000  0.48185000  0.55295000  1.0 -0.0270119152
C  C385  1  0.02431000  0.98115000  0.64593000  1.0 -0.0583302208
C  C386  1  0.98115000  0.02431000  0.34861000  1.0 -0.0583302208
C  C387  1  0.64593000  0.34861000  0.02431000  1.0 -0.0583302208
C  C388  1  0.34861000  0.64593000  0.98115000  1.0 -0.0583302208
C  C389  1  0.64593000  0.02431000  0.98115000  1.0 -0.0583302208
C  C390  1  0.34861000  0.98115000  0.02431000  1.0 -0.0583302208
C  C391  1  0.02431000  0.64593000  0.34861000  1.0 -0.0583302208
C  C392  1  0.98115000  0.34861000  0.64593000  1.0 -0.0583302208
C  C393  1  0.98115000  0.64593000  0.02431000  1.0 -0.0583302208
C  C394  1  0.02431000  0.34861000  0.98115000  1.0 -0.0583302208
C  C395  1  0.34861000  0.02431000  0.64593000  1.0 -0.0583302208
C  C396  1  0.64593000  0.98115000  0.34861000  1.0 -0.0583302208
C  C397  1  0.22569000  0.26885000  0.90139000  1.0 -0.0583302208
C  C398  1  0.26885000  0.22569000  0.60407000  1.0 -0.0583302208
C  C399  1  0.60407000  0.90139000  0.26885000  1.0 -0.0583302208
C  C400  1  0.90139000  0.60407000  0.22569000  1.0 -0.0583302208
C  C401  1  0.60407000  0.22569000  0.90139000  1.0 -0.0583302208
C  C402  1  0.90139000  0.26885000  0.60407000  1.0 -0.0583302208
C  C403  1  0.22569000  0.60407000  0.26885000  1.0 -0.0583302208
C  C404  1  0.26885000  0.90139000  0.22569000  1.0 -0.0583302208
C  C405  1  0.26885000  0.60407000  0.90139000  1.0 -0.0583302208
C  C406  1  0.22569000  0.90139000  0.60407000  1.0 -0.0583302208
C  C407  1  0.90139000  0.22569000  0.26885000  1.0 -0.0583302208
C  C408  1  0.60407000  0.26885000  0.22569000  1.0 -0.0583302208
C  C409  1  0.72569000  0.76885000  0.10407000  1.0 -0.0583302208
C  C410  1  0.76885000  0.72569000  0.40139000  1.0 -0.0583302208
C  C411  1  0.10407000  0.40139000  0.72569000  1.0 -0.0583302208
C  C412  1  0.40139000  0.10407000  0.76885000  1.0 -0.0583302208
C  C413  1  0.10407000  0.72569000  0.76885000  1.0 -0.0583302208
C  C414  1  0.40139000  0.76885000  0.72569000  1.0 -0.0583302208
C  C415  1  0.72569000  0.10407000  0.40139000  1.0 -0.0583302208
C  C416  1  0.76885000  0.40139000  0.10407000  1.0 -0.0583302208
C  C417  1  0.76885000  0.10407000  0.72569000  1.0 -0.0583302208
C  C418  1  0.72569000  0.40139000  0.76885000  1.0 -0.0583302208
C  C419  1  0.40139000  0.72569000  0.10407000  1.0 -0.0583302208
C  C420  1  0.10407000  0.76885000  0.40139000  1.0 -0.0583302208
C  C421  1  0.52431000  0.48115000  0.84861000  1.0 -0.0583302208
C  C422  1  0.48115000  0.52431000  0.14593000  1.0 -0.0583302208
C  C423  1  0.14593000  0.84861000  0.48115000  1.0 -0.0583302208
C  C424  1  0.84861000  0.14593000  0.52431000  1.0 -0.0583302208
C  C425  1  0.14593000  0.52431000  0.84861000  1.0 -0.0583302208
C  C426  1  0.84861000  0.48115000  0.14593000  1.0 -0.0583302208
C  C427  1  0.52431000  0.14593000  0.48115000  1.0 -0.0583302208
C  C428  1  0.48115000  0.84861000  0.52431000  1.0 -0.0583302208
C  C429  1  0.48115000  0.14593000  0.84861000  1.0 -0.0583302208
C  C430  1  0.52431000  0.84861000  0.14593000  1.0 -0.0583302208
C  C431  1  0.84861000  0.52431000  0.48115000  1.0 -0.0583302208
C  C432  1  0.14593000  0.48115000  0.52431000  1.0 -0.0583302208
C  C433  1  0.02585000  0.94871000  0.67401000  1.0 -0.1356939265
C  C434  1  0.94871000  0.02585000  0.35143000  1.0 -0.1309815009
C  C435  1  0.67401000  0.35143000  0.02585000  1.0 -0.1309815009
C  C436  1  0.35143000  0.67401000  0.94871000  1.0 -0.1309815009
C  C437  1  0.67401000  0.02585000  0.94871000  1.0 -0.1309815009
C  C438  1  0.35143000  0.94871000  0.02585000  1.0 -0.1309815009
C  C439  1  0.02585000  0.67401000  0.35143000  1.0 -0.1309815009
C  C440  1  0.94871000  0.35143000  0.67401000  1.0 -0.1309815009
C  C441  1  0.94871000  0.67401000  0.02585000  1.0 -0.1309815009
C  C442  1  0.02585000  0.35143000  0.94871000  1.0 -0.1309815009
C  C443  1  0.35143000  0.02585000  0.67401000  1.0 -0.1309815009
C  C444  1  0.67401000  0.94871000  0.35143000  1.0 -0.1309815009
C  C445  1  0.22415000  0.30129000  0.89857000  1.0 -0.1309815009
C  C446  1  0.30129000  0.22415000  0.57599000  1.0 -0.1309815009
C  C447  1  0.57599000  0.89857000  0.30129000  1.0 -0.1309815009
C  C448  1  0.89857000  0.57599000  0.22415000  1.0 -0.1309815009
C  C449  1  0.57599000  0.22415000  0.89857000  1.0 -0.1309815009
C  C450  1  0.89857000  0.30129000  0.57599000  1.0 -0.1309815009
C  C451  1  0.22415000  0.57599000  0.30129000  1.0 -0.1309815009
C  C452  1  0.30129000  0.89857000  0.22415000  1.0 -0.1309815009
C  C453  1  0.30129000  0.57599000  0.89857000  1.0 -0.1309815009
C  C454  1  0.22415000  0.89857000  0.57599000  1.0 -0.1309815009
C  C455  1  0.89857000  0.22415000  0.30129000  1.0 -0.1309815009
C  C456  1  0.57599000  0.30129000  0.22415000  1.0 -0.1309815009
C  C457  1  0.72415000  0.80129000  0.07599000  1.0 -0.1309815009
C  C458  1  0.80129000  0.72415000  0.39857000  1.0 -0.1309815009
C  C459  1  0.07599000  0.39857000  0.72415000  1.0 -0.1309815009
C  C460  1  0.39857000  0.07599000  0.80129000  1.0 -0.1309815009
C  C461  1  0.07599000  0.72415000  0.80129000  1.0 -0.1309815009
C  C462  1  0.39857000  0.80129000  0.72415000  1.0 -0.1309815009
C  C463  1  0.72415000  0.07599000  0.39857000  1.0 -0.1309815009
C  C464  1  0.80129000  0.39857000  0.07599000  1.0 -0.1309815009
C  C465  1  0.80129000  0.07599000  0.72415000  1.0 -0.1309815009
C  C466  1  0.72415000  0.39857000  0.80129000  1.0 -0.1309815009
C  C467  1  0.39857000  0.72415000  0.07599000  1.0 -0.1309815009
C  C468  1  0.07599000  0.80129000  0.39857000  1.0 -0.1309815009
C  C469  1  0.52585000  0.44871000  0.85143000  1.0 -0.1309815009
C  C470  1  0.44871000  0.52585000  0.17401000  1.0 -0.1309815009
C  C471  1  0.17401000  0.85143000  0.44871000  1.0 -0.1309815009
C  C472  1  0.85143000  0.17401000  0.52585000  1.0 -0.1309815009
C  C473  1  0.17401000  0.52585000  0.85143000  1.0 -0.1309815009
C  C474  1  0.85143000  0.44871000  0.17401000  1.0 -0.1309815009
C  C475  1  0.52585000  0.17401000  0.44871000  1.0 -0.1309815009
C  C476  1  0.44871000  0.85143000  0.52585000  1.0 -0.1309815009
C  C477  1  0.44871000  0.17401000  0.85143000  1.0 -0.1309815009
C  C478  1  0.52585000  0.85143000  0.17401000  1.0 -0.1309815009
C  C479  1  0.85143000  0.52585000  0.44871000  1.0 -0.1309815009
C  C480  1  0.17401000  0.44871000  0.52585000  1.0 -0.1309815009
C  C481  1  0.05506000  0.91786000  0.66836000  1.0 0.0887625778
C  C482  1  0.91786000  0.05506000  0.35872000  1.0 0.0887625778
C  C483  1  0.66836000  0.35872000  0.05506000  1.0 0.0887625778
C  C484  1  0.35872000  0.66836000  0.91786000  1.0 0.0887625778
C  C485  1  0.66836000  0.05506000  0.91786000  1.0 0.0887625778
C  C486  1  0.35872000  0.91786000  0.05506000  1.0 0.0887625778
C  C487  1  0.05506000  0.66836000  0.35872000  1.0 0.0887625778
C  C488  1  0.91786000  0.35872000  0.66836000  1.0 0.0887625778
C  C489  1  0.91786000  0.66836000  0.05506000  1.0 0.0887625778
C  C490  1  0.05506000  0.35872000  0.91786000  1.0 0.0887625778
C  C491  1  0.35872000  0.05506000  0.66836000  1.0 0.0887625778
C  C492  1  0.66836000  0.91786000  0.35872000  1.0 0.0887625778
C  C493  1  0.19494000  0.33214000  0.89128000  1.0 0.0887625778
C  C494  1  0.33214000  0.19494000  0.58164000  1.0 0.0887625778
C  C495  1  0.58164000  0.89128000  0.33214000  1.0 0.0887625778
C  C496  1  0.89128000  0.58164000  0.19494000  1.0 0.0887625778
C  C497  1  0.58164000  0.19494000  0.89128000  1.0 0.0887625778
C  C498  1  0.89128000  0.33214000  0.58164000  1.0 0.0887625778
C  C499  1  0.19494000  0.58164000  0.33214000  1.0 0.0887625778
C  C500  1  0.33214000  0.89128000  0.19494000  1.0 0.0887625778
C  C501  1  0.33214000  0.58164000  0.89128000  1.0 0.0887625778
C  C502  1  0.19494000  0.89128000  0.58164000  1.0 0.0887625778
C  C503  1  0.89128000  0.19494000  0.33214000  1.0 0.0887625778
C  C504  1  0.58164000  0.33214000  0.19494000  1.0 0.0887625778
C  C505  1  0.69494000  0.83214000  0.08164000  1.0 0.0887625778
C  C506  1  0.83214000  0.69494000  0.39128000  1.0 0.0887625778
C  C507  1  0.08164000  0.39128000  0.69494000  1.0 0.0887625778
C  C508  1  0.39128000  0.08164000  0.83214000  1.0 0.0887625778
C  C509  1  0.08164000  0.69494000  0.83214000  1.0 0.0887625778
C  C510  1  0.39128000  0.83214000  0.69494000  1.0 0.0887625778
C  C511  1  0.69494000  0.08164000  0.39128000  1.0 0.0887625778
C  C512  1  0.83214000  0.39128000  0.08164000  1.0 0.0887625778
C  C513  1  0.83214000  0.08164000  0.69494000  1.0 0.0887625778
C  C514  1  0.69494000  0.39128000  0.83214000  1.0 0.0887625778
C  C515  1  0.39128000  0.69494000  0.08164000  1.0 0.0887625778
C  C516  1  0.08164000  0.83214000  0.39128000  1.0 0.0887625778
C  C517  1  0.55506000  0.41786000  0.85872000  1.0 0.0887625778
C  C518  1  0.41786000  0.55506000  0.16836000  1.0 0.0887625778
C  C519  1  0.16836000  0.85872000  0.41786000  1.0 0.0887625778
C  C520  1  0.85872000  0.16836000  0.55506000  1.0 0.0887625778
C  C521  1  0.16836000  0.55506000  0.85872000  1.0 0.0887625778
C  C522  1  0.85872000  0.41786000  0.16836000  1.0 0.0887625778
C  C523  1  0.55506000  0.16836000  0.41786000  1.0 0.0887625778
C  C524  1  0.41786000  0.85872000  0.55506000  1.0 0.0887625778
C  C525  1  0.41786000  0.16836000  0.85872000  1.0 0.0887625778
C  C526  1  0.55506000  0.85872000  0.16836000  1.0 0.0887625778
C  C527  1  0.85872000  0.55506000  0.41786000  1.0 0.0887625778
C  C528  1  0.16836000  0.41786000  0.55506000  1.0 0.0887625778
C  C529  1  0.05251000  0.01529000  0.58109000  1.0 0.3788730597
C  C530  1  0.01529000  0.05251000  0.35111000  1.0 0.3788730597
C  C531  1  0.58109000  0.35111000  0.05251000  1.0 0.3788730597
C  C532  1  0.35111000  0.58109000  0.01529000  1.0 0.3788730597
C  C533  1  0.58109000  0.05251000  0.01529000  1.0 0.3788730597
C  C534  1  0.35111000  0.01529000  0.05251000  1.0 0.3788730597
C  C535  1  0.05251000  0.58109000  0.35111000  1.0 0.3788730597
C  C536  1  0.01529000  0.35111000  0.58109000  1.0 0.3788730597
C  C537  1  0.01529000  0.58109000  0.05251000  1.0 0.3788730597
C  C538  1  0.05251000  0.35111000  0.01529000  1.0 0.3788730597
C  C539  1  0.35111000  0.05251000  0.58109000  1.0 0.3788730597
C  C540  1  0.58109000  0.01529000  0.35111000  1.0 0.3788730597
C  C541  1  0.19749000  0.23471000  0.89889000  1.0 0.3788730597
C  C542  1  0.23471000  0.19749000  0.66891000  1.0 0.3788730597
C  C543  1  0.66891000  0.89889000  0.23471000  1.0 0.3788730597
C  C544  1  0.89889000  0.66891000  0.19749000  1.0 0.3788730597
C  C545  1  0.66891000  0.19749000  0.89889000  1.0 0.3788730597
C  C546  1  0.89889000  0.23471000  0.66891000  1.0 0.3788730597
C  C547  1  0.19749000  0.66891000  0.23471000  1.0 0.3788730597
C  C548  1  0.23471000  0.89889000  0.19749000  1.0 0.3788730597
C  C549  1  0.23471000  0.66891000  0.89889000  1.0 0.3788730597
C  C550  1  0.19749000  0.89889000  0.66891000  1.0 0.3788730597
C  C551  1  0.89889000  0.19749000  0.23471000  1.0 0.3788730597
C  C552  1  0.66891000  0.23471000  0.19749000  1.0 0.3788730597
C  C553  1  0.69749000  0.73471000  0.16891000  1.0 0.3788730597
C  C554  1  0.73471000  0.69749000  0.39889000  1.0 0.3788730597
C  C555  1  0.16891000  0.39889000  0.69749000  1.0 0.3788730597
C  C556  1  0.39889000  0.16891000  0.73471000  1.0 0.3788730597
C  C557  1  0.16891000  0.69749000  0.73471000  1.0 0.3788730597
C  C558  1  0.39889000  0.73471000  0.69749000  1.0 0.3788730597
C  C559  1  0.69749000  0.16891000  0.39889000  1.0 0.3788730597
C  C560  1  0.73471000  0.39889000  0.16891000  1.0 0.3788730597
C  C561  1  0.73471000  0.16891000  0.69749000  1.0 0.3788730597
C  C562  1  0.69749000  0.39889000  0.73471000  1.0 0.3788730597
C  C563  1  0.39889000  0.69749000  0.16891000  1.0 0.3788730597
C  C564  1  0.16891000  0.73471000  0.39889000  1.0 0.3788730597
C  C565  1  0.55251000  0.51529000  0.85111000  1.0 0.3788730597
C  C566  1  0.51529000  0.55251000  0.08109000  1.0 0.3788730597
C  C567  1  0.08109000  0.85111000  0.51529000  1.0 0.3788730597
C  C568  1  0.85111000  0.08109000  0.55251000  1.0 0.3788730597
C  C569  1  0.08109000  0.55251000  0.85111000  1.0 0.3788730597
C  C570  1  0.85111000  0.51529000  0.08109000  1.0 0.3788730597
C  C571  1  0.55251000  0.08109000  0.51529000  1.0 0.3788730597
C  C572  1  0.51529000  0.85111000  0.55251000  1.0 0.3788730597
C  C573  1  0.51529000  0.08109000  0.85111000  1.0 0.3788730597
C  C574  1  0.55251000  0.85111000  0.08109000  1.0 0.3788730597
C  C575  1  0.85111000  0.55251000  0.51529000  1.0 0.3788730597
C  C576  1  0.08109000  0.51529000  0.55251000  1.0 0.3788730597
C  C577  1  0.07765000  0.04315000  0.52171000  1.0 0.3788730597
C  C578  1  0.04315000  0.07765000  0.35749000  1.0 0.3788730597
C  C579  1  0.52171000  0.35749000  0.07765000  1.0 0.3788730597
C  C580  1  0.35749000  0.52171000  0.04315000  1.0 0.3788730597
C  C581  1  0.52171000  0.07765000  0.04315000  1.0 0.3788730597
C  C582  1  0.35749000  0.04315000  0.07765000  1.0 0.3788730597
C  C583  1  0.07765000  0.52171000  0.35749000  1.0 0.3788730597
C  C584  1  0.04315000  0.35749000  0.52171000  1.0 0.3788730597
C  C585  1  0.04315000  0.52171000  0.07765000  1.0 0.3788730597
C  C586  1  0.07765000  0.35749000  0.04315000  1.0 0.3788730597
C  C587  1  0.35749000  0.07765000  0.52171000  1.0 0.3788730597
C  C588  1  0.52171000  0.04315000  0.35749000  1.0 0.3788730597
C  C589  1  0.17235000  0.20685000  0.89251000  1.0 0.3788730597
C  C590  1  0.20685000  0.17235000  0.72829000  1.0 0.3788730597
C  C591  1  0.72829000  0.89251000  0.20685000  1.0 0.3788730597
C  C592  1  0.89251000  0.72829000  0.17235000  1.0 0.3788730597
C  C593  1  0.72829000  0.17235000  0.89251000  1.0 0.3788730597
C  C594  1  0.89251000  0.20685000  0.72829000  1.0 0.3788730597
C  C595  1  0.17235000  0.72829000  0.20685000  1.0 0.3788730597
C  C596  1  0.20685000  0.89251000  0.17235000  1.0 0.3788730597
C  C597  1  0.20685000  0.72829000  0.89251000  1.0 0.3788730597
C  C598  1  0.17235000  0.89251000  0.72829000  1.0 0.3788730597
C  C599  1  0.89251000  0.17235000  0.20685000  1.0 0.3788730597
C  C600  1  0.72829000  0.20685000  0.17235000  1.0 0.3788730597
C  C601  1  0.67235000  0.70685000  0.22829000  1.0 0.3788730597
C  C602  1  0.70685000  0.67235000  0.39251000  1.0 0.3788730597
C  C603  1  0.22829000  0.39251000  0.67235000  1.0 0.3788730597
C  C604  1  0.39251000  0.22829000  0.70685000  1.0 0.3788730597
C  C605  1  0.22829000  0.67235000  0.70685000  1.0 0.3788730597
C  C606  1  0.39251000  0.70685000  0.67235000  1.0 0.3788730597
C  C607  1  0.67235000  0.22829000  0.39251000  1.0 0.3788730597
C  C608  1  0.70685000  0.39251000  0.22829000  1.0 0.3788730597
C  C609  1  0.70685000  0.22829000  0.67235000  1.0 0.3788730597
C  C610  1  0.67235000  0.39251000  0.70685000  1.0 0.3788730597
C  C611  1  0.39251000  0.67235000  0.22829000  1.0 0.3788730597
C  C612  1  0.22829000  0.70685000  0.39251000  1.0 0.3788730597
C  C613  1  0.57765000  0.54315000  0.85749000  1.0 0.3788730597
C  C614  1  0.54315000  0.57765000  0.02171000  1.0 0.3788730597
C  C615  1  0.02171000  0.85749000  0.54315000  1.0 0.3788730597
C  C616  1  0.85749000  0.02171000  0.57765000  1.0 0.3788730597
C  C617  1  0.02171000  0.57765000  0.85749000  1.0 0.3788730597
C  C618  1  0.85749000  0.54315000  0.02171000  1.0 0.3788730597
C  C619  1  0.57765000  0.02171000  0.54315000  1.0 0.3788730597
C  C620  1  0.54315000  0.85749000  0.57765000  1.0 0.3788730597
C  C621  1  0.54315000  0.02171000  0.85749000  1.0 0.3788730597
C  C622  1  0.57765000  0.85749000  0.02171000  1.0 0.3788730597
C  C623  1  0.85749000  0.57765000  0.54315000  1.0 0.3788730597
C  C624  1  0.02171000  0.54315000  0.57765000  1.0 0.3788730597
C  C625  1  0.02630000  0.07500000  0.55524000  1.0 0.3788730597
C  C626  1  0.07500000  0.02630000  0.34346000  1.0 0.3788730597
C  C627  1  0.55524000  0.34346000  0.02630000  1.0 0.3788730597
C  C628  1  0.34346000  0.55524000  0.07500000  1.0 0.3788730597
C  C629  1  0.55524000  0.02630000  0.07500000  1.0 0.3788730597
C  C630  1  0.34346000  0.07500000  0.02630000  1.0 0.3788730597
C  C631  1  0.02630000  0.55524000  0.34346000  1.0 0.3788730597
C  C632  1  0.07500000  0.34346000  0.55524000  1.0 0.3788730597
C  C633  1  0.07500000  0.55524000  0.02630000  1.0 0.3788730597
C  C634  1  0.02630000  0.34346000  0.07500000  1.0 0.3788730597
C  C635  1  0.34346000  0.02630000  0.55524000  1.0 0.3788730597
C  C636  1  0.55524000  0.07500000  0.34346000  1.0 0.3788730597
C  C637  1  0.22370000  0.17500000  0.90654000  1.0 0.3788730597
C  C638  1  0.17500000  0.22370000  0.69476000  1.0 0.3788730597
C  C639  1  0.69476000  0.90654000  0.17500000  1.0 0.3788730597
C  C640  1  0.90654000  0.69476000  0.22370000  1.0 0.3788730597
C  C641  1  0.69476000  0.22370000  0.90654000  1.0 0.3788730597
C  C642  1  0.90654000  0.17500000  0.69476000  1.0 0.3788730597
C  C643  1  0.22370000  0.69476000  0.17500000  1.0 0.3788730597
C  C644  1  0.17500000  0.90654000  0.22370000  1.0 0.3788730597
C  C645  1  0.17500000  0.69476000  0.90654000  1.0 0.3788730597
C  C646  1  0.22370000  0.90654000  0.69476000  1.0 0.3788730597
C  C647  1  0.90654000  0.22370000  0.17500000  1.0 0.3788730597
C  C648  1  0.69476000  0.17500000  0.22370000  1.0 0.3788730597
C  C649  1  0.72370000  0.67500000  0.19476000  1.0 0.3788730597
C  C650  1  0.67500000  0.72370000  0.40654000  1.0 0.3788730597
C  C651  1  0.19476000  0.40654000  0.72370000  1.0 0.3788730597
C  C652  1  0.40654000  0.19476000  0.67500000  1.0 0.3788730597
C  C653  1  0.19476000  0.72370000  0.67500000  1.0 0.3788730597
C  C654  1  0.40654000  0.67500000  0.72370000  1.0 0.3788730597
C  C655  1  0.72370000  0.19476000  0.40654000  1.0 0.3788730597
C  C656  1  0.67500000  0.40654000  0.19476000  1.0 0.3788730597
C  C657  1  0.67500000  0.19476000  0.72370000  1.0 0.3788730597
C  C658  1  0.72370000  0.40654000  0.67500000  1.0 0.3788730597
C  C659  1  0.40654000  0.72370000  0.19476000  1.0 0.3788730597
C  C660  1  0.19476000  0.67500000  0.40654000  1.0 0.3788730597
C  C661  1  0.52630000  0.57500000  0.84346000  1.0 0.3788730597
C  C662  1  0.57500000  0.52630000  0.05524000  1.0 0.3788730597
C  C663  1  0.05524000  0.84346000  0.57500000  1.0 0.3788730597
C  C664  1  0.84346000  0.05524000  0.52630000  1.0 0.3788730597
C  C665  1  0.05524000  0.52630000  0.84346000  1.0 0.3788730597
C  C666  1  0.84346000  0.57500000  0.05524000  1.0 0.3788730597
C  C667  1  0.52630000  0.05524000  0.57500000  1.0 0.3788730597
C  C668  1  0.57500000  0.84346000  0.52630000  1.0 0.3788730597
C  C669  1  0.57500000  0.05524000  0.84346000  1.0 0.3788730597
C  C670  1  0.52630000  0.84346000  0.05524000  1.0 0.3788730597
C  C671  1  0.84346000  0.52630000  0.57500000  1.0 0.3788730597
C  C672  1  0.05524000  0.57500000  0.52630000  1.0 0.3788730597
C  C673  1  0.10556000  0.04120000  0.48642000  1.0 -0.0270119152
C  C674  1  0.04120000  0.10556000  0.36682000  1.0 -0.0270119152
C  C675  1  0.48642000  0.36682000  0.10556000  1.0 -0.0270119152
C  C676  1  0.36682000  0.48642000  0.04120000  1.0 -0.0270119152
C  C677  1  0.48642000  0.10556000  0.04120000  1.0 -0.0270119152
C  C678  1  0.36682000  0.04120000  0.10556000  1.0 -0.0270119152
C  C679  1  0.10556000  0.48642000  0.36682000  1.0 -0.0270119152
C  C680  1  0.04120000  0.36682000  0.48642000  1.0 -0.0270119152
C  C681  1  0.04120000  0.48642000  0.10556000  1.0 -0.0270119152
C  C682  1  0.10556000  0.36682000  0.04120000  1.0 -0.0270119152
C  C683  1  0.36682000  0.10556000  0.48642000  1.0 -0.0270119152
C  C684  1  0.48642000  0.04120000  0.36682000  1.0 -0.0270119152
C  C685  1  0.14444000  0.20880000  0.88318000  1.0 -0.0270119152
C  C686  1  0.20880000  0.14444000  0.76358000  1.0 -0.0270119152
C  C687  1  0.76358000  0.88318000  0.20880000  1.0 -0.0270119152
C  C688  1  0.88318000  0.76358000  0.14444000  1.0 -0.0270119152
C  C689  1  0.76358000  0.14444000  0.88318000  1.0 -0.0270119152
C  C690  1  0.88318000  0.20880000  0.76358000  1.0 -0.0270119152
C  C691  1  0.14444000  0.76358000  0.20880000  1.0 -0.0270119152
C  C692  1  0.20880000  0.88318000  0.14444000  1.0 -0.0270119152
C  C693  1  0.20880000  0.76358000  0.88318000  1.0 -0.0270119152
C  C694  1  0.14444000  0.88318000  0.76358000  1.0 -0.0270119152
C  C695  1  0.88318000  0.14444000  0.20880000  1.0 -0.0270119152
C  C696  1  0.76358000  0.20880000  0.14444000  1.0 -0.0270119152
C  C697  1  0.64444000  0.70880000  0.26358000  1.0 -0.0270119152
C  C698  1  0.70880000  0.64444000  0.38318000  1.0 -0.0270119152
C  C699  1  0.26358000  0.38318000  0.64444000  1.0 -0.0270119152
C  C700  1  0.38318000  0.26358000  0.70880000  1.0 -0.0270119152
C  C701  1  0.26358000  0.64444000  0.70880000  1.0 -0.0270119152
C  C702  1  0.38318000  0.70880000  0.64444000  1.0 -0.0270119152
C  C703  1  0.64444000  0.26358000  0.38318000  1.0 -0.0270119152
C  C704  1  0.70880000  0.38318000  0.26358000  1.0 -0.0270119152
C  C705  1  0.70880000  0.26358000  0.64444000  1.0 -0.0270119152
C  C706  1  0.64444000  0.38318000  0.70880000  1.0 -0.0270119152
C  C707  1  0.38318000  0.64444000  0.26358000  1.0 -0.0270119152
C  C708  1  0.26358000  0.70880000  0.38318000  1.0 -0.0270119152
C  C709  1  0.60556000  0.54120000  0.86682000  1.0 -0.0270119152
C  C710  1  0.54120000  0.60556000  0.98642000  1.0 -0.0270119152
C  C711  1  0.98642000  0.86682000  0.54120000  1.0 -0.0270119152
C  C712  1  0.86682000  0.98642000  0.60556000  1.0 -0.0270119152
C  C713  1  0.98642000  0.60556000  0.86682000  1.0 -0.0270119152
C  C714  1  0.86682000  0.54120000  0.98642000  1.0 -0.0270119152
C  C715  1  0.60556000  0.98642000  0.54120000  1.0 -0.0270119152
C  C716  1  0.54120000  0.86682000  0.60556000  1.0 -0.0270119152
C  C717  1  0.54120000  0.98642000  0.86682000  1.0 -0.0270119152
C  C718  1  0.60556000  0.86682000  0.98642000  1.0 -0.0270119152
C  C719  1  0.86682000  0.60556000  0.54120000  1.0 -0.0270119152
C  C720  1  0.98642000  0.54120000  0.60556000  1.0 -0.0270119152
C  C721  1  0.13458000  0.00942000  0.48252000  1.0 -0.0583302208
C  C722  1  0.00942000  0.13458000  0.37348000  1.0 -0.0583302208
C  C723  1  0.48252000  0.37348000  0.13458000  1.0 -0.0583302208
C  C724  1  0.37348000  0.48252000  0.00942000  1.0 -0.0583302208
C  C725  1  0.48252000  0.13458000  0.00942000  1.0 -0.0583302208
C  C726  1  0.37348000  0.00942000  0.13458000  1.0 -0.0583302208
C  C727  1  0.13458000  0.48252000  0.37348000  1.0 -0.0583302208
C  C728  1  0.00942000  0.37348000  0.48252000  1.0 -0.0583302208
C  C729  1  0.00942000  0.48252000  0.13458000  1.0 -0.0583302208
C  C730  1  0.13458000  0.37348000  0.00942000  1.0 -0.0583302208
C  C731  1  0.37348000  0.13458000  0.48252000  1.0 -0.0583302208
C  C732  1  0.48252000  0.00942000  0.37348000  1.0 -0.0583302208
C  C733  1  0.11542000  0.24058000  0.87652000  1.0 -0.0583302208
C  C734  1  0.24058000  0.11542000  0.76748000  1.0 -0.0583302208
C  C735  1  0.76748000  0.87652000  0.24058000  1.0 -0.0583302208
C  C736  1  0.87652000  0.76748000  0.11542000  1.0 -0.0583302208
C  C737  1  0.76748000  0.11542000  0.87652000  1.0 -0.0583302208
C  C738  1  0.87652000  0.24058000  0.76748000  1.0 -0.0583302208
C  C739  1  0.11542000  0.76748000  0.24058000  1.0 -0.0583302208
C  C740  1  0.24058000  0.87652000  0.11542000  1.0 -0.0583302208
C  C741  1  0.24058000  0.76748000  0.87652000  1.0 -0.0583302208
C  C742  1  0.11542000  0.87652000  0.76748000  1.0 -0.0583302208
C  C743  1  0.87652000  0.11542000  0.24058000  1.0 -0.0583302208
C  C744  1  0.76748000  0.24058000  0.11542000  1.0 -0.0583302208
C  C745  1  0.61542000  0.74058000  0.26748000  1.0 -0.0583302208
C  C746  1  0.74058000  0.61542000  0.37652000  1.0 -0.0583302208
C  C747  1  0.26748000  0.37652000  0.61542000  1.0 -0.0583302208
C  C748  1  0.37652000  0.26748000  0.74058000  1.0 -0.0583302208
C  C749  1  0.26748000  0.61542000  0.74058000  1.0 -0.0583302208
C  C750  1  0.37652000  0.74058000  0.61542000  1.0 -0.0583302208
C  C751  1  0.61542000  0.26748000  0.37652000  1.0 -0.0583302208
C  C752  1  0.74058000  0.37652000  0.26748000  1.0 -0.0583302208
C  C753  1  0.74058000  0.26748000  0.61542000  1.0 -0.0583302208
C  C754  1  0.61542000  0.37652000  0.74058000  1.0 -0.0583302208
C  C755  1  0.37652000  0.61542000  0.26748000  1.0 -0.0583302208
C  C756  1  0.26748000  0.74058000  0.37652000  1.0 -0.0583302208
C  C757  1  0.63458000  0.50942000  0.87348000  1.0 -0.0583302208
C  C758  1  0.50942000  0.63458000  0.98252000  1.0 -0.0583302208
C  C759  1  0.98252000  0.87348000  0.50942000  1.0 -0.0583302208
C  C760  1  0.87348000  0.98252000  0.63458000  1.0 -0.0583302208
C  C761  1  0.98252000  0.63458000  0.87348000  1.0 -0.0583302208
C  C762  1  0.87348000  0.50942000  0.98252000  1.0 -0.0583302208
C  C763  1  0.63458000  0.98252000  0.50942000  1.0 -0.0583302208
C  C764  1  0.50942000  0.87348000  0.63458000  1.0 -0.0583302208
C  C765  1  0.50942000  0.98252000  0.87348000  1.0 -0.0583302208
C  C766  1  0.63458000  0.87348000  0.98252000  1.0 -0.0583302208
C  C767  1  0.87348000  0.63458000  0.50942000  1.0 -0.0583302208
C  C768  1  0.98252000  0.50942000  0.63458000  1.0 -0.0583302208
C  C769  1  0.15917000  0.00969000  0.44851000  1.0 -0.1309815009
C  C770  1  0.00969000  0.15917000  0.38263000  1.0 -0.1309815009
C  C771  1  0.44851000  0.38263000  0.15917000  1.0 -0.1309815009
C  C772  1  0.38263000  0.44851000  0.00969000  1.0 -0.1309815009
C  C773  1  0.44851000  0.15917000  0.00969000  1.0 -0.1309815009
C  C774  1  0.38263000  0.00969000  0.15917000  1.0 -0.1309815009
C  C775  1  0.15917000  0.44851000  0.38263000  1.0 -0.1309815009
C  C776  1  0.00969000  0.38263000  0.44851000  1.0 -0.1309815009
C  C777  1  0.00969000  0.44851000  0.15917000  1.0 -0.1309815009
C  C778  1  0.15917000  0.38263000  0.00969000  1.0 -0.1309815009
C  C779  1  0.38263000  0.15917000  0.44851000  1.0 -0.1309815009
C  C780  1  0.44851000  0.00969000  0.38263000  1.0 -0.1309815009
C  C781  1  0.09083000  0.24031000  0.86737000  1.0 -0.1309815009
C  C782  1  0.24031000  0.09083000  0.80149000  1.0 -0.1309815009
C  C783  1  0.80149000  0.86737000  0.24031000  1.0 -0.1309815009
C  C784  1  0.86737000  0.80149000  0.09083000  1.0 -0.1309815009
C  C785  1  0.80149000  0.09083000  0.86737000  1.0 -0.1309815009
C  C786  1  0.86737000  0.24031000  0.80149000  1.0 -0.1309815009
C  C787  1  0.09083000  0.80149000  0.24031000  1.0 -0.1309815009
C  C788  1  0.24031000  0.86737000  0.09083000  1.0 -0.1309815009
C  C789  1  0.24031000  0.80149000  0.86737000  1.0 -0.1309815009
C  C790  1  0.09083000  0.86737000  0.80149000  1.0 -0.1309815009
C  C791  1  0.86737000  0.09083000  0.24031000  1.0 -0.1309815009
C  C792  1  0.80149000  0.24031000  0.09083000  1.0 -0.1309815009
C  C793  1  0.59083000  0.74031000  0.30149000  1.0 -0.1309815009
C  C794  1  0.74031000  0.59083000  0.36737000  1.0 -0.1309815009
C  C795  1  0.30149000  0.36737000  0.59083000  1.0 -0.1309815009
C  C796  1  0.36737000  0.30149000  0.74031000  1.0 -0.1309815009
C  C797  1  0.30149000  0.59083000  0.74031000  1.0 -0.1309815009
C  C798  1  0.36737000  0.74031000  0.59083000  1.0 -0.1309815009
C  C799  1  0.59083000  0.30149000  0.36737000  1.0 -0.1309815009
C  C800  1  0.74031000  0.36737000  0.30149000  1.0 -0.1309815009
C  C801  1  0.74031000  0.30149000  0.59083000  1.0 -0.1309815009
C  C802  1  0.59083000  0.36737000  0.74031000  1.0 -0.1309815009
C  C803  1  0.36737000  0.59083000  0.30149000  1.0 -0.1309815009
C  C804  1  0.30149000  0.74031000  0.36737000  1.0 -0.1309815009
C  C805  1  0.65917000  0.50969000  0.88263000  1.0 -0.1309815009
C  C806  1  0.50969000  0.65917000  0.94851000  1.0 -0.1309815009
C  C807  1  0.94851000  0.88263000  0.50969000  1.0 -0.1309815009
C  C808  1  0.88263000  0.94851000  0.65917000  1.0 -0.1309815009
C  C809  1  0.94851000  0.65917000  0.88263000  1.0 -0.1309815009
C  C810  1  0.88263000  0.50969000  0.94851000  1.0 -0.1309815009
C  C811  1  0.65917000  0.94851000  0.50969000  1.0 -0.1309815009
C  C812  1  0.50969000  0.88263000  0.65917000  1.0 -0.1309815009
C  C813  1  0.50969000  0.94851000  0.88263000  1.0 -0.1309815009
C  C814  1  0.65917000  0.88263000  0.94851000  1.0 -0.1309815009
C  C815  1  0.88263000  0.65917000  0.50969000  1.0 -0.1309815009
C  C816  1  0.94851000  0.50969000  0.65917000  1.0 -0.1309815009
C  C817  1  0.15427000  0.04169000  0.41895000  1.0 0.0887625778
C  C818  1  0.04169000  0.15427000  0.38509000  1.0 0.0887625778
C  C819  1  0.41895000  0.38509000  0.15427000  1.0 0.0887625778
C  C820  1  0.38509000  0.41895000  0.04169000  1.0 0.0887625778
C  C821  1  0.41895000  0.15427000  0.04169000  1.0 0.0887625778
C  C822  1  0.38509000  0.04169000  0.15427000  1.0 0.0887625778
C  C823  1  0.15427000  0.41895000  0.38509000  1.0 0.0887625778
C  C824  1  0.04169000  0.38509000  0.41895000  1.0 0.0887625778
C  C825  1  0.04169000  0.41895000  0.15427000  1.0 0.0887625778
C  C826  1  0.15427000  0.38509000  0.04169000  1.0 0.0887625778
C  C827  1  0.38509000  0.15427000  0.41895000  1.0 0.0887625778
C  C828  1  0.41895000  0.04169000  0.38509000  1.0 0.0887625778
C  C829  1  0.09573000  0.20831000  0.86491000  1.0 0.0887625778
C  C830  1  0.20831000  0.09573000  0.83105000  1.0 0.0887625778
C  C831  1  0.83105000  0.86491000  0.20831000  1.0 0.0887625778
C  C832  1  0.86491000  0.83105000  0.09573000  1.0 0.0887625778
C  C833  1  0.83105000  0.09573000  0.86491000  1.0 0.0887625778
C  C834  1  0.86491000  0.20831000  0.83105000  1.0 0.0887625778
C  C835  1  0.09573000  0.83105000  0.20831000  1.0 0.0887625778
C  C836  1  0.20831000  0.86491000  0.09573000  1.0 0.0887625778
C  C837  1  0.20831000  0.83105000  0.86491000  1.0 0.0887625778
C  C838  1  0.09573000  0.86491000  0.83105000  1.0 0.0887625778
C  C839  1  0.86491000  0.09573000  0.20831000  1.0 0.0887625778
C  C840  1  0.83105000  0.20831000  0.09573000  1.0 0.0887625778
C  C841  1  0.59573000  0.70831000  0.33105000  1.0 0.0887625778
C  C842  1  0.70831000  0.59573000  0.36491000  1.0 0.0887625778
C  C843  1  0.33105000  0.36491000  0.59573000  1.0 0.0887625778
C  C844  1  0.36491000  0.33105000  0.70831000  1.0 0.0887625778
C  C845  1  0.33105000  0.59573000  0.70831000  1.0 0.0887625778
C  C846  1  0.36491000  0.70831000  0.59573000  1.0 0.0887625778
C  C847  1  0.59573000  0.33105000  0.36491000  1.0 0.0887625778
C  C848  1  0.70831000  0.36491000  0.33105000  1.0 0.0887625778
C  C849  1  0.70831000  0.33105000  0.59573000  1.0 0.0887625778
C  C850  1  0.59573000  0.36491000  0.70831000  1.0 0.0887625778
C  C851  1  0.36491000  0.59573000  0.33105000  1.0 0.0887625778
C  C852  1  0.33105000  0.70831000  0.36491000  1.0 0.0887625778
C  C853  1  0.65427000  0.54169000  0.88509000  1.0 0.0887625778
C  C854  1  0.54169000  0.65427000  0.91895000  1.0 0.0887625778
C  C855  1  0.91895000  0.88509000  0.54169000  1.0 0.0887625778
C  C856  1  0.88509000  0.91895000  0.65427000  1.0 0.0887625778
C  C857  1  0.91895000  0.65427000  0.88509000  1.0 0.0887625778
C  C858  1  0.88509000  0.54169000  0.91895000  1.0 0.0887625778
C  C859  1  0.65427000  0.91895000  0.54169000  1.0 0.0887625778
C  C860  1  0.54169000  0.88509000  0.65427000  1.0 0.0887625778
C  C861  1  0.54169000  0.91895000  0.88509000  1.0 0.0887625778
C  C862  1  0.65427000  0.88509000  0.91895000  1.0 0.0887625778
C  C863  1  0.88509000  0.65427000  0.54169000  1.0 0.0887625778
C  C864  1  0.91895000  0.54169000  0.65427000  1.0 0.0887625778
C  C865  1  0.10292000  0.07160000  0.45536000  1.0 0.0594889447
C  C866  1  0.07160000  0.10292000  0.37012000  1.0 0.0594889447
C  C867  1  0.45536000  0.37012000  0.10292000  1.0 0.0594889447
C  C868  1  0.37012000  0.45536000  0.07160000  1.0 0.0594889447
C  C869  1  0.45536000  0.10292000  0.07160000  1.0 0.0594889447
C  C870  1  0.37012000  0.07160000  0.10292000  1.0 0.0594889447
C  C871  1  0.10292000  0.45536000  0.37012000  1.0 0.0594889447
C  C872  1  0.07160000  0.37012000  0.45536000  1.0 0.0594889447
C  C873  1  0.07160000  0.45536000  0.10292000  1.0 0.0594889447
C  C874  1  0.10292000  0.37012000  0.07160000  1.0 0.0594889447
C  C875  1  0.37012000  0.10292000  0.45536000  1.0 0.0594889447
C  C876  1  0.45536000  0.07160000  0.37012000  1.0 0.0594889447
C  C877  1  0.14708000  0.17840000  0.87988000  1.0 0.0594889447
C  C878  1  0.17840000  0.14708000  0.79464000  1.0 0.0594889447
C  C879  1  0.79464000  0.87988000  0.17840000  1.0 0.0594889447
C  C880  1  0.87988000  0.79464000  0.14708000  1.0 0.0594889447
C  C881  1  0.79464000  0.14708000  0.87988000  1.0 0.0594889447
C  C882  1  0.87988000  0.17840000  0.79464000  1.0 0.0594889447
C  C883  1  0.14708000  0.79464000  0.17840000  1.0 0.0594889447
C  C884  1  0.17840000  0.87988000  0.14708000  1.0 0.0594889447
C  C885  1  0.17840000  0.79464000  0.87988000  1.0 0.0594889447
C  C886  1  0.14708000  0.87988000  0.79464000  1.0 0.0594889447
C  C887  1  0.87988000  0.14708000  0.17840000  1.0 0.0594889447
C  C888  1  0.79464000  0.17840000  0.14708000  1.0 0.0594889447
C  C889  1  0.64708000  0.67840000  0.29464000  1.0 0.0594889447
C  C890  1  0.67840000  0.64708000  0.37988000  1.0 0.0594889447
C  C891  1  0.29464000  0.37988000  0.64708000  1.0 0.0594889447
C  C892  1  0.37988000  0.29464000  0.67840000  1.0 0.0594889447
C  C893  1  0.29464000  0.64708000  0.67840000  1.0 0.0594889447
C  C894  1  0.37988000  0.67840000  0.64708000  1.0 0.0594889447
C  C895  1  0.64708000  0.29464000  0.37988000  1.0 0.0594889447
C  C896  1  0.67840000  0.37988000  0.29464000  1.0 0.0594889447
C  C897  1  0.67840000  0.29464000  0.64708000  1.0 0.0594889447
C  C898  1  0.64708000  0.37988000  0.67840000  1.0 0.0594889447
C  C899  1  0.37988000  0.64708000  0.29464000  1.0 0.0594889447
C  C900  1  0.29464000  0.67840000  0.37988000  1.0 0.0594889447
C  C901  1  0.60292000  0.57160000  0.87012000  1.0 0.0594889447
C  C902  1  0.57160000  0.60292000  0.95536000  1.0 0.0594889447
C  C903  1  0.95536000  0.87012000  0.57160000  1.0 0.0594889447
C  C904  1  0.87012000  0.95536000  0.60292000  1.0 0.0594889447
C  C905  1  0.95536000  0.60292000  0.87012000  1.0 0.0594889447
C  C906  1  0.87012000  0.57160000  0.95536000  1.0 0.0594889447
C  C907  1  0.60292000  0.95536000  0.57160000  1.0 0.0594889447
C  C908  1  0.57160000  0.87012000  0.60292000  1.0 0.0594889447
C  C909  1  0.57160000  0.95536000  0.87012000  1.0 0.0594889447
C  C910  1  0.60292000  0.87012000  0.95536000  1.0 0.0594889447
C  C911  1  0.87012000  0.60292000  0.57160000  1.0 0.0594889447
C  C912  1  0.95536000  0.57160000  0.60292000  1.0 0.0594889447
C  C913  1  0.07874000  0.17254000  0.42784000  1.0 0.241690483
C  C914  1  0.17254000  0.07874000  0.32088000  1.0 0.241690483
C  C915  1  0.42784000  0.32088000  0.07874000  1.0 0.241690483
C  C916  1  0.32088000  0.42784000  0.17254000  1.0 0.241690483
C  C917  1  0.42784000  0.07874000  0.17254000  1.0 0.241690483
C  C918  1  0.32088000  0.17254000  0.07874000  1.0 0.241690483
C  C919  1  0.07874000  0.42784000  0.32088000  1.0 0.241690483
C  C920  1  0.17254000  0.32088000  0.42784000  1.0 0.241690483
C  C921  1  0.17254000  0.42784000  0.07874000  1.0 0.241690483
C  C922  1  0.07874000  0.32088000  0.17254000  1.0 0.241690483
C  C923  1  0.32088000  0.07874000  0.42784000  1.0 0.241690483
C  C924  1  0.42784000  0.17254000  0.32088000  1.0 0.241690483
C  C925  1  0.17126000  0.07746000  0.92912000  1.0 0.241690483
C  C926  1  0.07746000  0.17126000  0.82216000  1.0 0.241690483
C  C927  1  0.82216000  0.92912000  0.07746000  1.0 0.241690483
C  C928  1  0.92912000  0.82216000  0.17126000  1.0 0.241690483
C  C929  1  0.82216000  0.17126000  0.92912000  1.0 0.241690483
C  C930  1  0.92912000  0.07746000  0.82216000  1.0 0.241690483
C  C931  1  0.17126000  0.82216000  0.07746000  1.0 0.241690483
C  C932  1  0.07746000  0.92912000  0.17126000  1.0 0.241690483
C  C933  1  0.07746000  0.82216000  0.92912000  1.0 0.241690483
C  C934  1  0.17126000  0.92912000  0.82216000  1.0 0.241690483
C  C935  1  0.92912000  0.17126000  0.07746000  1.0 0.241690483
C  C936  1  0.82216000  0.07746000  0.17126000  1.0 0.241690483
C  C937  1  0.67126000  0.57746000  0.32216000  1.0 0.241690483
C  C938  1  0.57746000  0.67126000  0.42912000  1.0 0.241690483
C  C939  1  0.32216000  0.42912000  0.67126000  1.0 0.241690483
C  C940  1  0.42912000  0.32216000  0.57746000  1.0 0.241690483
C  C941  1  0.32216000  0.67126000  0.57746000  1.0 0.241690483
C  C942  1  0.42912000  0.57746000  0.67126000  1.0 0.241690483
C  C943  1  0.67126000  0.32216000  0.42912000  1.0 0.241690483
C  C944  1  0.57746000  0.42912000  0.32216000  1.0 0.241690483
C  C945  1  0.57746000  0.32216000  0.67126000  1.0 0.241690483
C  C946  1  0.67126000  0.42912000  0.57746000  1.0 0.241690483
C  C947  1  0.42912000  0.67126000  0.32216000  1.0 0.241690483
C  C948  1  0.32216000  0.57746000  0.42912000  1.0 0.241690483
C  C949  1  0.57874000  0.67254000  0.82088000  1.0 0.241690483
C  C950  1  0.67254000  0.57874000  0.92784000  1.0 0.241690483
C  C951  1  0.92784000  0.82088000  0.67254000  1.0 0.241690483
C  C952  1  0.82088000  0.92784000  0.57874000  1.0 0.241690483
C  C953  1  0.92784000  0.57874000  0.82088000  1.0 0.241690483
C  C954  1  0.82088000  0.67254000  0.92784000  1.0 0.241690483
C  C955  1  0.57874000  0.92784000  0.67254000  1.0 0.241690483
C  C956  1  0.67254000  0.82088000  0.57874000  1.0 0.241690483
C  C957  1  0.67254000  0.92784000  0.82088000  1.0 0.241690483
C  C958  1  0.57874000  0.82088000  0.92784000  1.0 0.241690483
C  C959  1  0.82088000  0.57874000  0.67254000  1.0 0.241690483
C  C960  1  0.92784000  0.67254000  0.57874000  1.0 0.241690483
C  C961  1  0.17118000  0.11334000  0.41348000  1.0 0.0711530076
C  C962  1  0.11334000  0.17118000  0.30200000  1.0 0.0711530076
C  C963  1  0.41348000  0.30200000  0.17118000  1.0 0.0711530076
C  C964  1  0.30200000  0.41348000  0.11334000  1.0 0.0711530076
C  C965  1  0.41348000  0.17118000  0.11334000  1.0 0.0711530076
C  C966  1  0.30200000  0.11334000  0.17118000  1.0 0.0711530076
C  C967  1  0.17118000  0.41348000  0.30200000  1.0 0.0711530076
C  C968  1  0.11334000  0.30200000  0.41348000  1.0 0.0711530076
C  C969  1  0.11334000  0.41348000  0.17118000  1.0 0.0711530076
C  C970  1  0.17118000  0.30200000  0.11334000  1.0 0.0711530076
C  C971  1  0.30200000  0.17118000  0.41348000  1.0 0.0711530076
C  C972  1  0.41348000  0.11334000  0.30200000  1.0 0.0711530076
C  C973  1  0.07882000  0.13666000  0.94800000  1.0 0.0711530076
C  C974  1  0.13666000  0.07882000  0.83652000  1.0 0.0711530076
C  C975  1  0.83652000  0.94800000  0.13666000  1.0 0.0711530076
C  C976  1  0.94800000  0.83652000  0.07882000  1.0 0.0711530076
C  C977  1  0.83652000  0.07882000  0.94800000  1.0 0.0711530076
C  C978  1  0.94800000  0.13666000  0.83652000  1.0 0.0711530076
C  C979  1  0.07882000  0.83652000  0.13666000  1.0 0.0711530076
C  C980  1  0.13666000  0.94800000  0.07882000  1.0 0.0711530076
C  C981  1  0.13666000  0.83652000  0.94800000  1.0 0.0711530076
C  C982  1  0.07882000  0.94800000  0.83652000  1.0 0.0711530076
C  C983  1  0.94800000  0.07882000  0.13666000  1.0 0.0711530076
C  C984  1  0.83652000  0.13666000  0.07882000  1.0 0.0711530076
C  C985  1  0.57882000  0.63666000  0.33652000  1.0 0.0711530076
C  C986  1  0.63666000  0.57882000  0.44800000  1.0 0.0711530076
C  C987  1  0.33652000  0.44800000  0.57882000  1.0 0.0711530076
C  C988  1  0.44800000  0.33652000  0.63666000  1.0 0.0711530076
C  C989  1  0.33652000  0.57882000  0.63666000  1.0 0.0711530076
C  C990  1  0.44800000  0.63666000  0.57882000  1.0 0.0711530076
C  C991  1  0.57882000  0.33652000  0.44800000  1.0 0.0711530076
C  C992  1  0.63666000  0.44800000  0.33652000  1.0 0.0711530076
C  C993  1  0.63666000  0.33652000  0.57882000  1.0 0.0711530076
C  C994  1  0.57882000  0.44800000  0.63666000  1.0 0.0711530076
C  C995  1  0.44800000  0.57882000  0.33652000  1.0 0.0711530076
C  C996  1  0.33652000  0.63666000  0.44800000  1.0 0.0711530076
C  C997  1  0.67118000  0.61334000  0.80200000  1.0 0.0711530076
C  C998  1  0.61334000  0.67118000  0.91348000  1.0 0.0711530076
C  C999  1  0.91348000  0.80200000  0.61334000  1.0 0.0711530076
C  C1000  1  0.80200000  0.91348000  0.67118000  1.0 0.0711530076
C  C1001  1  0.91348000  0.67118000  0.80200000  1.0 0.0711530076
C  C1002  1  0.80200000  0.61334000  0.91348000  1.0 0.0711530076
C  C1003  1  0.67118000  0.91348000  0.61334000  1.0 0.0711530076
C  C1004  1  0.61334000  0.80200000  0.67118000  1.0 0.0711530076
C  C1005  1  0.61334000  0.91348000  0.80200000  1.0 0.0711530076
C  C1006  1  0.67118000  0.80200000  0.91348000  1.0 0.0711530076
C  C1007  1  0.80200000  0.67118000  0.61334000  1.0 0.0711530076
C  C1008  1  0.91348000  0.61334000  0.67118000  1.0 0.0711530076
C  C1009  1  0.20131000  0.10573000  0.41923000  1.0 -0.1309815009
C  C1010  1  0.10573000  0.20131000  0.27373000  1.0 -0.1309815009
C  C1011  1  0.41923000  0.27373000  0.20131000  1.0 -0.1309815009
C  C1012  1  0.27373000  0.41923000  0.10573000  1.0 -0.1309815009
C  C1013  1  0.41923000  0.20131000  0.10573000  1.0 -0.1309815009
C  C1014  1  0.27373000  0.10573000  0.20131000  1.0 -0.1309815009
C  C1015  1  0.20131000  0.41923000  0.27373000  1.0 -0.1309815009
C  C1016  1  0.10573000  0.27373000  0.41923000  1.0 -0.1309815009
C  C1017  1  0.10573000  0.41923000  0.20131000  1.0 -0.1309815009
C  C1018  1  0.20131000  0.27373000  0.10573000  1.0 -0.1309815009
C  C1019  1  0.27373000  0.20131000  0.41923000  1.0 -0.1309815009
C  C1020  1  0.41923000  0.10573000  0.27373000  1.0 -0.1309815009
C  C1021  1  0.04869000  0.14427000  0.97627000  1.0 -0.1309815009
C  C1022  1  0.14427000  0.04869000  0.83077000  1.0 -0.1309815009
C  C1023  1  0.83077000  0.97627000  0.14427000  1.0 -0.1309815009
C  C1024  1  0.97627000  0.83077000  0.04869000  1.0 -0.1309815009
C  C1025  1  0.83077000  0.04869000  0.97627000  1.0 -0.1309815009
C  C1026  1  0.97627000  0.14427000  0.83077000  1.0 -0.1309815009
C  C1027  1  0.04869000  0.83077000  0.14427000  1.0 -0.1309815009
C  C1028  1  0.14427000  0.97627000  0.04869000  1.0 -0.1309815009
C  C1029  1  0.14427000  0.83077000  0.97627000  1.0 -0.1309815009
C  C1030  1  0.04869000  0.97627000  0.83077000  1.0 -0.1309815009
C  C1031  1  0.97627000  0.04869000  0.14427000  1.0 -0.1309815009
C  C1032  1  0.83077000  0.14427000  0.04869000  1.0 -0.1309815009
C  C1033  1  0.54869000  0.64427000  0.33077000  1.0 -0.1309815009
C  C1034  1  0.64427000  0.54869000  0.47627000  1.0 -0.1309815009
C  C1035  1  0.33077000  0.47627000  0.54869000  1.0 -0.1309815009
C  C1036  1  0.47627000  0.33077000  0.64427000  1.0 -0.1309815009
C  C1037  1  0.33077000  0.54869000  0.64427000  1.0 -0.1309815009
C  C1038  1  0.47627000  0.64427000  0.54869000  1.0 -0.1309815009
C  C1039  1  0.54869000  0.33077000  0.47627000  1.0 -0.1309815009
C  C1040  1  0.64427000  0.47627000  0.33077000  1.0 -0.1309815009
C  C1041  1  0.64427000  0.33077000  0.54869000  1.0 -0.1309815009
C  C1042  1  0.54869000  0.47627000  0.64427000  1.0 -0.1309815009
C  C1043  1  0.47627000  0.54869000  0.33077000  1.0 -0.1309815009
C  C1044  1  0.33077000  0.64427000  0.47627000  1.0 -0.1309815009
C  C1045  1  0.70131000  0.60573000  0.77373000  1.0 -0.1309815009
C  C1046  1  0.60573000  0.70131000  0.91923000  1.0 -0.1309815009
C  C1047  1  0.91923000  0.77373000  0.60573000  1.0 -0.1309815009
C  C1048  1  0.77373000  0.91923000  0.70131000  1.0 -0.1309815009
C  C1049  1  0.91923000  0.70131000  0.77373000  1.0 -0.1309815009
C  C1050  1  0.77373000  0.60573000  0.91923000  1.0 -0.1309815009
C  C1051  1  0.70131000  0.91923000  0.60573000  1.0 -0.1309815009
C  C1052  1  0.60573000  0.77373000  0.70131000  1.0 -0.1309815009
C  C1053  1  0.60573000  0.91923000  0.77373000  1.0 -0.1309815009
C  C1054  1  0.70131000  0.77373000  0.91923000  1.0 -0.1309815009
C  C1055  1  0.77373000  0.70131000  0.60573000  1.0 -0.1309815009
C  C1056  1  0.91923000  0.60573000  0.70131000  1.0 -0.1309815009
C  C1057  1  0.23448000  0.10290000  0.39074000  1.0 -0.0583302208
C  C1058  1  0.10290000  0.23448000  0.27188000  1.0 -0.0583302208
C  C1059  1  0.39074000  0.27188000  0.23448000  1.0 -0.0583302208
C  C1060  1  0.27188000  0.39074000  0.10290000  1.0 -0.0583302208
C  C1061  1  0.39074000  0.23448000  0.10290000  1.0 -0.0583302208
C  C1062  1  0.27188000  0.10290000  0.23448000  1.0 -0.0583302208
C  C1063  1  0.23448000  0.39074000  0.27188000  1.0 -0.0583302208
C  C1064  1  0.10290000  0.27188000  0.39074000  1.0 -0.0583302208
C  C1065  1  0.10290000  0.39074000  0.23448000  1.0 -0.0583302208
C  C1066  1  0.23448000  0.27188000  0.10290000  1.0 -0.0583302208
C  C1067  1  0.27188000  0.23448000  0.39074000  1.0 -0.0583302208
C  C1068  1  0.39074000  0.10290000  0.27188000  1.0 -0.0583302208
C  C1069  1  0.01552000  0.14710000  0.97812000  1.0 -0.0583302208
C  C1070  1  0.14710000  0.01552000  0.85926000  1.0 -0.0583302208
C  C1071  1  0.85926000  0.97812000  0.14710000  1.0 -0.0583302208
C  C1072  1  0.97812000  0.85926000  0.01552000  1.0 -0.0583302208
C  C1073  1  0.85926000  0.01552000  0.97812000  1.0 -0.0583302208
C  C1074  1  0.97812000  0.14710000  0.85926000  1.0 -0.0583302208
C  C1075  1  0.01552000  0.85926000  0.14710000  1.0 -0.0583302208
C  C1076  1  0.14710000  0.97812000  0.01552000  1.0 -0.0583302208
C  C1077  1  0.14710000  0.85926000  0.97812000  1.0 -0.0583302208
C  C1078  1  0.01552000  0.97812000  0.85926000  1.0 -0.0583302208
C  C1079  1  0.97812000  0.01552000  0.14710000  1.0 -0.0583302208
C  C1080  1  0.85926000  0.14710000  0.01552000  1.0 -0.0583302208
C  C1081  1  0.51552000  0.64710000  0.35926000  1.0 -0.0583302208
C  C1082  1  0.64710000  0.51552000  0.47812000  1.0 -0.0583302208
C  C1083  1  0.35926000  0.47812000  0.51552000  1.0 -0.0583302208
C  C1084  1  0.47812000  0.35926000  0.64710000  1.0 -0.0583302208
C  C1085  1  0.35926000  0.51552000  0.64710000  1.0 -0.0583302208
C  C1086  1  0.47812000  0.64710000  0.51552000  1.0 -0.0583302208
C  C1087  1  0.51552000  0.35926000  0.47812000  1.0 -0.0583302208
C  C1088  1  0.64710000  0.47812000  0.35926000  1.0 -0.0583302208
C  C1089  1  0.64710000  0.35926000  0.51552000  1.0 -0.0583302208
C  C1090  1  0.51552000  0.47812000  0.64710000  1.0 -0.0583302208
C  C1091  1  0.47812000  0.51552000  0.35926000  1.0 -0.0583302208
C  C1092  1  0.35926000  0.64710000  0.47812000  1.0 -0.0583302208
C  C1093  1  0.73448000  0.60290000  0.77188000  1.0 -0.0583302208
C  C1094  1  0.60290000  0.73448000  0.89074000  1.0 -0.0583302208
C  C1095  1  0.89074000  0.77188000  0.60290000  1.0 -0.0583302208
C  C1096  1  0.77188000  0.89074000  0.73448000  1.0 -0.0583302208
C  C1097  1  0.89074000  0.73448000  0.77188000  1.0 -0.0583302208
C  C1098  1  0.77188000  0.60290000  0.89074000  1.0 -0.0583302208
C  C1099  1  0.73448000  0.89074000  0.60290000  1.0 -0.0583302208
C  C1100  1  0.60290000  0.77188000  0.73448000  1.0 -0.0583302208
C  C1101  1  0.60290000  0.89074000  0.77188000  1.0 -0.0583302208
C  C1102  1  0.73448000  0.77188000  0.89074000  1.0 -0.0583302208
C  C1103  1  0.77188000  0.73448000  0.60290000  1.0 -0.0583302208
C  C1104  1  0.89074000  0.60290000  0.73448000  1.0 -0.0583302208
C  C1105  1  0.23470000  0.10856000  0.35740000  1.0 -0.0270119152
C  C1106  1  0.10856000  0.23470000  0.29934000  1.0 -0.0270119152
C  C1107  1  0.35740000  0.29934000  0.23470000  1.0 -0.0270119152
C  C1108  1  0.29934000  0.35740000  0.10856000  1.0 -0.0270119152
C  C1109  1  0.35740000  0.23470000  0.10856000  1.0 -0.0270119152
C  C1110  1  0.29934000  0.10856000  0.23470000  1.0 -0.0270119152
C  C1111  1  0.23470000  0.35740000  0.29934000  1.0 -0.0270119152
C  C1112  1  0.10856000  0.29934000  0.35740000  1.0 -0.0270119152
C  C1113  1  0.10856000  0.35740000  0.23470000  1.0 -0.0270119152
C  C1114  1  0.23470000  0.29934000  0.10856000  1.0 -0.0270119152
C  C1115  1  0.29934000  0.23470000  0.35740000  1.0 -0.0270119152
C  C1116  1  0.35740000  0.10856000  0.29934000  1.0 -0.0270119152
C  C1117  1  0.01530000  0.14144000  0.95066000  1.0 -0.0270119152
C  C1118  1  0.14144000  0.01530000  0.89260000  1.0 -0.0270119152
C  C1119  1  0.89260000  0.95066000  0.14144000  1.0 -0.0270119152
C  C1120  1  0.95066000  0.89260000  0.01530000  1.0 -0.0270119152
C  C1121  1  0.89260000  0.01530000  0.95066000  1.0 -0.0270119152
C  C1122  1  0.95066000  0.14144000  0.89260000  1.0 -0.0270119152
C  C1123  1  0.01530000  0.89260000  0.14144000  1.0 -0.0270119152
C  C1124  1  0.14144000  0.95066000  0.01530000  1.0 -0.0270119152
C  C1125  1  0.14144000  0.89260000  0.95066000  1.0 -0.0270119152
C  C1126  1  0.01530000  0.95066000  0.89260000  1.0 -0.0270119152
C  C1127  1  0.95066000  0.01530000  0.14144000  1.0 -0.0270119152
C  C1128  1  0.89260000  0.14144000  0.01530000  1.0 -0.0270119152
C  C1129  1  0.51530000  0.64144000  0.39260000  1.0 -0.0270119152
C  C1130  1  0.64144000  0.51530000  0.45066000  1.0 -0.0270119152
C  C1131  1  0.39260000  0.45066000  0.51530000  1.0 -0.0270119152
C  C1132  1  0.45066000  0.39260000  0.64144000  1.0 -0.0270119152
C  C1133  1  0.39260000  0.51530000  0.64144000  1.0 -0.0270119152
C  C1134  1  0.45066000  0.64144000  0.51530000  1.0 -0.0270119152
C  C1135  1  0.51530000  0.39260000  0.45066000  1.0 -0.0270119152
C  C1136  1  0.64144000  0.45066000  0.39260000  1.0 -0.0270119152
C  C1137  1  0.64144000  0.39260000  0.51530000  1.0 -0.0270119152
C  C1138  1  0.51530000  0.45066000  0.64144000  1.0 -0.0270119152
C  C1139  1  0.45066000  0.51530000  0.39260000  1.0 -0.0270119152
C  C1140  1  0.39260000  0.64144000  0.45066000  1.0 -0.0270119152
C  C1141  1  0.73470000  0.60856000  0.79934000  1.0 -0.0270119152
C  C1142  1  0.60856000  0.73470000  0.85740000  1.0 -0.0270119152
C  C1143  1  0.85740000  0.79934000  0.60856000  1.0 -0.0270119152
C  C1144  1  0.79934000  0.85740000  0.73470000  1.0 -0.0270119152
C  C1145  1  0.85740000  0.73470000  0.79934000  1.0 -0.0270119152
C  C1146  1  0.79934000  0.60856000  0.85740000  1.0 -0.0270119152
C  C1147  1  0.73470000  0.85740000  0.60856000  1.0 -0.0270119152
C  C1148  1  0.60856000  0.79934000  0.73470000  1.0 -0.0270119152
C  C1149  1  0.60856000  0.85740000  0.79934000  1.0 -0.0270119152
C  C1150  1  0.73470000  0.79934000  0.85740000  1.0 -0.0270119152
C  C1151  1  0.79934000  0.73470000  0.60856000  1.0 -0.0270119152
C  C1152  1  0.85740000  0.60856000  0.73470000  1.0 -0.0270119152
C  C1153  1  0.20288000  0.11594000  0.35380000  1.0 0.0594889447
C  C1154  1  0.11594000  0.20288000  0.32738000  1.0 0.0594889447
C  C1155  1  0.35380000  0.32738000  0.20288000  1.0 0.0594889447
C  C1156  1  0.32738000  0.35380000  0.11594000  1.0 0.0594889447
C  C1157  1  0.35380000  0.20288000  0.11594000  1.0 0.0594889447
C  C1158  1  0.32738000  0.11594000  0.20288000  1.0 0.0594889447
C  C1159  1  0.20288000  0.35380000  0.32738000  1.0 0.0594889447
C  C1160  1  0.11594000  0.32738000  0.35380000  1.0 0.0594889447
C  C1161  1  0.11594000  0.35380000  0.20288000  1.0 0.0594889447
C  C1162  1  0.20288000  0.32738000  0.11594000  1.0 0.0594889447
C  C1163  1  0.32738000  0.20288000  0.35380000  1.0 0.0594889447
C  C1164  1  0.35380000  0.11594000  0.32738000  1.0 0.0594889447
C  C1165  1  0.04712000  0.13406000  0.92262000  1.0 0.0594889447
C  C1166  1  0.13406000  0.04712000  0.89620000  1.0 0.0594889447
C  C1167  1  0.89620000  0.92262000  0.13406000  1.0 0.0594889447
C  C1168  1  0.92262000  0.89620000  0.04712000  1.0 0.0594889447
C  C1169  1  0.89620000  0.04712000  0.92262000  1.0 0.0594889447
C  C1170  1  0.92262000  0.13406000  0.89620000  1.0 0.0594889447
C  C1171  1  0.04712000  0.89620000  0.13406000  1.0 0.0594889447
C  C1172  1  0.13406000  0.92262000  0.04712000  1.0 0.0594889447
C  C1173  1  0.13406000  0.89620000  0.92262000  1.0 0.0594889447
C  C1174  1  0.04712000  0.92262000  0.89620000  1.0 0.0594889447
C  C1175  1  0.92262000  0.04712000  0.13406000  1.0 0.0594889447
C  C1176  1  0.89620000  0.13406000  0.04712000  1.0 0.0594889447
C  C1177  1  0.54712000  0.63406000  0.39620000  1.0 0.0594889447
C  C1178  1  0.63406000  0.54712000  0.42262000  1.0 0.0594889447
C  C1179  1  0.39620000  0.42262000  0.54712000  1.0 0.0594889447
C  C1180  1  0.42262000  0.39620000  0.63406000  1.0 0.0594889447
C  C1181  1  0.39620000  0.54712000  0.63406000  1.0 0.0594889447
C  C1182  1  0.42262000  0.63406000  0.54712000  1.0 0.0594889447
C  C1183  1  0.54712000  0.39620000  0.42262000  1.0 0.0594889447
C  C1184  1  0.63406000  0.42262000  0.39620000  1.0 0.0594889447
C  C1185  1  0.63406000  0.39620000  0.54712000  1.0 0.0594889447
C  C1186  1  0.54712000  0.42262000  0.63406000  1.0 0.0594889447
C  C1187  1  0.42262000  0.54712000  0.39620000  1.0 0.0594889447
C  C1188  1  0.39620000  0.63406000  0.42262000  1.0 0.0594889447
C  C1189  1  0.70288000  0.61594000  0.82738000  1.0 0.0594889447
C  C1190  1  0.61594000  0.70288000  0.85380000  1.0 0.0594889447
C  C1191  1  0.85380000  0.82738000  0.61594000  1.0 0.0594889447
C  C1192  1  0.82738000  0.85380000  0.70288000  1.0 0.0594889447
C  C1193  1  0.85380000  0.70288000  0.82738000  1.0 0.0594889447
C  C1194  1  0.82738000  0.61594000  0.85380000  1.0 0.0594889447
C  C1195  1  0.70288000  0.85380000  0.61594000  1.0 0.0594889447
C  C1196  1  0.61594000  0.82738000  0.70288000  1.0 0.0594889447
C  C1197  1  0.61594000  0.85380000  0.82738000  1.0 0.0594889447
C  C1198  1  0.70288000  0.82738000  0.85380000  1.0 0.0594889447
C  C1199  1  0.82738000  0.70288000  0.61594000  1.0 0.0594889447
C  C1200  1  0.85380000  0.61594000  0.70288000  1.0 0.0594889447
C  C1201  1  0.26849000  0.10749000  0.32583000  1.0 0.3788730597
C  C1202  1  0.10749000  0.26849000  0.29819000  1.0 0.3788730597
C  C1203  1  0.32583000  0.29819000  0.26849000  1.0 0.3788730597
C  C1204  1  0.29819000  0.32583000  0.10749000  1.0 0.3788730597
C  C1205  1  0.32583000  0.26849000  0.10749000  1.0 0.3788730597
C  C1206  1  0.29819000  0.10749000  0.26849000  1.0 0.3788730597
C  C1207  1  0.26849000  0.32583000  0.29819000  1.0 0.3788730597
C  C1208  1  0.10749000  0.29819000  0.32583000  1.0 0.3788730597
C  C1209  1  0.10749000  0.32583000  0.26849000  1.0 0.3788730597
C  C1210  1  0.26849000  0.29819000  0.10749000  1.0 0.3788730597
C  C1211  1  0.29819000  0.26849000  0.32583000  1.0 0.3788730597
C  C1212  1  0.32583000  0.10749000  0.29819000  1.0 0.3788730597
C  C1213  1  0.98151000  0.14251000  0.95181000  1.0 0.3788730597
C  C1214  1  0.14251000  0.98151000  0.92417000  1.0 0.3788730597
C  C1215  1  0.92417000  0.95181000  0.14251000  1.0 0.3788730597
C  C1216  1  0.95181000  0.92417000  0.98151000  1.0 0.3788730597
C  C1217  1  0.92417000  0.98151000  0.95181000  1.0 0.3788730597
C  C1218  1  0.95181000  0.14251000  0.92417000  1.0 0.3788730597
C  C1219  1  0.98151000  0.92417000  0.14251000  1.0 0.3788730597
C  C1220  1  0.14251000  0.95181000  0.98151000  1.0 0.3788730597
C  C1221  1  0.14251000  0.92417000  0.95181000  1.0 0.3788730597
C  C1222  1  0.98151000  0.95181000  0.92417000  1.0 0.3788730597
C  C1223  1  0.95181000  0.98151000  0.14251000  1.0 0.3788730597
C  C1224  1  0.92417000  0.14251000  0.98151000  1.0 0.3788730597
C  C1225  1  0.48151000  0.64251000  0.42417000  1.0 0.3788730597
C  C1226  1  0.64251000  0.48151000  0.45181000  1.0 0.3788730597
C  C1227  1  0.42417000  0.45181000  0.48151000  1.0 0.3788730597
C  C1228  1  0.45181000  0.42417000  0.64251000  1.0 0.3788730597
C  C1229  1  0.42417000  0.48151000  0.64251000  1.0 0.3788730597
C  C1230  1  0.45181000  0.64251000  0.48151000  1.0 0.3788730597
C  C1231  1  0.48151000  0.42417000  0.45181000  1.0 0.3788730597
C  C1232  1  0.64251000  0.45181000  0.42417000  1.0 0.3788730597
C  C1233  1  0.64251000  0.42417000  0.48151000  1.0 0.3788730597
C  C1234  1  0.48151000  0.45181000  0.64251000  1.0 0.3788730597
C  C1235  1  0.45181000  0.48151000  0.42417000  1.0 0.3788730597
C  C1236  1  0.42417000  0.64251000  0.45181000  1.0 0.3788730597
C  C1237  1  0.76849000  0.60749000  0.79819000  1.0 0.3788730597
C  C1238  1  0.60749000  0.76849000  0.82583000  1.0 0.3788730597
C  C1239  1  0.82583000  0.79819000  0.60749000  1.0 0.3788730597
C  C1240  1  0.79819000  0.82583000  0.76849000  1.0 0.3788730597
C  C1241  1  0.82583000  0.76849000  0.79819000  1.0 0.3788730597
C  C1242  1  0.79819000  0.60749000  0.82583000  1.0 0.3788730597
C  C1243  1  0.76849000  0.82583000  0.60749000  1.0 0.3788730597
C  C1244  1  0.60749000  0.79819000  0.76849000  1.0 0.3788730597
C  C1245  1  0.60749000  0.82583000  0.79819000  1.0 0.3788730597
C  C1246  1  0.76849000  0.79819000  0.82583000  1.0 0.3788730597
C  C1247  1  0.79819000  0.76849000  0.60749000  1.0 0.3788730597
C  C1248  1  0.82583000  0.60749000  0.76849000  1.0 0.3788730597
S  S1  1  0.08006000  0.82600000  0.75360000  1.0 -0.3881064103
S  S2  1  0.82600000  0.08006000  0.34034000  1.0 -0.3881064103
S  S3  1  0.75360000  0.34034000  0.08006000  1.0 -0.3881064103
S  S4  1  0.34034000  0.75360000  0.82600000  1.0 -0.3881064103
S  S5  1  0.75360000  0.08006000  0.82600000  1.0 -0.3881064103
S  S6  1  0.34034000  0.82600000  0.08006000  1.0 -0.3881064103
S  S7  1  0.08006000  0.75360000  0.34034000  1.0 -0.3881064103
S  S8  1  0.82600000  0.34034000  0.75360000  1.0 -0.3881064103
S  S9  1  0.82600000  0.75360000  0.08006000  1.0 -0.3881064103
S  S10  1  0.08006000  0.34034000  0.82600000  1.0 -0.3881064103
S  S11  1  0.34034000  0.08006000  0.75360000  1.0 -0.3881064103
S  S12  1  0.75360000  0.82600000  0.34034000  1.0 -0.3881064103
S  S13  1  0.16994000  0.42400000  0.90966000  1.0 -0.3881064103
S  S14  1  0.42400000  0.16994000  0.49640000  1.0 -0.3881064103
S  S15  1  0.49640000  0.90966000  0.42400000  1.0 -0.3881064103
S  S16  1  0.90966000  0.49640000  0.16994000  1.0 -0.3881064103
S  S17  1  0.49640000  0.16994000  0.90966000  1.0 -0.3881064103
S  S18  1  0.90966000  0.42400000  0.49640000  1.0 -0.3881064103
S  S19  1  0.16994000  0.49640000  0.42400000  1.0 -0.3881064103
S  S20  1  0.42400000  0.90966000  0.16994000  1.0 -0.3881064103
S  S21  1  0.42400000  0.49640000  0.90966000  1.0 -0.3881064103
S  S22  1  0.16994000  0.90966000  0.49640000  1.0 -0.3881064103
S  S23  1  0.90966000  0.16994000  0.42400000  1.0 -0.3881064103
S  S24  1  0.49640000  0.42400000  0.16994000  1.0 -0.3881064103
S  S25  1  0.66994000  0.92400000  0.99640000  1.0 -0.3881064103
S  S26  1  0.92400000  0.66994000  0.40966000  1.0 -0.3881064103
S  S27  1  0.99640000  0.40966000  0.66994000  1.0 -0.3881064103
S  S28  1  0.40966000  0.99640000  0.92400000  1.0 -0.3881064103
S  S29  1  0.99640000  0.66994000  0.92400000  1.0 -0.3881064103
S  S30  1  0.40966000  0.92400000  0.66994000  1.0 -0.3881064103
S  S31  1  0.66994000  0.99640000  0.40966000  1.0 -0.3881064103
S  S32  1  0.92400000  0.40966000  0.99640000  1.0 -0.3881064103
S  S33  1  0.92400000  0.99640000  0.66994000  1.0 -0.3881064103
S  S34  1  0.66994000  0.40966000  0.92400000  1.0 -0.3881064103
S  S35  1  0.40966000  0.66994000  0.99640000  1.0 -0.3881064103
S  S36  1  0.99640000  0.92400000  0.40966000  1.0 -0.3881064103
S  S37  1  0.58006000  0.32600000  0.84034000  1.0 -0.3881064103
S  S38  1  0.32600000  0.58006000  0.25360000  1.0 -0.3881064103
S  S39  1  0.25360000  0.84034000  0.32600000  1.0 -0.3881064103
S  S40  1  0.84034000  0.25360000  0.58006000  1.0 -0.3881064103
S  S41  1  0.25360000  0.58006000  0.84034000  1.0 -0.3881064103
S  S42  1  0.84034000  0.32600000  0.25360000  1.0 -0.3881064103
S  S43  1  0.58006000  0.25360000  0.32600000  1.0 -0.3881064103
S  S44  1  0.32600000  0.84034000  0.58006000  1.0 -0.3881064103
S  S45  1  0.32600000  0.25360000  0.84034000  1.0 -0.3881064103
S  S46  1  0.58006000  0.84034000  0.25360000  1.0 -0.3881064103
S  S47  1  0.84034000  0.58006000  0.32600000  1.0 -0.3881064103
S  S48  1  0.25360000  0.32600000  0.58006000  1.0 -0.3881064103
S  S49  1  0.05823000  0.19831000  0.45223000  1.0 -0.4022557413
S  S50  1  0.19831000  0.05823000  0.29123000  1.0 -0.4022557413
S  S51  1  0.45223000  0.29123000  0.05823000  1.0 -0.4022557413
S  S52  1  0.29123000  0.45223000  0.19831000  1.0 -0.4022557413
S  S53  1  0.45223000  0.05823000  0.19831000  1.0 -0.4022557413
S  S54  1  0.29123000  0.19831000  0.05823000  1.0 -0.4022557413
S  S55  1  0.05823000  0.45223000  0.29123000  1.0 -0.4022557413
S  S56  1  0.19831000  0.29123000  0.45223000  1.0 -0.4022557413
S  S57  1  0.19831000  0.45223000  0.05823000  1.0 -0.4022557413
S  S58  1  0.05823000  0.29123000  0.19831000  1.0 -0.4022557413
S  S59  1  0.29123000  0.05823000  0.45223000  1.0 -0.4022557413
S  S60  1  0.45223000  0.19831000  0.29123000  1.0 -0.4022557413
S  S61  1  0.19177000  0.05169000  0.95877000  1.0 -0.4022557413
S  S62  1  0.05169000  0.19177000  0.79777000  1.0 -0.4022557413
S  S63  1  0.79777000  0.95877000  0.05169000  1.0 -0.4022557413
S  S64  1  0.95877000  0.79777000  0.19177000  1.0 -0.4090670727
S  S65  1  0.79777000  0.19177000  0.95877000  1.0 -0.4022557413
S  S66  1  0.95877000  0.05169000  0.79777000  1.0 -0.4022557413
S  S67  1  0.19177000  0.79777000  0.05169000  1.0 -0.4022557413
S  S68  1  0.05169000  0.95877000  0.19177000  1.0 -0.4090670727
S  S69  1  0.05169000  0.79777000  0.95877000  1.0 -0.4022557413
S  S70  1  0.19177000  0.95877000  0.79777000  1.0 -0.4022557413
S  S71  1  0.95877000  0.19177000  0.05169000  1.0 -0.4022557413
S  S72  1  0.79777000  0.05169000  0.19177000  1.0 -0.4022557413
S  S73  1  0.69177000  0.55169000  0.29777000  1.0 -0.4022557413
S  S74  1  0.55169000  0.69177000  0.45877000  1.0 -0.4022557413
S  S75  1  0.29777000  0.45877000  0.69177000  1.0 -0.4022557413
S  S76  1  0.45877000  0.29777000  0.55169000  1.0 -0.4022557413
S  S77  1  0.29777000  0.69177000  0.55169000  1.0 -0.4022557413
S  S78  1  0.45877000  0.55169000  0.69177000  1.0 -0.4022557413
S  S79  1  0.69177000  0.29777000  0.45877000  1.0 -0.4022557413
S  S80  1  0.55169000  0.45877000  0.29777000  1.0 -0.4022557413
S  S81  1  0.55169000  0.29777000  0.69177000  1.0 -0.4022557413
S  S82  1  0.69177000  0.45877000  0.55169000  1.0 -0.4022557413
S  S83  1  0.45877000  0.69177000  0.29777000  1.0 -0.4022557413
S  S84  1  0.29777000  0.55169000  0.45877000  1.0 -0.4022557413
S  S85  1  0.55823000  0.69831000  0.79123000  1.0 -0.4022557413
S  S86  1  0.69831000  0.55823000  0.95223000  1.0 -0.4022557413
S  S87  1  0.95223000  0.79123000  0.69831000  1.0 -0.4022557413
S  S88  1  0.79123000  0.95223000  0.55823000  1.0 -0.4022557413
S  S89  1  0.95223000  0.55823000  0.79123000  1.0 -0.4022557413
S  S90  1  0.79123000  0.69831000  0.95223000  1.0 -0.4022557413
S  S91  1  0.55823000  0.95223000  0.69831000  1.0 -0.4022557413
S  S92  1  0.69831000  0.79123000  0.55823000  1.0 -0.4022557413
S  S93  1  0.69831000  0.95223000  0.79123000  1.0 -0.4022557413
S  S94  1  0.55823000  0.79123000  0.95223000  1.0 -0.4022557413
S  S95  1  0.79123000  0.55823000  0.69831000  1.0 -0.4022557413
S  S96  1  0.95223000  0.69831000  0.55823000  1.0 -0.4022557413
N  N1  1  0.11943000  0.84485000  0.67969000  1.0 -0.4843773074
N  N2  1  0.84485000  0.11943000  0.35603000  1.0 -0.4843773074
N  N3  1  0.67969000  0.35603000  0.11943000  1.0 -0.4843773074
N  N4  1  0.35603000  0.67969000  0.84485000  1.0 -0.4843773074
N  N5  1  0.67969000  0.11943000  0.84485000  1.0 -0.4843773074
N  N6  1  0.35603000  0.84485000  0.11943000  1.0 -0.4843773074
N  N7  1  0.11943000  0.67969000  0.35603000  1.0 -0.4843773074
N  N8  1  0.84485000  0.35603000  0.67969000  1.0 -0.4843773074
N  N9  1  0.84485000  0.67969000  0.11943000  1.0 -0.4843773074
N  N10  1  0.11943000  0.35603000  0.84485000  1.0 -0.4843773074
N  N11  1  0.35603000  0.11943000  0.67969000  1.0 -0.4843773074
N  N12  1  0.67969000  0.84485000  0.35603000  1.0 -0.4843773074
N  N13  1  0.13057000  0.40515000  0.89397000  1.0 -0.4843773074
N  N14  1  0.40515000  0.13057000  0.57031000  1.0 -0.4843773074
N  N15  1  0.57031000  0.89397000  0.40515000  1.0 -0.4843773074
N  N16  1  0.89397000  0.57031000  0.13057000  1.0 -0.4843773074
N  N17  1  0.57031000  0.13057000  0.89397000  1.0 -0.4843773074
N  N18  1  0.89397000  0.40515000  0.57031000  1.0 -0.4843773074
N  N19  1  0.13057000  0.57031000  0.40515000  1.0 -0.4843773074
N  N20  1  0.40515000  0.89397000  0.13057000  1.0 -0.4843773074
N  N21  1  0.40515000  0.57031000  0.89397000  1.0 -0.4843773074
N  N22  1  0.13057000  0.89397000  0.57031000  1.0 -0.4843773074
N  N23  1  0.89397000  0.13057000  0.40515000  1.0 -0.4843773074
N  N24  1  0.57031000  0.40515000  0.13057000  1.0 -0.4843773074
N  N25  1  0.63057000  0.90515000  0.07031000  1.0 -0.4843773074
N  N26  1  0.90515000  0.63057000  0.39397000  1.0 -0.4843773074
N  N27  1  0.07031000  0.39397000  0.63057000  1.0 -0.4843773074
N  N28  1  0.39397000  0.07031000  0.90515000  1.0 -0.4843773074
N  N29  1  0.07031000  0.63057000  0.90515000  1.0 -0.4843773074
N  N30  1  0.39397000  0.90515000  0.63057000  1.0 -0.4843773074
N  N31  1  0.63057000  0.07031000  0.39397000  1.0 -0.4843773074
N  N32  1  0.90515000  0.39397000  0.07031000  1.0 -0.4843773074
N  N33  1  0.90515000  0.07031000  0.63057000  1.0 -0.4843773074
N  N34  1  0.63057000  0.39397000  0.90515000  1.0 -0.4843773074
N  N35  1  0.39397000  0.63057000  0.07031000  1.0 -0.4843773074
N  N36  1  0.07031000  0.90515000  0.39397000  1.0 -0.4843773074
N  N37  1  0.61943000  0.34485000  0.85603000  1.0 -0.4843773074
N  N38  1  0.34485000  0.61943000  0.17969000  1.0 -0.4843773074
N  N39  1  0.17969000  0.85603000  0.34485000  1.0 -0.4843773074
N  N40  1  0.85603000  0.17969000  0.61943000  1.0 -0.4843773074
N  N41  1  0.17969000  0.61943000  0.85603000  1.0 -0.4843773074
N  N42  1  0.85603000  0.34485000  0.17969000  1.0 -0.4843773074
N  N43  1  0.61943000  0.17969000  0.34485000  1.0 -0.4843773074
N  N44  1  0.34485000  0.85603000  0.61943000  1.0 -0.4843773074
N  N45  1  0.34485000  0.17969000  0.85603000  1.0 -0.4843773074
N  N46  1  0.61943000  0.85603000  0.17969000  1.0 -0.4843773074
N  N47  1  0.85603000  0.61943000  0.34485000  1.0 -0.4843773074
N  N48  1  0.17969000  0.34485000  0.61943000  1.0 -0.4843773074
N  N49  1  0.93216000  0.13614000  0.58460000  1.0 -0.208793369
N  N50  1  0.13614000  0.93216000  0.34710000  1.0 -0.208793369
N  N51  1  0.58460000  0.34710000  0.93216000  1.0 -0.208793369
N  N52  1  0.34710000  0.58460000  0.13614000  1.0 -0.208793369
N  N53  1  0.58460000  0.93216000  0.13614000  1.0 -0.208793369
N  N54  1  0.34710000  0.13614000  0.93216000  1.0 -0.208793369
N  N55  1  0.93216000  0.58460000  0.34710000  1.0 -0.208793369
N  N56  1  0.13614000  0.34710000  0.58460000  1.0 -0.208793369
N  N57  1  0.13614000  0.58460000  0.93216000  1.0 -0.208793369
N  N58  1  0.93216000  0.34710000  0.13614000  1.0 -0.208793369
N  N59  1  0.34710000  0.93216000  0.58460000  1.0 -0.208793369
N  N60  1  0.58460000  0.13614000  0.34710000  1.0 -0.208793369
N  N61  1  0.31784000  0.11386000  0.90290000  1.0 -0.208793369
N  N62  1  0.11386000  0.31784000  0.66540000  1.0 -0.208793369
N  N63  1  0.66540000  0.90290000  0.11386000  1.0 -0.208793369
N  N64  1  0.90290000  0.66540000  0.31784000  1.0 -0.208793369
N  N65  1  0.66540000  0.31784000  0.90290000  1.0 -0.208793369
N  N66  1  0.90290000  0.11386000  0.66540000  1.0 -0.208793369
N  N67  1  0.31784000  0.66540000  0.11386000  1.0 -0.208793369
N  N68  1  0.11386000  0.90290000  0.31784000  1.0 -0.208793369
N  N69  1  0.11386000  0.66540000  0.90290000  1.0 -0.208793369
N  N70  1  0.31784000  0.90290000  0.66540000  1.0 -0.208793369
N  N71  1  0.90290000  0.31784000  0.11386000  1.0 -0.208793369
N  N72  1  0.66540000  0.11386000  0.31784000  1.0 -0.208793369
N  N73  1  0.81784000  0.61386000  0.16540000  1.0 -0.208793369
N  N74  1  0.61386000  0.81784000  0.40290000  1.0 -0.208793369
N  N75  1  0.16540000  0.40290000  0.81784000  1.0 -0.208793369
N  N76  1  0.40290000  0.16540000  0.61386000  1.0 -0.208793369
N  N77  1  0.16540000  0.81784000  0.61386000  1.0 -0.208793369
N  N78  1  0.40290000  0.61386000  0.81784000  1.0 -0.208793369
N  N79  1  0.81784000  0.16540000  0.40290000  1.0 -0.208793369
N  N80  1  0.61386000  0.40290000  0.16540000  1.0 -0.208793369
N  N81  1  0.61386000  0.16540000  0.81784000  1.0 -0.208793369
N  N82  1  0.81784000  0.40290000  0.61386000  1.0 -0.208793369
N  N83  1  0.40290000  0.81784000  0.16540000  1.0 -0.208793369
N  N84  1  0.16540000  0.61386000  0.40290000  1.0 -0.208793369
N  N85  1  0.43216000  0.63614000  0.84710000  1.0 -0.208793369
N  N86  1  0.63614000  0.43216000  0.08460000  1.0 -0.208793369
N  N87  1  0.08460000  0.84710000  0.63614000  1.0 -0.208793369
N  N88  1  0.84710000  0.08460000  0.43216000  1.0 -0.208793369
N  N89  1  0.08460000  0.43216000  0.84710000  1.0 -0.208793369
N  N90  1  0.84710000  0.63614000  0.08460000  1.0 -0.208793369
N  N91  1  0.43216000  0.08460000  0.63614000  1.0 -0.208793369
N  N92  1  0.63614000  0.84710000  0.43216000  1.0 -0.208793369
N  N93  1  0.63614000  0.08460000  0.84710000  1.0 -0.208793369
N  N94  1  0.43216000  0.84710000  0.08460000  1.0 -0.208793369
N  N95  1  0.84710000  0.43216000  0.63614000  1.0 -0.208793369
N  N96  1  0.08460000  0.63614000  0.43216000  1.0 -0.208793369
N  N97  1  0.08200000  0.91790000  0.63706000  1.0 -0.208793369
N  N98  1  0.91790000  0.08200000  0.36304000  1.0 -0.208793369
N  N99  1  0.63706000  0.36304000  0.08200000  1.0 -0.208793369
N  N100  1  0.36304000  0.63706000  0.91790000  1.0 -0.208793369
N  N101  1  0.63706000  0.08200000  0.91790000  1.0 -0.208793369
N  N102  1  0.36304000  0.91790000  0.08200000  1.0 -0.208793369
N  N103  1  0.08200000  0.63706000  0.36304000  1.0 -0.208793369
N  N104  1  0.91790000  0.36304000  0.63706000  1.0 -0.208793369
N  N105  1  0.91790000  0.63706000  0.08200000  1.0 -0.208793369
N  N106  1  0.08200000  0.36304000  0.91790000  1.0 -0.208793369
N  N107  1  0.36304000  0.08200000  0.63706000  1.0 -0.208793369
N  N108  1  0.63706000  0.91790000  0.36304000  1.0 -0.208793369
N  N109  1  0.16800000  0.33210000  0.88696000  1.0 -0.208793369
N  N110  1  0.33210000  0.16800000  0.61294000  1.0 -0.208793369
N  N111  1  0.61294000  0.88696000  0.33210000  1.0 -0.208793369
N  N112  1  0.88696000  0.61294000  0.16800000  1.0 -0.208793369
N  N113  1  0.61294000  0.16800000  0.88696000  1.0 -0.208793369
N  N114  1  0.88696000  0.33210000  0.61294000  1.0 -0.208793369
N  N115  1  0.16800000  0.61294000  0.33210000  1.0 -0.208793369
N  N116  1  0.33210000  0.88696000  0.16800000  1.0 -0.208793369
N  N117  1  0.33210000  0.61294000  0.88696000  1.0 -0.208793369
N  N118  1  0.16800000  0.88696000  0.61294000  1.0 -0.208793369
N  N119  1  0.88696000  0.16800000  0.33210000  1.0 -0.208793369
N  N120  1  0.61294000  0.33210000  0.16800000  1.0 -0.208793369
N  N121  1  0.66800000  0.83210000  0.11294000  1.0 -0.208793369
N  N122  1  0.83210000  0.66800000  0.38696000  1.0 -0.208793369
N  N123  1  0.11294000  0.38696000  0.66800000  1.0 -0.208793369
N  N124  1  0.38696000  0.11294000  0.83210000  1.0 -0.208793369
N  N125  1  0.11294000  0.66800000  0.83210000  1.0 -0.208793369
N  N126  1  0.38696000  0.83210000  0.66800000  1.0 -0.208793369
N  N127  1  0.66800000  0.11294000  0.38696000  1.0 -0.208793369
N  N128  1  0.83210000  0.38696000  0.11294000  1.0 -0.2045456061
N  N129  1  0.83210000  0.11294000  0.66800000  1.0 -0.208793369
N  N130  1  0.66800000  0.38696000  0.83210000  1.0 -0.208793369
N  N131  1  0.38696000  0.66800000  0.11294000  1.0 -0.208793369
N  N132  1  0.11294000  0.83210000  0.38696000  1.0 -0.208793369
N  N133  1  0.58200000  0.41790000  0.86304000  1.0 -0.208793369
N  N134  1  0.41790000  0.58200000  0.13706000  1.0 -0.208793369
N  N135  1  0.13706000  0.86304000  0.41790000  1.0 -0.208793369
N  N136  1  0.86304000  0.13706000  0.58200000  1.0 -0.208793369
N  N137  1  0.13706000  0.58200000  0.86304000  1.0 -0.208793369
N  N138  1  0.86304000  0.41790000  0.13706000  1.0 -0.208793369
N  N139  1  0.58200000  0.13706000  0.41790000  1.0 -0.208793369
N  N140  1  0.41790000  0.86304000  0.58200000  1.0 -0.208793369
N  N141  1  0.41790000  0.13706000  0.86304000  1.0 -0.208793369
N  N142  1  0.58200000  0.86304000  0.13706000  1.0 -0.208793369
N  N143  1  0.86304000  0.58200000  0.41790000  1.0 -0.208793369
N  N144  1  0.13706000  0.41790000  0.58200000  1.0 -0.208793369
N  N145  1  0.02522000  0.04572000  0.58504000  1.0 -0.4090670727
N  N146  1  0.04572000  0.02522000  0.34402000  1.0 -0.4090670727
N  N147  1  0.58504000  0.34402000  0.02522000  1.0 -0.4090670727
N  N148  1  0.34402000  0.58504000  0.04572000  1.0 -0.4090670727
N  N149  1  0.58504000  0.02522000  0.04572000  1.0 -0.4090670727
N  N150  1  0.34402000  0.04572000  0.02522000  1.0 -0.4090670727
N  N151  1  0.02522000  0.58504000  0.34402000  1.0 -0.4090670727
N  N152  1  0.04572000  0.34402000  0.58504000  1.0 -0.4090670727
N  N153  1  0.04572000  0.58504000  0.02522000  1.0 -0.4090670727
N  N154  1  0.02522000  0.34402000  0.04572000  1.0 -0.4090670727
N  N155  1  0.34402000  0.02522000  0.58504000  1.0 -0.4090670727
N  N156  1  0.58504000  0.04572000  0.34402000  1.0 -0.4090670727
N  N157  1  0.22478000  0.20428000  0.90598000  1.0 -0.4090670727
N  N158  1  0.20428000  0.22478000  0.66496000  1.0 -0.4090670727
N  N159  1  0.66496000  0.90598000  0.20428000  1.0 -0.4090670727
N  N160  1  0.90598000  0.66496000  0.22478000  1.0 -0.4090670727
N  N161  1  0.66496000  0.22478000  0.90598000  1.0 -0.4090670727
N  N162  1  0.90598000  0.20428000  0.66496000  1.0 -0.4090670727
N  N163  1  0.22478000  0.66496000  0.20428000  1.0 -0.4090670727
N  N164  1  0.20428000  0.90598000  0.22478000  1.0 -0.4090670727
N  N165  1  0.20428000  0.66496000  0.90598000  1.0 -0.4090670727
N  N166  1  0.22478000  0.90598000  0.66496000  1.0 -0.4090670727
N  N167  1  0.90598000  0.22478000  0.20428000  1.0 -0.4090670727
N  N168  1  0.66496000  0.20428000  0.22478000  1.0 -0.4090670727
N  N169  1  0.72478000  0.70428000  0.16496000  1.0 -0.4090670727
N  N170  1  0.70428000  0.72478000  0.40598000  1.0 -0.4090670727
N  N171  1  0.16496000  0.40598000  0.72478000  1.0 -0.4090670727
N  N172  1  0.40598000  0.16496000  0.70428000  1.0 -0.4090670727
N  N173  1  0.16496000  0.72478000  0.70428000  1.0 -0.4090670727
N  N174  1  0.40598000  0.70428000  0.72478000  1.0 -0.4090670727
N  N175  1  0.72478000  0.16496000  0.40598000  1.0 -0.4090670727
N  N176  1  0.70428000  0.40598000  0.16496000  1.0 -0.4090670727
N  N177  1  0.70428000  0.16496000  0.72478000  1.0 -0.4090670727
N  N178  1  0.72478000  0.40598000  0.70428000  1.0 -0.4090670727
N  N179  1  0.40598000  0.72478000  0.16496000  1.0 -0.4090670727
N  N180  1  0.16496000  0.70428000  0.40598000  1.0 -0.4090670727
N  N181  1  0.52522000  0.54572000  0.84402000  1.0 -0.4090670727
N  N182  1  0.54572000  0.52522000  0.08504000  1.0 -0.4090670727
N  N183  1  0.08504000  0.84402000  0.54572000  1.0 -0.4090670727
N  N184  1  0.84402000  0.08504000  0.52522000  1.0 -0.4090670727
N  N185  1  0.08504000  0.52522000  0.84402000  1.0 -0.4090670727
N  N186  1  0.84402000  0.54572000  0.08504000  1.0 -0.4090670727
N  N187  1  0.52522000  0.08504000  0.54572000  1.0 -0.4090670727
N  N188  1  0.54572000  0.84402000  0.52522000  1.0 -0.4090670727
N  N189  1  0.54572000  0.08504000  0.84402000  1.0 -0.4090670727
N  N190  1  0.52522000  0.84402000  0.08504000  1.0 -0.4090670727
N  N191  1  0.84402000  0.52522000  0.54572000  1.0 -0.4090670727
N  N192  1  0.08504000  0.54572000  0.52522000  1.0 -0.4090670727
N  N193  1  0.05230000  0.07538000  0.52274000  1.0 -0.4090670727
N  N194  1  0.07538000  0.05230000  0.34958000  1.0 -0.4090670727
N  N195  1  0.52274000  0.34958000  0.05230000  1.0 -0.4090670727
N  N196  1  0.34958000  0.52274000  0.07538000  1.0 -0.4090670727
N  N197  1  0.52274000  0.05230000  0.07538000  1.0 -0.4090670727
N  N198  1  0.34958000  0.07538000  0.05230000  1.0 -0.4090670727
N  N199  1  0.05230000  0.52274000  0.34958000  1.0 -0.4090670727
N  N200  1  0.07538000  0.34958000  0.52274000  1.0 -0.4090670727
N  N201  1  0.07538000  0.52274000  0.05230000  1.0 -0.4090670727
N  N202  1  0.05230000  0.34958000  0.07538000  1.0 -0.4090670727
N  N203  1  0.34958000  0.05230000  0.52274000  1.0 -0.4090670727
N  N204  1  0.52274000  0.07538000  0.34958000  1.0 -0.4090670727
N  N205  1  0.19770000  0.17462000  0.90042000  1.0 -0.4090670727
N  N206  1  0.17462000  0.19770000  0.72726000  1.0 -0.4090670727
N  N207  1  0.72726000  0.90042000  0.17462000  1.0 -0.4090670727
N  N208  1  0.90042000  0.72726000  0.19770000  1.0 -0.4090670727
N  N209  1  0.72726000  0.19770000  0.90042000  1.0 -0.4090670727
N  N210  1  0.90042000  0.17462000  0.72726000  1.0 -0.4090670727
N  N211  1  0.19770000  0.72726000  0.17462000  1.0 -0.4090670727
N  N212  1  0.17462000  0.90042000  0.19770000  1.0 -0.4090670727
N  N213  1  0.17462000  0.72726000  0.90042000  1.0 -0.4090670727
N  N214  1  0.19770000  0.90042000  0.72726000  1.0 -0.4090670727
N  N215  1  0.90042000  0.19770000  0.17462000  1.0 -0.4090670727
N  N216  1  0.72726000  0.17462000  0.19770000  1.0 -0.4090670727
N  N217  1  0.69770000  0.67462000  0.22726000  1.0 -0.4090670727
N  N218  1  0.67462000  0.69770000  0.40042000  1.0 -0.4090670727
N  N219  1  0.22726000  0.40042000  0.69770000  1.0 -0.4090670727
N  N220  1  0.40042000  0.22726000  0.67462000  1.0 -0.4090670727
N  N221  1  0.22726000  0.69770000  0.67462000  1.0 -0.4090670727
N  N222  1  0.40042000  0.67462000  0.69770000  1.0 -0.4090670727
N  N223  1  0.69770000  0.22726000  0.40042000  1.0 -0.4090670727
N  N224  1  0.67462000  0.40042000  0.22726000  1.0 -0.4090670727
N  N225  1  0.67462000  0.22726000  0.69770000  1.0 -0.4090670727
N  N226  1  0.69770000  0.40042000  0.67462000  1.0 -0.4090670727
N  N227  1  0.40042000  0.69770000  0.22726000  1.0 -0.4090670727
N  N228  1  0.22726000  0.67462000  0.40042000  1.0 -0.4090670727
N  N229  1  0.55230000  0.57538000  0.84958000  1.0 -0.4090670727
N  N230  1  0.57538000  0.55230000  0.02274000  1.0 -0.4090670727
N  N231  1  0.02274000  0.84958000  0.57538000  1.0 -0.4090670727
N  N232  1  0.84958000  0.02274000  0.55230000  1.0 -0.4090670727
N  N233  1  0.02274000  0.55230000  0.84958000  1.0 -0.4090670727
N  N234  1  0.84958000  0.57538000  0.02274000  1.0 -0.4090670727
N  N235  1  0.55230000  0.02274000  0.57538000  1.0 -0.4090670727
N  N236  1  0.57538000  0.84958000  0.55230000  1.0 -0.4090670727
N  N237  1  0.57538000  0.02274000  0.84958000  1.0 -0.4090670727
N  N238  1  0.55230000  0.84958000  0.02274000  1.0 -0.4090670727
N  N239  1  0.84958000  0.55230000  0.57538000  1.0 -0.4090670727
N  N240  1  0.02274000  0.57538000  0.55230000  1.0 -0.4090670727
N  N241  1  0.07962000  0.01224000  0.54998000  1.0 -0.4090670727
N  N242  1  0.01224000  0.07962000  0.35816000  1.0 -0.4090670727
N  N243  1  0.54998000  0.35816000  0.07962000  1.0 -0.4090670727
N  N244  1  0.35816000  0.54998000  0.01224000  1.0 -0.4090670727
N  N245  1  0.54998000  0.07962000  0.01224000  1.0 -0.4090670727
N  N246  1  0.35816000  0.01224000  0.07962000  1.0 -0.4090670727
N  N247  1  0.07962000  0.54998000  0.35816000  1.0 -0.4090670727
N  N248  1  0.01224000  0.35816000  0.54998000  1.0 -0.4090670727
N  N249  1  0.01224000  0.54998000  0.07962000  1.0 -0.4090670727
N  N250  1  0.07962000  0.35816000  0.01224000  1.0 -0.4090670727
N  N251  1  0.35816000  0.07962000  0.54998000  1.0 -0.4090670727
N  N252  1  0.54998000  0.01224000  0.35816000  1.0 -0.4090670727
N  N253  1  0.17038000  0.23776000  0.89184000  1.0 -0.4090670727
N  N254  1  0.23776000  0.17038000  0.70002000  1.0 -0.4090670727
N  N255  1  0.70002000  0.89184000  0.23776000  1.0 -0.4090670727
N  N256  1  0.89184000  0.70002000  0.17038000  1.0 -0.4090670727
N  N257  1  0.70002000  0.17038000  0.89184000  1.0 -0.4090670727
N  N258  1  0.89184000  0.23776000  0.70002000  1.0 -0.4090670727
N  N259  1  0.17038000  0.70002000  0.23776000  1.0 -0.4090670727
N  N260  1  0.23776000  0.89184000  0.17038000  1.0 -0.4090670727
N  N261  1  0.23776000  0.70002000  0.89184000  1.0 -0.4090670727
N  N262  1  0.17038000  0.89184000  0.70002000  1.0 -0.4090670727
N  N263  1  0.89184000  0.17038000  0.23776000  1.0 -0.4090670727
N  N264  1  0.70002000  0.23776000  0.17038000  1.0 -0.4090670727
N  N265  1  0.67038000  0.73776000  0.20002000  1.0 -0.4090670727
N  N266  1  0.73776000  0.67038000  0.39184000  1.0 -0.4090670727
N  N267  1  0.20002000  0.39184000  0.67038000  1.0 -0.4090670727
N  N268  1  0.39184000  0.20002000  0.73776000  1.0 -0.4090670727
N  N269  1  0.20002000  0.67038000  0.73776000  1.0 -0.4090670727
N  N270  1  0.39184000  0.73776000  0.67038000  1.0 -0.4090670727
N  N271  1  0.67038000  0.20002000  0.39184000  1.0 -0.4090670727
N  N272  1  0.73776000  0.39184000  0.20002000  1.0 -0.4090670727
N  N273  1  0.73776000  0.20002000  0.67038000  1.0 -0.4090670727
N  N274  1  0.67038000  0.39184000  0.73776000  1.0 -0.4090670727
N  N275  1  0.39184000  0.67038000  0.20002000  1.0 -0.4090670727
N  N276  1  0.20002000  0.73776000  0.39184000  1.0 -0.4090670727
N  N277  1  0.57962000  0.51224000  0.85816000  1.0 -0.4090670727
N  N278  1  0.51224000  0.57962000  0.04998000  1.0 -0.4090670727
N  N279  1  0.04998000  0.85816000  0.51224000  1.0 -0.4090670727
N  N280  1  0.85816000  0.04998000  0.57962000  1.0 -0.4090670727
N  N281  1  0.04998000  0.57962000  0.85816000  1.0 -0.4090670727
N  N282  1  0.85816000  0.51224000  0.04998000  1.0 -0.4090670727
N  N283  1  0.57962000  0.04998000  0.51224000  1.0 -0.4090670727
N  N284  1  0.51224000  0.85816000  0.57962000  1.0 -0.4090670727
N  N285  1  0.51224000  0.04998000  0.85816000  1.0 -0.4090670727
N  N286  1  0.57962000  0.85816000  0.04998000  1.0 -0.4090670727
N  N287  1  0.85816000  0.57962000  0.51224000  1.0 -0.4090670727
N  N288  1  0.04998000  0.51224000  0.57962000  1.0 -0.4090670727
N  N289  1  0.12652000  0.07224000  0.42232000  1.0 -0.208793369
N  N290  1  0.07224000  0.12652000  0.37892000  1.0 -0.208793369
N  N291  1  0.42232000  0.37892000  0.12652000  1.0 -0.208793369
N  N292  1  0.37892000  0.42232000  0.07224000  1.0 -0.208793369
N  N293  1  0.42232000  0.12652000  0.07224000  1.0 -0.208793369
N  N294  1  0.37892000  0.07224000  0.12652000  1.0 -0.208793369
N  N295  1  0.12652000  0.42232000  0.37892000  1.0 -0.208793369
N  N296  1  0.07224000  0.37892000  0.42232000  1.0 -0.208793369
N  N297  1  0.07224000  0.42232000  0.12652000  1.0 -0.208793369
N  N298  1  0.12652000  0.37892000  0.07224000  1.0 -0.208793369
N  N299  1  0.37892000  0.12652000  0.42232000  1.0 -0.208793369
N  N300  1  0.42232000  0.07224000  0.37892000  1.0 -0.208793369
N  N301  1  0.12348000  0.17776000  0.87108000  1.0 -0.208793369
N  N302  1  0.17776000  0.12348000  0.82768000  1.0 -0.208793369
N  N303  1  0.82768000  0.87108000  0.17776000  1.0 -0.208793369
N  N304  1  0.87108000  0.82768000  0.12348000  1.0 -0.208793369
N  N305  1  0.82768000  0.12348000  0.87108000  1.0 -0.208793369
N  N306  1  0.87108000  0.17776000  0.82768000  1.0 -0.208793369
N  N307  1  0.12348000  0.82768000  0.17776000  1.0 -0.208793369
N  N308  1  0.17776000  0.87108000  0.12348000  1.0 -0.208793369
N  N309  1  0.17776000  0.82768000  0.87108000  1.0 -0.208793369
N  N310  1  0.12348000  0.87108000  0.82768000  1.0 -0.208793369
N  N311  1  0.87108000  0.12348000  0.17776000  1.0 -0.208793369
N  N312  1  0.82768000  0.17776000  0.12348000  1.0 -0.208793369
N  N313  1  0.62348000  0.67776000  0.32768000  1.0 -0.208793369
N  N314  1  0.67776000  0.62348000  0.37108000  1.0 -0.208793369
N  N315  1  0.32768000  0.37108000  0.62348000  1.0 -0.208793369
N  N316  1  0.37108000  0.32768000  0.67776000  1.0 -0.208793369
N  N317  1  0.32768000  0.62348000  0.67776000  1.0 -0.208793369
N  N318  1  0.37108000  0.67776000  0.62348000  1.0 -0.208793369
N  N319  1  0.62348000  0.32768000  0.37108000  1.0 -0.208793369
N  N320  1  0.67776000  0.37108000  0.32768000  1.0 -0.208793369
N  N321  1  0.67776000  0.32768000  0.62348000  1.0 -0.208793369
N  N322  1  0.62348000  0.37108000  0.67776000  1.0 -0.208793369
N  N323  1  0.37108000  0.62348000  0.32768000  1.0 -0.208793369
N  N324  1  0.32768000  0.67776000  0.37108000  1.0 -0.208793369
N  N325  1  0.62652000  0.57224000  0.87892000  1.0 -0.208793369
N  N326  1  0.57224000  0.62652000  0.92232000  1.0 -0.208793369
N  N327  1  0.92232000  0.87892000  0.57224000  1.0 -0.208793369
N  N328  1  0.87892000  0.92232000  0.62652000  1.0 -0.208793369
N  N329  1  0.92232000  0.62652000  0.87892000  1.0 -0.208793369
N  N330  1  0.87892000  0.57224000  0.92232000  1.0 -0.208793369
N  N331  1  0.62652000  0.92232000  0.57224000  1.0 -0.208793369
N  N332  1  0.57224000  0.87892000  0.62652000  1.0 -0.208793369
N  N333  1  0.57224000  0.92232000  0.87892000  1.0 -0.208793369
N  N334  1  0.62652000  0.87892000  0.92232000  1.0 -0.208793369
N  N335  1  0.87892000  0.62652000  0.57224000  1.0 -0.208793369
N  N336  1  0.92232000  0.57224000  0.62652000  1.0 -0.208793369
N  N337  1  0.09314000  0.15438000  0.41050000  1.0 -0.4731031198
N  N338  1  0.15438000  0.09314000  0.34198000  1.0 -0.4731031198
N  N339  1  0.41050000  0.34198000  0.09314000  1.0 -0.4731031198
N  N340  1  0.34198000  0.41050000  0.15438000  1.0 -0.4731031198
N  N341  1  0.41050000  0.09314000  0.15438000  1.0 -0.4731031198
N  N342  1  0.34198000  0.15438000  0.09314000  1.0 -0.4731031198
N  N343  1  0.09314000  0.41050000  0.34198000  1.0 -0.4731031198
N  N344  1  0.15438000  0.34198000  0.41050000  1.0 -0.4731031198
N  N345  1  0.15438000  0.41050000  0.09314000  1.0 -0.4731031198
N  N346  1  0.09314000  0.34198000  0.15438000  1.0 -0.4731031198
N  N347  1  0.34198000  0.09314000  0.41050000  1.0 -0.4731031198
N  N348  1  0.41050000  0.15438000  0.34198000  1.0 -0.4731031198
N  N349  1  0.15686000  0.09562000  0.90802000  1.0 -0.4731031198
N  N350  1  0.09562000  0.15686000  0.83950000  1.0 -0.4731031198
N  N351  1  0.83950000  0.90802000  0.09562000  1.0 -0.4731031198
N  N352  1  0.90802000  0.83950000  0.15686000  1.0 -0.4731031198
N  N353  1  0.83950000  0.15686000  0.90802000  1.0 -0.4731031198
N  N354  1  0.90802000  0.09562000  0.83950000  1.0 -0.4731031198
N  N355  1  0.15686000  0.83950000  0.09562000  1.0 -0.4731031198
N  N356  1  0.09562000  0.90802000  0.15686000  1.0 -0.4731031198
N  N357  1  0.09562000  0.83950000  0.90802000  1.0 -0.4731031198
N  N358  1  0.15686000  0.90802000  0.83950000  1.0 -0.4731031198
N  N359  1  0.90802000  0.15686000  0.09562000  1.0 -0.4731031198
N  N360  1  0.83950000  0.09562000  0.15686000  1.0 -0.4731031198
N  N361  1  0.65686000  0.59562000  0.33950000  1.0 -0.4731031198
N  N362  1  0.59562000  0.65686000  0.40802000  1.0 -0.4731031198
N  N363  1  0.33950000  0.40802000  0.65686000  1.0 -0.4731031198
N  N364  1  0.40802000  0.33950000  0.59562000  1.0 -0.4731031198
N  N365  1  0.33950000  0.65686000  0.59562000  1.0 -0.4731031198
N  N366  1  0.40802000  0.59562000  0.65686000  1.0 -0.4731031198
N  N367  1  0.65686000  0.33950000  0.40802000  1.0 -0.4731031198
N  N368  1  0.59562000  0.40802000  0.33950000  1.0 -0.4731031198
N  N369  1  0.59562000  0.33950000  0.65686000  1.0 -0.4731031198
N  N370  1  0.65686000  0.40802000  0.59562000  1.0 -0.4731031198
N  N371  1  0.40802000  0.65686000  0.33950000  1.0 -0.4731031198
N  N372  1  0.33950000  0.59562000  0.40802000  1.0 -0.4731031198
N  N373  1  0.59314000  0.65438000  0.84198000  1.0 -0.4731031198
N  N374  1  0.65438000  0.59314000  0.91050000  1.0 -0.4731031198
N  N375  1  0.91050000  0.84198000  0.65438000  1.0 -0.4731031198
N  N376  1  0.84198000  0.91050000  0.59314000  1.0 -0.4731031198
N  N377  1  0.91050000  0.59314000  0.84198000  1.0 -0.4731031198
N  N378  1  0.84198000  0.65438000  0.91050000  1.0 -0.4731031198
N  N379  1  0.59314000  0.91050000  0.65438000  1.0 -0.4731031198
N  N380  1  0.65438000  0.84198000  0.59314000  1.0 -0.4731031198
N  N381  1  0.65438000  0.91050000  0.84198000  1.0 -0.4731031198
N  N382  1  0.59314000  0.84198000  0.91050000  1.0 -0.4731031198
N  N383  1  0.84198000  0.59314000  0.65438000  1.0 -0.4731031198
N  N384  1  0.91050000  0.65438000  0.59314000  1.0 -0.4731031198
N  N385  1  0.17095000  0.11855000  0.38123000  1.0 -0.2165960032
N  N386  1  0.11855000  0.17095000  0.32927000  1.0 -0.2165960032
N  N387  1  0.38123000  0.32927000  0.17095000  1.0 -0.2165960032
N  N388  1  0.32927000  0.38123000  0.11855000  1.0 -0.2165960032
N  N389  1  0.38123000  0.17095000  0.11855000  1.0 -0.2165960032
N  N390  1  0.32927000  0.11855000  0.17095000  1.0 -0.2165960032
N  N391  1  0.17095000  0.38123000  0.32927000  1.0 -0.2165960032
N  N392  1  0.11855000  0.32927000  0.38123000  1.0 -0.2165960032
N  N393  1  0.11855000  0.38123000  0.17095000  1.0 -0.2165960032
N  N394  1  0.17095000  0.32927000  0.11855000  1.0 -0.2165960032
N  N395  1  0.32927000  0.17095000  0.38123000  1.0 -0.2165960032
N  N396  1  0.38123000  0.11855000  0.32927000  1.0 -0.2165960032
N  N397  1  0.07905000  0.13145000  0.92073000  1.0 -0.2165960032
N  N398  1  0.13145000  0.07905000  0.86877000  1.0 -0.2165960032
N  N399  1  0.86877000  0.92073000  0.13145000  1.0 -0.2165960032
N  N400  1  0.92073000  0.86877000  0.07905000  1.0 -0.2165960032
N  N401  1  0.86877000  0.07905000  0.92073000  1.0 -0.2165960032
N  N402  1  0.92073000  0.13145000  0.86877000  1.0 -0.2165960032
N  N403  1  0.07905000  0.86877000  0.13145000  1.0 -0.2165960032
N  N404  1  0.13145000  0.92073000  0.07905000  1.0 -0.2165960032
N  N405  1  0.13145000  0.86877000  0.92073000  1.0 -0.2165960032
N  N406  1  0.07905000  0.92073000  0.86877000  1.0 -0.2165960032
N  N407  1  0.92073000  0.07905000  0.13145000  1.0 -0.2165960032
N  N408  1  0.86877000  0.13145000  0.07905000  1.0 -0.2165960032
N  N409  1  0.57905000  0.63145000  0.36877000  1.0 -0.2165960032
N  N410  1  0.63145000  0.57905000  0.42073000  1.0 -0.2165960032
N  N411  1  0.36877000  0.42073000  0.57905000  1.0 -0.2165960032
N  N412  1  0.42073000  0.36877000  0.63145000  1.0 -0.2165960032
N  N413  1  0.36877000  0.57905000  0.63145000  1.0 -0.2165960032
N  N414  1  0.42073000  0.63145000  0.57905000  1.0 -0.2165960032
N  N415  1  0.57905000  0.36877000  0.42073000  1.0 -0.2165960032
N  N416  1  0.63145000  0.42073000  0.36877000  1.0 -0.2165960032
N  N417  1  0.63145000  0.36877000  0.57905000  1.0 -0.2165960032
N  N418  1  0.57905000  0.42073000  0.63145000  1.0 -0.2165960032
N  N419  1  0.42073000  0.57905000  0.36877000  1.0 -0.2165960032
N  N420  1  0.36877000  0.63145000  0.42073000  1.0 -0.2165960032
N  N421  1  0.67095000  0.61855000  0.82927000  1.0 -0.2165960032
N  N422  1  0.61855000  0.67095000  0.88123000  1.0 -0.2165960032
N  N423  1  0.88123000  0.82927000  0.61855000  1.0 -0.2165960032
N  N424  1  0.82927000  0.88123000  0.67095000  1.0 -0.2165960032
N  N425  1  0.88123000  0.67095000  0.82927000  1.0 -0.2165960032
N  N426  1  0.82927000  0.61855000  0.88123000  1.0 -0.2165960032
N  N427  1  0.67095000  0.88123000  0.61855000  1.0 -0.2165960032
N  N428  1  0.61855000  0.82927000  0.67095000  1.0 -0.2165960032
N  N429  1  0.61855000  0.88123000  0.82927000  1.0 -0.2165960032
N  N430  1  0.67095000  0.82927000  0.88123000  1.0 -0.2165960032
N  N431  1  0.82927000  0.67095000  0.61855000  1.0 -0.2165960032
N  N432  1  0.88123000  0.61855000  0.67095000  1.0 -0.2165960032
N  N433  1  0.29629000  0.10733000  0.32857000  1.0 -0.4022557413
N  N434  1  0.10733000  0.29629000  0.26781000  1.0 -0.4022557413
N  N435  1  0.32857000  0.26781000  0.29629000  1.0 -0.4022557413
N  N436  1  0.26781000  0.32857000  0.10733000  1.0 -0.4022557413
N  N437  1  0.32857000  0.29629000  0.10733000  1.0 -0.4022557413
N  N438  1  0.26781000  0.10733000  0.29629000  1.0 -0.4022557413
N  N439  1  0.29629000  0.32857000  0.26781000  1.0 -0.4022557413
N  N440  1  0.10733000  0.26781000  0.32857000  1.0 -0.4022557413
N  N441  1  0.10733000  0.32857000  0.29629000  1.0 -0.4022557413
N  N442  1  0.29629000  0.26781000  0.10733000  1.0 -0.4022557413
N  N443  1  0.26781000  0.29629000  0.32857000  1.0 -0.4022557413
N  N444  1  0.32857000  0.10733000  0.26781000  1.0 -0.4022557413
N  N445  1  0.95371000  0.14267000  0.98219000  1.0 -0.4022557413
N  N446  1  0.14267000  0.95371000  0.92143000  1.0 -0.4022557413
N  N447  1  0.92143000  0.98219000  0.14267000  1.0 -0.4022557413
N  N448  1  0.98219000  0.92143000  0.95371000  1.0 -0.4022557413
N  N449  1  0.92143000  0.95371000  0.98219000  1.0 -0.4022557413
N  N450  1  0.98219000  0.14267000  0.92143000  1.0 -0.4022557413
N  N451  1  0.95371000  0.92143000  0.14267000  1.0 -0.4022557413
N  N452  1  0.14267000  0.98219000  0.95371000  1.0 -0.4022557413
N  N453  1  0.14267000  0.92143000  0.98219000  1.0 -0.4022557413
N  N454  1  0.95371000  0.98219000  0.92143000  1.0 -0.4022557413
N  N455  1  0.98219000  0.95371000  0.14267000  1.0 -0.4022557413
N  N456  1  0.92143000  0.14267000  0.95371000  1.0 -0.4022557413
N  N457  1  0.45371000  0.64267000  0.42143000  1.0 -0.4022557413
N  N458  1  0.64267000  0.45371000  0.48219000  1.0 -0.4022557413
N  N459  1  0.42143000  0.48219000  0.45371000  1.0 -0.4022557413
N  N460  1  0.48219000  0.42143000  0.64267000  1.0 -0.4022557413
N  N461  1  0.42143000  0.45371000  0.64267000  1.0 -0.4022557413
N  N462  1  0.48219000  0.64267000  0.45371000  1.0 -0.4022557413
N  N463  1  0.45371000  0.42143000  0.48219000  1.0 -0.4022557413
N  N464  1  0.64267000  0.48219000  0.42143000  1.0 -0.4022557413
N  N465  1  0.64267000  0.42143000  0.45371000  1.0 -0.4022557413
N  N466  1  0.45371000  0.48219000  0.64267000  1.0 -0.4022557413
N  N467  1  0.48219000  0.45371000  0.42143000  1.0 -0.4022557413
N  N468  1  0.42143000  0.64267000  0.48219000  1.0 -0.4022557413
N  N469  1  0.79629000  0.60733000  0.76781000  1.0 -0.4022557413
N  N470  1  0.60733000  0.79629000  0.82857000  1.0 -0.4022557413
N  N471  1  0.82857000  0.76781000  0.60733000  1.0 -0.4022557413
N  N472  1  0.76781000  0.82857000  0.79629000  1.0 -0.4022557413
N  N473  1  0.82857000  0.79629000  0.76781000  1.0 -0.4022557413
N  N474  1  0.76781000  0.60733000  0.82857000  1.0 -0.4022557413
N  N475  1  0.79629000  0.82857000  0.60733000  1.0 -0.4022557413
N  N476  1  0.60733000  0.76781000  0.79629000  1.0 -0.4022557413
N  N477  1  0.60733000  0.82857000  0.76781000  1.0 -0.4022557413
N  N478  1  0.79629000  0.76781000  0.82857000  1.0 -0.4022557413
N  N479  1  0.76781000  0.79629000  0.60733000  1.0 -0.4022557413
N  N480  1  0.82857000  0.60733000  0.79629000  1.0 -0.4022557413
