# DDEC6 charges by PACMAN v1.1 (https://github.com/mtap-research/PACMAN-charge/)
data_RIFTOT_ASR_pacman
_symmetry_space_group_name_H-M   'P 1'
_cell_length_a   16.15800000
_cell_length_b   28.92300000
_cell_length_c   25.90660000
_cell_angle_alpha   90.00000000
_cell_angle_beta   122.51300000
_cell_angle_gamma   90.00000000
_symmetry_Int_Tables_number   1
_chemical_formula_structural   Zn4Mo12PH9C16O35
_chemical_formula_sum   'Zn16 Mo48 P4 H36 C64 O140'
_cell_volume   10209.57729101
_cell_formula_units_Z   4
loop_
 _symmetry_equiv_pos_site_id
 _symmetry_equiv_pos_as_xyz
  1  'x, y, z'
loop_
 _atom_site_type_symbol
 _atom_site_label
 _atom_site_symmetry_multiplicity
 _atom_site_fract_x
 _atom_site_fract_y
 _atom_site_fract_z
 _atom_site_occupancy
 _atom_site_charge
Zn  Zn1  1  0.87178000  0.40301000  0.71396000  1.0 1.0206433526
Zn  Zn2  1  0.12822000  0.90301000  0.78604000  1.0 1.0206433526
Zn  Zn3  1  0.12822000  0.59699000  0.28604000  1.0 1.0206433526
Zn  Zn4  1  0.87178000  0.09699000  0.21396000  1.0 1.0206433526
Zn  Zn5  1  0.57172000  0.25057000  0.56928000  1.0 1.0071339996
Zn  Zn6  1  0.42828000  0.75057000  0.93072000  1.0 1.0047508867
Zn  Zn7  1  0.42828000  0.74943000  0.43072000  1.0 1.0071339996
Zn  Zn8  1  0.57172000  0.24943000  0.06928000  1.0 1.0071339996
Zn  Zn9  1  0.47823000  0.43895000  0.47319000  1.0 1.0261167677
Zn  Zn10  1  0.52177000  0.93895000  0.02681000  1.0 1.0206433526
Zn  Zn11  1  0.52177000  0.56105000  0.52681000  1.0 1.0261167677
Zn  Zn12  1  0.47823000  0.06105000  0.97319000  1.0 1.0261167677
Zn  Zn13  1  0.51978000  0.39819000  0.71946000  1.0 1.0206433526
Zn  Zn14  1  0.48022000  0.89819000  0.78054000  1.0 1.0206433526
Zn  Zn15  1  0.48022000  0.60181000  0.28054000  1.0 1.0206433526
Zn  Zn16  1  0.51978000  0.10181000  0.21946000  1.0 1.0206433526
Mo  Mo1  1  0.70360000  0.48587000  0.60774000  1.0 1.6817652376
Mo  Mo2  1  0.29640000  0.98587000  0.89226000  1.0 1.6724182756
Mo  Mo3  1  0.29640000  0.51413000  0.39226000  1.0 1.6817652376
Mo  Mo4  1  0.70360000  0.01413000  0.10774000  1.0 1.6910204085
Mo  Mo5  1  0.58599000  0.28155000  0.71133000  1.0 1.8202379139
Mo  Mo6  1  0.41401000  0.78155000  0.78867000  1.0 1.8277848156
Mo  Mo7  1  0.41401000  0.71845000  0.28867000  1.0 1.8277848156
Mo  Mo8  1  0.58599000  0.21845000  0.21133000  1.0 1.8202379139
Mo  Mo9  1  0.76666000  0.36249000  0.79244000  1.0 2.1032696755
Mo  Mo10  1  0.23334000  0.86249000  0.70756000  1.0 2.1032696755
Mo  Mo11  1  0.23334000  0.63751000  0.20756000  1.0 2.1032696755
Mo  Mo12  1  0.76666000  0.13751000  0.29244000  1.0 2.1032696755
Mo  Mo13  1  0.35894000  0.41647000  0.55339000  1.0 1.8014798553
Mo  Mo14  1  0.64106000  0.91647000  0.94661000  1.0 1.8014798553
Mo  Mo15  1  0.64106000  0.58353000  0.44661000  1.0 1.8070866258
Mo  Mo16  1  0.35894000  0.08353000  0.05339000  1.0 1.7889242561
Mo  Mo17  1  0.80567000  0.28416000  0.70814000  1.0 1.888397509
Mo  Mo18  1  0.19433000  0.78416000  0.79186000  1.0 1.888397509
Mo  Mo19  1  0.19433000  0.71584000  0.29186000  1.0 1.888397509
Mo  Mo20  1  0.80567000  0.21584000  0.20814000  1.0 1.9006238969
Mo  Mo21  1  0.41634000  0.29976000  0.61211000  1.0 1.888397509
Mo  Mo22  1  0.58366000  0.79976000  0.88789000  1.0 1.888397509
Mo  Mo23  1  0.58366000  0.70024000  0.38789000  1.0 1.9006238969
Mo  Mo24  1  0.41634000  0.20024000  0.11211000  1.0 1.888397509
Mo  Mo25  1  0.58057000  0.33231000  0.47192000  1.0 2.0520828159
Mo  Mo26  1  0.41943000  0.83231000  0.02808000  1.0 2.0444773825
Mo  Mo27  1  0.41943000  0.66769000  0.52808000  1.0 2.0520828159
Mo  Mo28  1  0.58057000  0.16769000  0.97192000  1.0 2.0444773825
Mo  Mo29  1  0.73745000  0.42253000  0.54881000  1.0 1.8464990647
Mo  Mo30  1  0.26255000  0.92253000  0.95119000  1.0 1.8438414724
Mo  Mo31  1  0.26255000  0.57747000  0.45119000  1.0 1.8464990647
Mo  Mo32  1  0.73745000  0.07747000  0.04881000  1.0 1.85810093
Mo  Mo33  1  0.79456000  0.30556000  0.60677000  1.0 1.8795240911
Mo  Mo34  1  0.20544000  0.80556000  0.89323000  1.0 1.888397509
Mo  Mo35  1  0.20544000  0.69444000  0.39323000  1.0 1.8795240911
Mo  Mo36  1  0.79456000  0.19444000  0.10677000  1.0 1.888397509
Mo  Mo37  1  0.48820000  0.48255000  0.60989000  1.0 1.6817652376
Mo  Mo38  1  0.51180000  0.98255000  0.89011000  1.0 1.6817652376
Mo  Mo39  1  0.51180000  0.51745000  0.39011000  1.0 1.6910204085
Mo  Mo40  1  0.48820000  0.01745000  0.10989000  1.0 1.6817652376
Mo  Mo41  1  0.38600000  0.32821000  0.47456000  1.0 2.0616440367
Mo  Mo42  1  0.61400000  0.82821000  0.02544000  1.0 2.0616440367
Mo  Mo43  1  0.61400000  0.67179000  0.52544000  1.0 2.0616440367
Mo  Mo44  1  0.38600000  0.17179000  0.97456000  1.0 2.0658369453
Mo  Mo45  1  0.71410000  0.46601000  0.74165000  1.0 2.0773936303
Mo  Mo46  1  0.28590000  0.96601000  0.75835000  1.0 2.0773936303
Mo  Mo47  1  0.28590000  0.53399000  0.25835000  1.0 2.0773936303
Mo  Mo48  1  0.71410000  0.03399000  0.24165000  1.0 2.0773936303
P  P1  1  0.61148000  0.37158000  0.62012000  1.0 1.4212580116
P  P2  1  0.38852000  0.87158000  0.87988000  1.0 1.4212580116
P  P3  1  0.38852000  0.62842000  0.37988000  1.0 1.4212580116
P  P4  1  0.61148000  0.12842000  0.12012000  1.0 1.4282319935
H  H1  1  0.25785000  0.46248000  0.92283000  1.0 0.0784321928
H  H2  1  0.74215000  0.96248000  0.57717000  1.0 0.0784321928
H  H3  1  0.74215000  0.53752000  0.07717000  1.0 0.0784321928
H  H4  1  0.25785000  0.03752000  0.42283000  1.0 0.0784321928
H  H5  1  0.36202000  0.46433000  0.98624000  1.0 0.0916187205
H  H6  1  0.63798000  0.96433000  0.51376000  1.0 0.0916187205
H  H7  1  0.63798000  0.53567000  0.01376000  1.0 0.0916187205
H  H8  1  0.36202000  0.03567000  0.48624000  1.0 0.0916187205
H  H9  1  0.17442000  0.39182000  0.69200000  1.0 0.0916187205
H  H10  1  0.82558000  0.89182000  0.80800000  1.0 0.0916187205
H  H11  1  0.82558000  0.60818000  0.30800000  1.0 0.0916187205
H  H12  1  0.17442000  0.10818000  0.19200000  1.0 0.0916187205
H  H13  1  0.26023000  0.59345000  0.81758000  1.0 0.0916187205
H  H14  1  0.73977000  0.09345000  0.68242000  1.0 0.0916187205
H  H15  1  0.73977000  0.40655000  0.18242000  1.0 0.0916187205
H  H16  1  0.26023000  0.90655000  0.31758000  1.0 0.0916187205
H  H17  1  0.17919000  0.42744000  0.84302000  1.0 0.0954565358
H  H18  1  0.82081000  0.92744000  0.65698000  1.0 0.0954565358
H  H19  1  0.82081000  0.57256000  0.15698000  1.0 0.0954565358
H  H20  1  0.17919000  0.07256000  0.34302000  1.0 0.0954565358
H  H21  1  0.23209000  0.51853000  0.83951000  1.0 0.0954565358
H  H22  1  0.76791000  0.01853000  0.66049000  1.0 0.0954565358
H  H23  1  0.76791000  0.48147000  0.16049000  1.0 0.0916187205
H  H24  1  0.23209000  0.98147000  0.33951000  1.0 0.0954565358
H  H25  1  0.44972000  0.53350000  0.01513000  1.0 0.0916187205
H  H26  1  0.55028000  0.03350000  0.48487000  1.0 0.0916187205
H  H27  1  0.55028000  0.46650000  0.98487000  1.0 0.0916187205
H  H28  1  0.44972000  0.96650000  0.51513000  1.0 0.0916187205
H  H29  1  0.47331000  0.60940000  0.99689000  1.0 0.0916187205
H  H30  1  0.52669000  0.10940000  0.50311000  1.0 0.0916187205
H  H31  1  0.52669000  0.39060000  0.00311000  1.0 0.0916187205
H  H32  1  0.47331000  0.89060000  0.49689000  1.0 0.0916187205
H  H33  1  0.43100000  0.42435000  0.84930000  1.0 0.109727023
H  H34  1  0.56900000  0.92435000  0.65070000  1.0 0.109727023
H  H35  1  0.56900000  0.57565000  0.15070000  1.0 0.109727023
H  H36  1  0.43100000  0.07565000  0.34930000  1.0 0.109727023
C  C1  1  0.16210000  0.41130000  0.76200000  1.0 -0.0270498546
C  C2  1  0.83790000  0.91130000  0.73800000  1.0 -0.0270498546
C  C3  1  0.83790000  0.58870000  0.23800000  1.0 -0.0270498546
C  C4  1  0.16210000  0.08870000  0.26200000  1.0 -0.0270498546
C  C5  1  0.32850000  0.46910000  0.94150000  1.0 -0.1102759281
C  C6  1  0.67150000  0.96910000  0.55850000  1.0 -0.1102759281
C  C7  1  0.67150000  0.53090000  0.05850000  1.0 -0.1102759281
C  C8  1  0.32850000  0.03090000  0.44150000  1.0 -0.1102759281
C  C9  1  0.37900000  0.66050000  0.89660000  1.0 0.5004058422
C  C10  1  0.62100000  0.16050000  0.60340000  1.0 0.5004058422
C  C11  1  0.62100000  0.33950000  0.10340000  1.0 0.5004058422
C  C12  1  0.37900000  0.83950000  0.39660000  1.0 0.5004058422
C  C13  1  0.31460000  0.42560000  0.85610000  1.0 0.2130998762
C  C14  1  0.68540000  0.92560000  0.64390000  1.0 0.2130998762
C  C15  1  0.68540000  0.57440000  0.14390000  1.0 0.2130998762
C  C16  1  0.31460000  0.07440000  0.35610000  1.0 0.2130998762
C  C17  1  0.36650000  0.60930000  0.90500000  1.0 -0.0200951295
C  C18  1  0.63350000  0.10930000  0.59500000  1.0 -0.0200951295
C  C19  1  0.63350000  0.39070000  0.09500000  1.0 -0.0200951295
C  C20  1  0.36650000  0.89070000  0.40500000  1.0 -0.0200951295
C  C21  1  0.20990000  0.40190000  0.73340000  1.0 -0.1475001446
C  C22  1  0.79010000  0.90190000  0.76660000  1.0 -0.1475001446
C  C23  1  0.79010000  0.59810000  0.26660000  1.0 -0.1475001446
C  C24  1  0.20990000  0.09810000  0.23340000  1.0 -0.1475001446
C  C25  1  0.29760000  0.58190000  0.85830000  1.0 -0.1167633256
C  C26  1  0.70240000  0.08190000  0.64170000  1.0 -0.1167633256
C  C27  1  0.70240000  0.41810000  0.14170000  1.0 -0.1167633256
C  C28  1  0.29760000  0.91810000  0.35830000  1.0 -0.1167633256
C  C29  1  0.21360000  0.42220000  0.82320000  1.0 -0.2505231427
C  C30  1  0.78640000  0.92220000  0.67680000  1.0 -0.2505231427
C  C31  1  0.78640000  0.57780000  0.17680000  1.0 -0.2505231427
C  C32  1  0.21360000  0.07780000  0.32320000  1.0 -0.2505231427
C  C33  1  0.28280000  0.53680000  0.87120000  1.0 -0.1843308939
C  C34  1  0.71720000  0.03680000  0.62880000  1.0 -0.1843308939
C  C35  1  0.71720000  0.46320000  0.12880000  1.0 -0.1843308939
C  C36  1  0.28280000  0.96320000  0.37120000  1.0 -0.1843308939
C  C37  1  0.05090000  0.40430000  0.72570000  1.0 0.5004058422
C  C38  1  0.94910000  0.90430000  0.77430000  1.0 0.5004058422
C  C39  1  0.94910000  0.59570000  0.27430000  1.0 0.5004058422
C  C40  1  0.05090000  0.09570000  0.22570000  1.0 0.5004058422
C  C41  1  0.41020000  0.54580000  0.97500000  1.0 -0.1857237725
C  C42  1  0.58980000  0.04580000  0.52500000  1.0 -0.1857237725
C  C43  1  0.58980000  0.45420000  0.02500000  1.0 -0.1857237725
C  C44  1  0.41020000  0.95420000  0.47500000  1.0 -0.1857237725
C  C45  1  0.31030000  0.40710000  0.76480000  1.0 -0.009306845
C  C46  1  0.68970000  0.90710000  0.73520000  1.0 -0.009306845
C  C47  1  0.68970000  0.59290000  0.23520000  1.0 -0.009306845
C  C48  1  0.31030000  0.09290000  0.26480000  1.0 -0.009306845
C  C49  1  0.42460000  0.59090000  0.96440000  1.0 -0.1167633256
C  C50  1  0.57540000  0.09090000  0.53560000  1.0 -0.1167633256
C  C51  1  0.57540000  0.40910000  0.03560000  1.0 -0.1167633256
C  C52  1  0.42460000  0.90910000  0.46440000  1.0 -0.1167633256
C  C53  1  0.36200000  0.41990000  0.82750000  1.0 -0.2505231427
C  C54  1  0.63800000  0.91990000  0.67250000  1.0 -0.2505231427
C  C55  1  0.63800000  0.58010000  0.17250000  1.0 -0.2505231427
C  C56  1  0.36200000  0.08010000  0.32750000  1.0 -0.2505231427
C  C57  1  0.36460000  0.40000000  0.73290000  1.0 0.5004058422
C  C58  1  0.63540000  0.90000000  0.76710000  1.0 0.5004058422
C  C59  1  0.63540000  0.60000000  0.26710000  1.0 0.5004058422
C  C60  1  0.36460000  0.10000000  0.23290000  1.0 0.5004058422
C  C61  1  0.34080000  0.51850000  0.92930000  1.0 0.0601644402
C  C62  1  0.65920000  0.01850000  0.57070000  1.0 0.0601644402
C  C63  1  0.65920000  0.48150000  0.07070000  1.0 0.0601644402
C  C64  1  0.34080000  0.98150000  0.42930000  1.0 0.0601644402
O  O1  1  0.58140000  0.51620000  0.59400000  1.0 -0.9705818354
O  O2  1  0.41860000  0.01620000  0.90600000  1.0 -0.9705818354
O  O3  1  0.41860000  0.48380000  0.40600000  1.0 -0.9705818354
O  O4  1  0.58140000  0.98380000  0.09400000  1.0 -0.9705818354
O  O5  1  0.84380000  0.32160000  0.78230000  1.0 -0.9009429026
O  O6  1  0.15620000  0.82160000  0.71770000  1.0 -0.908015414
O  O7  1  0.15620000  0.67840000  0.21770000  1.0 -0.908015414
O  O8  1  0.84380000  0.17840000  0.28230000  1.0 -0.9009429026
O  O9  1  0.49480000  0.33333333  0.68940000  1.0 -0.9305187746
O  O10  1  0.50520000  0.83333000  0.81060000  1.0 -0.9305187746
O  O11  1  0.50520000  0.66666667  0.31060000  1.0 -0.9305187746
O  O12  1  0.49480000  0.16667000  0.18940000  1.0 -0.9305187746
O  O13  1  0.31670000  0.38650000  0.67880000  1.0 -0.4845040648
O  O14  1  0.68330000  0.88650000  0.82120000  1.0 -0.4872569351
O  O15  1  0.68330000  0.61350000  0.32120000  1.0 -0.4872569351
O  O16  1  0.31670000  0.11350000  0.17880000  1.0 -0.4872569351
O  O17  1  0.50980000  0.29320000  0.50030000  1.0 -1.0335874339
O  O18  1  0.49020000  0.79320000  0.99970000  1.0 -1.0335874339
O  O19  1  0.49020000  0.70680000  0.49970000  1.0 -1.0335874339
O  O20  1  0.50980000  0.20680000  0.00030000  1.0 -1.0335874339
O  O21  1  0.45880000  0.40750000  0.76610000  1.0 -0.580273336
O  O22  1  0.54120000  0.90750000  0.73390000  1.0 -0.580273336
O  O23  1  0.54120000  0.59250000  0.23390000  1.0 -0.580273336
O  O24  1  0.45880000  0.09250000  0.26610000  1.0 -0.580273336
O  O25  1  0.61850000  0.45570000  0.52970000  1.0 -0.9204775153
O  O26  1  0.38150000  0.95570000  0.97030000  1.0 -0.9204775153
O  O27  1  0.38150000  0.54430000  0.47030000  1.0 -0.9204775153
O  O28  1  0.61850000  0.04430000  0.02970000  1.0 -0.9204775153
O  O29  1  0.00490000  0.39370000  0.67310000  1.0 -0.447092981
O  O30  1  0.99510000  0.89370000  0.82690000  1.0 -0.447092981
O  O31  1  0.99510000  0.60630000  0.32690000  1.0 -0.4443386106
O  O32  1  0.00490000  0.10630000  0.17310000  1.0 -0.447092981
O  O33  1  0.36820000  0.43720000  0.91730000  1.0 -0.2155531405
O  O34  1  0.63180000  0.93720000  0.58270000  1.0 -0.2155531405
O  O35  1  0.63180000  0.56280000  0.08270000  1.0 -0.2155531405
O  O36  1  0.36820000  0.06280000  0.41730000  1.0 -0.2147103755
O  O37  1  0.65770000  0.36140000  0.58150000  1.0 -0.889566174
O  O38  1  0.34230000  0.86140000  0.91850000  1.0 -0.889566174
O  O39  1  0.34230000  0.63860000  0.41850000  1.0 -0.889566174
O  O40  1  0.65770000  0.13860000  0.08150000  1.0 -0.889566174
O  O41  1  0.80170000  0.43650000  0.63600000  1.0 -0.9305187746
O  O42  1  0.19830000  0.93650000  0.86400000  1.0 -0.9305187746
O  O43  1  0.19830000  0.56350000  0.36400000  1.0 -0.9305187746
O  O44  1  0.80170000  0.06350000  0.13600000  1.0 -0.9305187746
O  O45  1  0.82920000  0.36590000  0.57920000  1.0 -0.9824788703
O  O46  1  0.17080000  0.86590000  0.92080000  1.0 -0.9824788703
O  O47  1  0.17080000  0.63410000  0.42080000  1.0 -0.9824788703
O  O48  1  0.82920000  0.13410000  0.07920000  1.0 -0.9824788703
O  O49  1  0.43660000  0.45320000  0.53010000  1.0 -0.936423084
O  O50  1  0.56340000  0.95320000  0.96990000  1.0 -0.936423084
O  O51  1  0.56340000  0.54680000  0.46990000  1.0 -0.936423084
O  O52  1  0.43660000  0.04680000  0.03010000  1.0 -0.936423084
O  O53  1  0.01040000  0.41290000  0.75750000  1.0 -0.5928168504
O  O54  1  0.98960000  0.91290000  0.74250000  1.0 -0.5955830424
O  O55  1  0.98960000  0.58710000  0.24250000  1.0 -0.5928168504
O  O56  1  0.01040000  0.08710000  0.25750000  1.0 -0.5928168504
O  O57  1  0.52700000  0.26350000  0.62520000  1.0 -0.9204775153
O  O58  1  0.47300000  0.76350000  0.87480000  1.0 -0.9204775153
O  O59  1  0.47300000  0.73650000  0.37480000  1.0 -0.9204775153
O  O60  1  0.52700000  0.23650000  0.12520000  1.0 -0.9204775153
O  O61  1  0.67770000  0.31910000  0.78610000  1.0 -0.908015414
O  O62  1  0.32230000  0.81910000  0.71390000  1.0 -0.9009429026
O  O63  1  0.32230000  0.68090000  0.21390000  1.0 -0.908015414
O  O64  1  0.67770000  0.18090000  0.28610000  1.0 -0.908015414
O  O65  1  0.32260000  0.37850000  0.47940000  1.0 -0.889566174
O  O66  1  0.67740000  0.87850000  0.02060000  1.0 -0.889566174
O  O67  1  0.67740000  0.62150000  0.52060000  1.0 -0.889566174
O  O68  1  0.32260000  0.12150000  0.97940000  1.0 -0.889566174
O  O69  1  0.32680000  0.35740000  0.58640000  1.0 -0.9824788703
O  O70  1  0.67320000  0.85740000  0.91360000  1.0 -0.9824788703
O  O71  1  0.67320000  0.64260000  0.41360000  1.0 -0.9824788703
O  O72  1  0.32680000  0.14260000  0.08640000  1.0 -0.9824788703
O  O73  1  0.68800000  0.29630000  0.51910000  1.0 -0.8819520255
O  O74  1  0.31200000  0.79630000  0.98090000  1.0 -0.8819520255
O  O75  1  0.31200000  0.70370000  0.48090000  1.0 -0.8819520255
O  O76  1  0.68800000  0.20370000  0.01910000  1.0 -0.8819520255
O  O77  1  0.66760000  0.34170000  0.67990000  1.0 -0.889566174
O  O78  1  0.33240000  0.84170000  0.82010000  1.0 -0.889566174
O  O79  1  0.33240000  0.65830000  0.32010000  1.0 -0.889566174
O  O80  1  0.66760000  0.15830000  0.17990000  1.0 -0.889566174
O  O81  1  0.80640000  0.41360000  0.75820000  1.0 -1.0335874339
O  O82  1  0.19360000  0.91360000  0.74180000  1.0 -1.0335874339
O  O83  1  0.19360000  0.58640000  0.24180000  1.0 -1.0335874339
O  O84  1  0.80640000  0.08640000  0.25820000  1.0 -1.040357723
O  O85  1  0.64520000  0.38410000  0.47530000  1.0 -0.8819520255
O  O86  1  0.35480000  0.88410000  0.02470000  1.0 -0.8819520255
O  O87  1  0.35480000  0.61590000  0.52470000  1.0 -0.8819520255
O  O88  1  0.64520000  0.11590000  0.97530000  1.0 -0.8819520255
O  O89  1  0.59220000  0.49150000  0.70040000  1.0 -0.8819520255
O  O90  1  0.40780000  0.99150000  0.79960000  1.0 -0.8819520255
O  O91  1  0.40780000  0.50850000  0.29960000  1.0 -0.8819520255
O  O92  1  0.59220000  0.00850000  0.20040000  1.0 -0.889566174
O  O93  1  0.71610000  0.26580000  0.62350000  1.0 -0.908015414
O  O94  1  0.28390000  0.76580000  0.87650000  1.0 -0.908015414
O  O95  1  0.28390000  0.73420000  0.37650000  1.0 -0.908015414
O  O96  1  0.71610000  0.23420000  0.12350000  1.0 -0.908015414
O  O97  1  0.44840000  0.43210000  0.64060000  1.0 -0.9204775153
O  O98  1  0.55160000  0.93210000  0.85940000  1.0 -0.9204775153
O  O99  1  0.55160000  0.56790000  0.35940000  1.0 -0.9204775153
O  O100  1  0.44840000  0.06790000  0.14060000  1.0 -0.9204775153
O  O101  1  0.36690000  0.28970000  0.52370000  1.0 -0.908015414
O  O102  1  0.63310000  0.78970000  0.97630000  1.0 -0.908015414
O  O103  1  0.63310000  0.71030000  0.47630000  1.0 -0.908015414
O  O104  1  0.36690000  0.21030000  0.02370000  1.0 -0.908015414
O  O105  1  0.85250000  0.33730000  0.68480000  1.0 -0.9204775153
O  O106  1  0.14750000  0.83730000  0.81520000  1.0 -0.9204775153
O  O107  1  0.14750000  0.66270000  0.31520000  1.0 -0.9204775153
O  O108  1  0.85250000  0.16270000  0.18480000  1.0 -0.9204775153
O  O109  1  0.71260000  0.24910000  0.72400000  1.0 -0.9705818354
O  O110  1  0.28740000  0.74910000  0.77600000  1.0 -0.9705818354
O  O111  1  0.28740000  0.75090000  0.27600000  1.0 -0.9705818354
O  O112  1  0.71260000  0.25090000  0.22400000  1.0 -0.9705818354
O  O113  1  0.42680000  0.68430000  0.94240000  1.0 -0.5373739211
O  O114  1  0.57320000  0.18430000  0.55760000  1.0 -0.5373739211
O  O115  1  0.57320000  0.31570000  0.05760000  1.0 -0.5373739211
O  O116  1  0.42680000  0.81570000  0.44240000  1.0 -0.5373739211
O  O117  1  0.75780000  0.49340000  0.69790000  1.0 -0.8622288762
O  O118  1  0.24220000  0.99340000  0.80210000  1.0 -0.8622288762
O  O119  1  0.24220000  0.50660000  0.30210000  1.0 -0.8622288762
O  O120  1  0.75780000  0.00660000  0.19790000  1.0 -0.8622288762
O  O121  1  0.33940000  0.67260000  0.84110000  1.0 -0.5108105449
O  O122  1  0.66060000  0.17260000  0.65890000  1.0 -0.5108105449
O  O123  1  0.66060000  0.32740000  0.15890000  1.0 -0.5108105449
O  O124  1  0.33940000  0.82740000  0.34110000  1.0 -0.5108105449
O  O125  1  0.62400000  0.42400000  0.63730000  1.0 -0.889566174
O  O126  1  0.37600000  0.92400000  0.86270000  1.0 -0.8819520255
O  O127  1  0.37600000  0.57600000  0.36270000  1.0 -0.889566174
O  O128  1  0.62400000  0.07600000  0.13730000  1.0 -0.8819520255
O  O129  1  0.66120000  0.40960000  0.76210000  1.0 -1.040357723
O  O130  1  0.33880000  0.90960000  0.73790000  1.0 -1.040357723
O  O131  1  0.33880000  0.59040000  0.23790000  1.0 -1.040357723
O  O132  1  0.66120000  0.09040000  0.26210000  1.0 -1.040357723
O  O133  1  0.50120000  0.35900000  0.58480000  1.0 -0.889566174
O  O134  1  0.49880000  0.85900000  0.91520000  1.0 -0.889566174
O  O135  1  0.49880000  0.64100000  0.41520000  1.0 -0.889566174
O  O136  1  0.50120000  0.14100000  0.08480000  1.0 -0.8819520255
O  O137  1  0.47030000  0.37160000  0.46120000  1.0 -1.040357723
O  O138  1  0.52970000  0.87160000  0.03880000  1.0 -1.040357723
O  O139  1  0.52970000  0.62840000  0.53880000  1.0 -1.040357723
O  O140  1  0.47030000  0.12840000  0.96120000  1.0 -1.040357723
