# DDEC6 charges by PACMAN v1.1 (https://github.com/mtap-research/PACMAN-charge/)
data_RIGPAB_ASR_pacman
_symmetry_space_group_name_H-M   'P 1'
_cell_length_a   17.77700000
_cell_length_b   17.78670000
_cell_length_c   50.51410000
_cell_angle_alpha   90.00000000
_cell_angle_beta   90.00000000
_cell_angle_gamma   90.00000000
_symmetry_Int_Tables_number   1
_chemical_formula_structural   Li2Zn2H38C55(NO6)2
_chemical_formula_sum   'Li16 Zn16 H304 C440 N16 O96'
_cell_volume   15972.26371569
_cell_formula_units_Z   8
loop_
 _symmetry_equiv_pos_site_id
 _symmetry_equiv_pos_as_xyz
  1  'x, y, z'
loop_
 _atom_site_type_symbol
 _atom_site_label
 _atom_site_symmetry_multiplicity
 _atom_site_fract_x
 _atom_site_fract_y
 _atom_site_fract_z
 _atom_site_occupancy
 _atom_site_charge
Li  Li1  1  0.83820000  0.04530000  0.14620000  1.0 0.8388024126
Li  Li2  1  0.79180000  0.60590000  0.39640000  1.0 0.829223714
Li  Li3  1  0.14850000  0.47880000  0.14600000  1.0 0.829223714
Li  Li4  1  0.27560000  0.08490000  0.89440000  1.0 0.8138411596
Li  Li5  1  0.66180000  0.95470000  0.64620000  1.0 0.8388024126
Li  Li6  1  0.70820000  0.39410000  0.89640000  1.0 0.829223714
Li  Li7  1  0.35150000  0.52120000  0.64600000  1.0 0.829223714
Li  Li8  1  0.22440000  0.91510000  0.39440000  1.0 0.8138411596
Li  Li9  1  0.16180000  0.54530000  0.35380000  1.0 0.8388024126
Li  Li10  1  0.20820000  0.10590000  0.10360000  1.0 0.829223714
Li  Li11  1  0.85150000  0.97880000  0.35400000  1.0 0.829223714
Li  Li12  1  0.72440000  0.58490000  0.60560000  1.0 0.8138411596
Li  Li13  1  0.33820000  0.45470000  0.85380000  1.0 0.8388024126
Li  Li14  1  0.29180000  0.89410000  0.60360000  1.0 0.829223714
Li  Li15  1  0.64850000  0.02120000  0.85400000  1.0 0.829223714
Li  Li16  1  0.77560000  0.41510000  0.10560000  1.0 0.8150821283
Zn  Zn1  1  0.73890000  0.91188000  0.11943000  1.0 0.8388024126
Zn  Zn2  1  0.65926000  0.50781000  0.36857000  1.0 0.829223714
Zn  Zn3  1  0.24206000  0.61094000  0.11807000  1.0 0.8388024126
Zn  Zn4  1  0.14124000  0.98874000  0.86759000  1.0 0.829223714
Zn  Zn5  1  0.76110000  0.08812000  0.61943000  1.0 0.8388024126
Zn  Zn6  1  0.84074000  0.49219000  0.86857000  1.0 0.829223714
Zn  Zn7  1  0.25794000  0.38906000  0.61807000  1.0 0.8388024126
Zn  Zn8  1  0.35876000  0.01126000  0.36759000  1.0 0.829223714
Zn  Zn9  1  0.26110000  0.41188000  0.38057000  1.0 0.8388024126
Zn  Zn10  1  0.34074000  0.00781000  0.13143000  1.0 0.829223714
Zn  Zn11  1  0.75794000  0.11094000  0.38193000  1.0 0.8388024126
Zn  Zn12  1  0.85876000  0.48874000  0.63241000  1.0 0.829223714
Zn  Zn13  1  0.23890000  0.58812000  0.88057000  1.0 0.8388024126
Zn  Zn14  1  0.15926000  0.99219000  0.63143000  1.0 0.829223714
Zn  Zn15  1  0.74206000  0.88906000  0.88193000  1.0 0.8388024126
Zn  Zn16  1  0.64124000  0.51126000  0.13241000  1.0 0.829223714
H  H1  1  0.00790000  0.04070000  0.08720000  1.0 0.1295368359
H  H2  1  0.07320000  0.05080000  0.04720000  1.0 0.1197836912
H  H3  1  0.93110000  0.88600000  0.01780000  1.0 0.1096431863
H  H4  1  0.87110000  0.88740000  0.05580000  1.0 0.1096431863
H  H5  1  0.14360000  0.01770000  0.00940000  1.0 0.1197836912
H  H6  1  0.19490000  0.02890000  0.96780000  1.0 0.1295368359
H  H7  1  0.99940000  0.97620000  0.93700000  1.0 0.1197836912
H  H8  1  0.94360000  0.97270000  0.97680000  1.0 0.1197836912
H  H9  1  0.77890000  0.96830000  0.22090000  1.0 0.1197836912
H  H10  1  0.76540000  0.91740000  0.26190000  1.0 0.1197836912
H  H11  1  0.71650000  0.71570000  0.23040000  1.0 0.1096431863
H  H12  1  0.74350000  0.76480000  0.18840000  1.0 0.1197836912
H  H13  1  0.80660000  0.83710000  0.29540000  1.0 0.1197836912
H  H14  1  0.79720000  0.77280000  0.33560000  1.0 0.1295368359
H  H15  1  0.64160000  0.63540000  0.30520000  1.0 0.1197836912
H  H16  1  0.64710000  0.70520000  0.26380000  1.0 0.1017419767
H  H17  1  0.71240000  0.52800000  0.46910000  1.0 0.1197836912
H  H18  1  0.66290000  0.50990000  0.51200000  1.0 0.1096431863
H  H19  1  0.45660000  0.49130000  0.47870000  1.0 0.1096431863
H  H20  1  0.50990000  0.50840000  0.43640000  1.0 0.1197836912
H  H21  1  0.58950000  0.54430000  0.55100000  1.0 0.1197836912
H  H22  1  0.52470000  0.52520000  0.58910000  1.0 0.1295368359
H  H23  1  0.38550000  0.38440000  0.55080000  1.0 0.1197836912
H  H24  1  0.43670000  0.40480000  0.51280000  1.0 0.1096431863
H  H25  1  0.21790000  0.55200000  0.21830000  1.0 0.1096431863
H  H26  1  0.23960000  0.60250000  0.26240000  1.0 0.1096431863
H  H27  1  0.26900000  0.81020000  0.22740000  1.0 0.1096431863
H  H28  1  0.23800000  0.76050000  0.18620000  1.0 0.1197836912
H  H29  1  0.20190000  0.68120000  0.29590000  1.0 0.1197836912
H  H30  1  0.22500000  0.74070000  0.33670000  1.0 0.1197836912
H  H31  1  0.36020000  0.89100000  0.29960000  1.0 0.1017419767
H  H32  1  0.34200000  0.81450000  0.25950000  1.0 0.1096431863
H  H33  1  0.06490000  0.05520000  0.37370000  1.0 0.1197836912
H  H34  1  0.97000000  0.14350000  0.36430000  1.0 0.1096431863
H  H35  1  0.12560000  0.29750000  0.34660000  1.0 0.1197836912
H  H36  1  0.21980000  0.20780000  0.35300000  1.0 0.1096431863
H  H37  1  0.89380000  0.22310000  0.34820000  1.0 0.1197836912
H  H38  1  0.79630000  0.31190000  0.35430000  1.0 0.1017419767
H  H39  1  0.95140000  0.46650000  0.37010000  1.0 0.1295368359
H  H40  1  0.04850000  0.38110000  0.36520000  1.0 0.1096431863
H  H41  1  0.69930000  0.20900000  0.12410000  1.0 0.1197836912
H  H42  1  0.60850000  0.29980000  0.11730000  1.0 0.1096431863
H  H43  1  0.45590000  0.13930000  0.10100000  1.0 0.1096431863
H  H44  1  0.54110000  0.05480000  0.10950000  1.0 0.1197836912
H  H45  1  0.52930000  0.38090000  0.10000000  1.0 0.1096431863
H  H46  1  0.44000000  0.47180000  0.10450000  1.0 0.1096431863
H  H47  1  0.28460000  0.31550000  0.12020000  1.0 0.1197836912
H  H48  1  0.37780000  0.22330000  0.11840000  1.0 0.1096431863
H  H49  1  0.65230000  0.76060000  0.12090000  1.0 0.1096431863
H  H50  1  0.57240000  0.69590000  0.09340000  1.0 0.1398124277
H  H51  1  0.64690000  0.81610000  0.03470000  1.0 0.1398124277
H  H52  1  0.70910000  0.89160000  0.06210000  1.0 0.1197836912
H  H53  1  0.56660000  0.68010000  0.02990000  1.0 0.1197836912
H  H54  1  0.50530000  0.68190000  0.05300000  1.0 0.1197836912
H  H55  1  0.46180000  0.72800000  0.01420000  1.0 0.0900465819
H  H56  1  0.52440000  0.79240000  0.01500000  1.0 0.0900465819
H  H57  1  0.40910000  0.83650000  0.02840000  1.0 0.1197836912
H  H58  1  0.47080000  0.84510000  0.05120000  1.0 0.1197836912
H  H59  1  0.41190000  0.82310000  0.09290000  1.0 0.1521397411
H  H60  1  0.34400000  0.75590000  0.12050000  1.0 0.1096431863
H  H61  1  0.26430000  0.63510000  0.06140000  1.0 0.1096431863
H  H62  1  0.33620000  0.70830000  0.03150000  1.0 0.1398124277
H  H63  1  0.49800000  0.11300000  0.37110000  1.0 0.1096431863
H  H64  1  0.57780000  0.17780000  0.34380000  1.0 0.1398124277
H  H65  1  0.44860000  0.11190000  0.28190000  1.0 0.1295368359
H  H66  1  0.38230000  0.03390000  0.30980000  1.0 0.1197836912
H  H67  1  0.57940000  0.17110000  0.27580000  1.0 0.1197836912
H  H68  1  0.59660000  0.23440000  0.29760000  1.0 0.1197836912
H  H69  1  0.46530000  0.22890000  0.26440000  1.0 0.0815788957
H  H70  1  0.53100000  0.28950000  0.26190000  1.0 0.0815788957
H  H71  1  0.42460000  0.34620000  0.28090000  1.0 0.1197836912
H  H72  1  0.42200000  0.28430000  0.30380000  1.0 0.1096431863
H  H73  1  0.44700000  0.33310000  0.34490000  1.0 0.1197836912
H  H74  1  0.50230000  0.42480000  0.36920000  1.0 0.1096431863
H  H75  1  0.64120000  0.47620000  0.31240000  1.0 0.1197836912
H  H76  1  0.58760000  0.39570000  0.28470000  1.0 0.1295368359
H  H77  1  0.49210000  0.95930000  0.58720000  1.0 0.1295368359
H  H78  1  0.42680000  0.94920000  0.54720000  1.0 0.1197836912
H  H79  1  0.56890000  0.11400000  0.51780000  1.0 0.1096431863
H  H80  1  0.62890000  0.11260000  0.55580000  1.0 0.1096431863
H  H81  1  0.35640000  0.98230000  0.50940000  1.0 0.1197836912
H  H82  1  0.30510000  0.97110000  0.46780000  1.0 0.1295368359
H  H83  1  0.50060000  0.02380000  0.43700000  1.0 0.1197836912
H  H84  1  0.55640000  0.02730000  0.47680000  1.0 0.1197836912
H  H85  1  0.72110000  0.03170000  0.72090000  1.0 0.1197836912
H  H86  1  0.73460000  0.08260000  0.76190000  1.0 0.1197836912
H  H87  1  0.78350000  0.28430000  0.73040000  1.0 0.1096431863
H  H88  1  0.75650000  0.23520000  0.68840000  1.0 0.1197836912
H  H89  1  0.69340000  0.16290000  0.79540000  1.0 0.1197836912
H  H90  1  0.70280000  0.22720000  0.83560000  1.0 0.1295368359
H  H91  1  0.85840000  0.36460000  0.80520000  1.0 0.1197836912
H  H92  1  0.85290000  0.29480000  0.76380000  1.0 0.1017419767
H  H93  1  0.78760000  0.47200000  0.96910000  1.0 0.1197836912
H  H94  1  0.83710000  0.49010000  0.01200000  1.0 0.1096431863
H  H95  1  0.04340000  0.50870000  0.97870000  1.0 0.1096431863
H  H96  1  0.99010000  0.49160000  0.93640000  1.0 0.1197836912
H  H97  1  0.91050000  0.45570000  0.05100000  1.0 0.1197836912
H  H98  1  0.97530000  0.47480000  0.08910000  1.0 0.1295368359
H  H99  1  0.11450000  0.61560000  0.05080000  1.0 0.1197836912
H  H100  1  0.06330000  0.59520000  0.01280000  1.0 0.1096431863
H  H101  1  0.28210000  0.44800000  0.71830000  1.0 0.1096431863
H  H102  1  0.26040000  0.39750000  0.76240000  1.0 0.1096431863
H  H103  1  0.23100000  0.18980000  0.72740000  1.0 0.1096431863
H  H104  1  0.26200000  0.23950000  0.68620000  1.0 0.1197836912
H  H105  1  0.29810000  0.31880000  0.79590000  1.0 0.1197836912
H  H106  1  0.27500000  0.25930000  0.83670000  1.0 0.1197836912
H  H107  1  0.13980000  0.10900000  0.79960000  1.0 0.1017419767
H  H108  1  0.15800000  0.18550000  0.75950000  1.0 0.1096431863
H  H109  1  0.43510000  0.94480000  0.87370000  1.0 0.1197836912
H  H110  1  0.53000000  0.85650000  0.86430000  1.0 0.1096431863
H  H111  1  0.37440000  0.70250000  0.84660000  1.0 0.1197836912
H  H112  1  0.28020000  0.79220000  0.85300000  1.0 0.1096431863
H  H113  1  0.60620000  0.77690000  0.84820000  1.0 0.1197836912
H  H114  1  0.70370000  0.68810000  0.85430000  1.0 0.1017419767
H  H115  1  0.54860000  0.53350000  0.87010000  1.0 0.1295368359
H  H116  1  0.45150000  0.61890000  0.86520000  1.0 0.1096431863
H  H117  1  0.80070000  0.79100000  0.62410000  1.0 0.1197836912
H  H118  1  0.89150000  0.70020000  0.61730000  1.0 0.1096431863
H  H119  1  0.04410000  0.86070000  0.60100000  1.0 0.1197836912
H  H120  1  0.95890000  0.94520000  0.60950000  1.0 0.1197836912
H  H121  1  0.97070000  0.61910000  0.60000000  1.0 0.1096431863
H  H122  1  0.06000000  0.52820000  0.60450000  1.0 0.1096431863
H  H123  1  0.21540000  0.68450000  0.62020000  1.0 0.1197836912
H  H124  1  0.12220000  0.77670000  0.61840000  1.0 0.1096431863
H  H125  1  0.84770000  0.23940000  0.62090000  1.0 0.1096431863
H  H126  1  0.92760000  0.30410000  0.59340000  1.0 0.1398124277
H  H127  1  0.85310000  0.18390000  0.53470000  1.0 0.1398124277
H  H128  1  0.79090000  0.10840000  0.56210000  1.0 0.1197836912
H  H129  1  0.93340000  0.31990000  0.52990000  1.0 0.1197836912
H  H130  1  0.99470000  0.31810000  0.55300000  1.0 0.1197836912
H  H131  1  0.03820000  0.27200000  0.51420000  1.0 0.0900465819
H  H132  1  0.97560000  0.20760000  0.51500000  1.0 0.0900465819
H  H133  1  0.09090000  0.16350000  0.52840000  1.0 0.1197836912
H  H134  1  0.02920000  0.15490000  0.55120000  1.0 0.1197836912
H  H135  1  0.08810000  0.17690000  0.59290000  1.0 0.1521397411
H  H136  1  0.15600000  0.24410000  0.62050000  1.0 0.1096431863
H  H137  1  0.23570000  0.36490000  0.56140000  1.0 0.1096431863
H  H138  1  0.16380000  0.29170000  0.53150000  1.0 0.1398124277
H  H139  1  0.00200000  0.88700000  0.87110000  1.0 0.1096431863
H  H140  1  0.92220000  0.82220000  0.84380000  1.0 0.1398124277
H  H141  1  0.05140000  0.88810000  0.78190000  1.0 0.1295368359
H  H142  1  0.11770000  0.96610000  0.80980000  1.0 0.1197836912
H  H143  1  0.92060000  0.82890000  0.77580000  1.0 0.1197836912
H  H144  1  0.90340000  0.76560000  0.79760000  1.0 0.1197836912
H  H145  1  0.03470000  0.77110000  0.76440000  1.0 0.0815788957
H  H146  1  0.96900000  0.71050000  0.76190000  1.0 0.0815788957
H  H147  1  0.07540000  0.65380000  0.78090000  1.0 0.1197836912
H  H148  1  0.07800000  0.71570000  0.80380000  1.0 0.1096431863
H  H149  1  0.05300000  0.66690000  0.84490000  1.0 0.1197836912
H  H150  1  0.99770000  0.57520000  0.86920000  1.0 0.1096431863
H  H151  1  0.85880000  0.52380000  0.81240000  1.0 0.1197836912
H  H152  1  0.91240000  0.60430000  0.78470000  1.0 0.1295368359
H  H153  1  0.99210000  0.54070000  0.41280000  1.0 0.1295368359
H  H154  1  0.92680000  0.55080000  0.45280000  1.0 0.1197836912
H  H155  1  0.06890000  0.38600000  0.48220000  1.0 0.1096431863
H  H156  1  0.12890000  0.38740000  0.44420000  1.0 0.1096431863
H  H157  1  0.85640000  0.51770000  0.49060000  1.0 0.1197836912
H  H158  1  0.80510000  0.52890000  0.53220000  1.0 0.1295368359
H  H159  1  0.00060000  0.47620000  0.56300000  1.0 0.1197836912
H  H160  1  0.05640000  0.47270000  0.52320000  1.0 0.1197836912
H  H161  1  0.22110000  0.46830000  0.27910000  1.0 0.1197836912
H  H162  1  0.23460000  0.41740000  0.23810000  1.0 0.1197836912
H  H163  1  0.28350000  0.21570000  0.26960000  1.0 0.1096431863
H  H164  1  0.25650000  0.26480000  0.31160000  1.0 0.1197836912
H  H165  1  0.19340000  0.33710000  0.20460000  1.0 0.1197836912
H  H166  1  0.20280000  0.27280000  0.16440000  1.0 0.1295368359
H  H167  1  0.35840000  0.13540000  0.19480000  1.0 0.1197836912
H  H168  1  0.35290000  0.20520000  0.23620000  1.0 0.1017419767
H  H169  1  0.28760000  0.02800000  0.03090000  1.0 0.1197836912
H  H170  1  0.33710000  0.00990000  0.98800000  1.0 0.1096431863
H  H171  1  0.54340000  0.99130000  0.02130000  1.0 0.1096431863
H  H172  1  0.49010000  0.00840000  0.06360000  1.0 0.1197836912
H  H173  1  0.41050000  0.04430000  0.94900000  1.0 0.1197836912
H  H174  1  0.47530000  0.02520000  0.91090000  1.0 0.1295368359
H  H175  1  0.61450000  0.88440000  0.94920000  1.0 0.1197836912
H  H176  1  0.56330000  0.90480000  0.98720000  1.0 0.1096431863
H  H177  1  0.78210000  0.05200000  0.28170000  1.0 0.1096431863
H  H178  1  0.76040000  0.10250000  0.23760000  1.0 0.1096431863
H  H179  1  0.73100000  0.31020000  0.27260000  1.0 0.1096431863
H  H180  1  0.76200000  0.26050000  0.31380000  1.0 0.1197836912
H  H181  1  0.79810000  0.18120000  0.20410000  1.0 0.1197836912
H  H182  1  0.77500000  0.24070000  0.16330000  1.0 0.1197836912
H  H183  1  0.63980000  0.39100000  0.20040000  1.0 0.1017419767
H  H184  1  0.65800000  0.31450000  0.24050000  1.0 0.1096431863
H  H185  1  0.93510000  0.55520000  0.12630000  1.0 0.1197836912
H  H186  1  0.03000000  0.64350000  0.13570000  1.0 0.1096431863
H  H187  1  0.87440000  0.79750000  0.15340000  1.0 0.1197836912
H  H188  1  0.78020000  0.70780000  0.14700000  1.0 0.1096431863
H  H189  1  0.10620000  0.72310000  0.15180000  1.0 0.1197836912
H  H190  1  0.20370000  0.81190000  0.14570000  1.0 0.1017419767
H  H191  1  0.04860000  0.96650000  0.12990000  1.0 0.1295368359
H  H192  1  0.95150000  0.88110000  0.13480000  1.0 0.1096431863
H  H193  1  0.30070000  0.70900000  0.37590000  1.0 0.1197836912
H  H194  1  0.39150000  0.79980000  0.38270000  1.0 0.1096431863
H  H195  1  0.54410000  0.63930000  0.39900000  1.0 0.1197836912
H  H196  1  0.45890000  0.55480000  0.39050000  1.0 0.1295368359
H  H197  1  0.47070000  0.88090000  0.40000000  1.0 0.1096431863
H  H198  1  0.56000000  0.97180000  0.39550000  1.0 0.1096431863
H  H199  1  0.71540000  0.81550000  0.37980000  1.0 0.1197836912
H  H200  1  0.62220000  0.72330000  0.38160000  1.0 0.1096431863
H  H201  1  0.34770000  0.26060000  0.37910000  1.0 0.1096431863
H  H202  1  0.42760000  0.19590000  0.40660000  1.0 0.1398124277
H  H203  1  0.35310000  0.31610000  0.46530000  1.0 0.1398124277
H  H204  1  0.29090000  0.39160000  0.43790000  1.0 0.1197836912
H  H205  1  0.43340000  0.18010000  0.47010000  1.0 0.1197836912
H  H206  1  0.49470000  0.18190000  0.44700000  1.0 0.1197836912
H  H207  1  0.53820000  0.22800000  0.48580000  1.0 0.0900465819
H  H208  1  0.47560000  0.29240000  0.48500000  1.0 0.0900465819
H  H209  1  0.59090000  0.33650000  0.47160000  1.0 0.1197836912
H  H210  1  0.52920000  0.34510000  0.44880000  1.0 0.1197836912
H  H211  1  0.58810000  0.32310000  0.40710000  1.0 0.1521397411
H  H212  1  0.65600000  0.25590000  0.37950000  1.0 0.1096431863
H  H213  1  0.73570000  0.13510000  0.43860000  1.0 0.1096431863
H  H214  1  0.66380000  0.20830000  0.46850000  1.0 0.1398124277
H  H215  1  0.50200000  0.61300000  0.12890000  1.0 0.1096431863
H  H216  1  0.42220000  0.67780000  0.15620000  1.0 0.1398124277
H  H217  1  0.55140000  0.61190000  0.21810000  1.0 0.1295368359
H  H218  1  0.61770000  0.53390000  0.19020000  1.0 0.1197836912
H  H219  1  0.42060000  0.67110000  0.22420000  1.0 0.1197836912
H  H220  1  0.40340000  0.73440000  0.20240000  1.0 0.1197836912
H  H221  1  0.53470000  0.72890000  0.23560000  1.0 0.0815788957
H  H222  1  0.46900000  0.78950000  0.23810000  1.0 0.0815788957
H  H223  1  0.57540000  0.84620000  0.21910000  1.0 0.1197836912
H  H224  1  0.57800000  0.78430000  0.19620000  1.0 0.1096431863
H  H225  1  0.55300000  0.83310000  0.15510000  1.0 0.1197836912
H  H226  1  0.49770000  0.92480000  0.13080000  1.0 0.1096431863
H  H227  1  0.35880000  0.97620000  0.18760000  1.0 0.1197836912
H  H228  1  0.41240000  0.89570000  0.21530000  1.0 0.1295368359
H  H229  1  0.50790000  0.45930000  0.91280000  1.0 0.1295368359
H  H230  1  0.57320000  0.44920000  0.95280000  1.0 0.1197836912
H  H231  1  0.43110000  0.61400000  0.98220000  1.0 0.1096431863
H  H232  1  0.37110000  0.61260000  0.94420000  1.0 0.1096431863
H  H233  1  0.64360000  0.48230000  0.99060000  1.0 0.1197836912
H  H234  1  0.69490000  0.47110000  0.03220000  1.0 0.1295368359
H  H235  1  0.49940000  0.52380000  0.06300000  1.0 0.1197836912
H  H236  1  0.44360000  0.52730000  0.02320000  1.0 0.1197836912
H  H237  1  0.27890000  0.53170000  0.77910000  1.0 0.1197836912
H  H238  1  0.26540000  0.58260000  0.73810000  1.0 0.1197836912
H  H239  1  0.21650000  0.78430000  0.76960000  1.0 0.1096431863
H  H240  1  0.24350000  0.73520000  0.81160000  1.0 0.1197836912
H  H241  1  0.30660000  0.66290000  0.70460000  1.0 0.1197836912
H  H242  1  0.29720000  0.72720000  0.66440000  1.0 0.1295368359
H  H243  1  0.14160000  0.86460000  0.69480000  1.0 0.1197836912
H  H244  1  0.14710000  0.79480000  0.73620000  1.0 0.1017419767
H  H245  1  0.21240000  0.97200000  0.53090000  1.0 0.1197836912
H  H246  1  0.16290000  0.99010000  0.48800000  1.0 0.1096431863
H  H247  1  0.95660000  0.00870000  0.52130000  1.0 0.1096431863
H  H248  1  0.00990000  0.99160000  0.56360000  1.0 0.1197836912
H  H249  1  0.08950000  0.95570000  0.44900000  1.0 0.1197836912
H  H250  1  0.02470000  0.97480000  0.41090000  1.0 0.1295368359
H  H251  1  0.88550000  0.11560000  0.44920000  1.0 0.1197836912
H  H252  1  0.93670000  0.09520000  0.48720000  1.0 0.1096431863
H  H253  1  0.71790000  0.94800000  0.78170000  1.0 0.1096431863
H  H254  1  0.73960000  0.89750000  0.73760000  1.0 0.1096431863
H  H255  1  0.76900000  0.68980000  0.77260000  1.0 0.1096431863
H  H256  1  0.73800000  0.73950000  0.81380000  1.0 0.1197836912
H  H257  1  0.70190000  0.81880000  0.70410000  1.0 0.1197836912
H  H258  1  0.72500000  0.75930000  0.66330000  1.0 0.1197836912
H  H259  1  0.86020000  0.60900000  0.70040000  1.0 0.1017419767
H  H260  1  0.84200000  0.68550000  0.74050000  1.0 0.1096431863
H  H261  1  0.56490000  0.44480000  0.62630000  1.0 0.1197836912
H  H262  1  0.47000000  0.35650000  0.63570000  1.0 0.1096431863
H  H263  1  0.62560000  0.20250000  0.65340000  1.0 0.1197836912
H  H264  1  0.71980000  0.29220000  0.64700000  1.0 0.1096431863
H  H265  1  0.39380000  0.27690000  0.65180000  1.0 0.1197836912
H  H266  1  0.29630000  0.18810000  0.64570000  1.0 0.1017419767
H  H267  1  0.45140000  0.03350000  0.62990000  1.0 0.1295368359
H  H268  1  0.54850000  0.11890000  0.63480000  1.0 0.1096431863
H  H269  1  0.19930000  0.29100000  0.87590000  1.0 0.1197836912
H  H270  1  0.10850000  0.20020000  0.88270000  1.0 0.1096431863
H  H271  1  0.95590000  0.36070000  0.89900000  1.0 0.1197836912
H  H272  1  0.04110000  0.44520000  0.89050000  1.0 0.1197836912
H  H273  1  0.02930000  0.11910000  0.90000000  1.0 0.1096431863
H  H274  1  0.94000000  0.02820000  0.89550000  1.0 0.1096431863
H  H275  1  0.78460000  0.18450000  0.87980000  1.0 0.1197836912
H  H276  1  0.87780000  0.27670000  0.88160000  1.0 0.1096431863
H  H277  1  0.15230000  0.73940000  0.87910000  1.0 0.1096431863
H  H278  1  0.07240000  0.80410000  0.90660000  1.0 0.1398124277
H  H279  1  0.14690000  0.68390000  0.96530000  1.0 0.1398124277
H  H280  1  0.20910000  0.60840000  0.93790000  1.0 0.1197836912
H  H281  1  0.06660000  0.81990000  0.97010000  1.0 0.1197836912
H  H282  1  0.00530000  0.81810000  0.94700000  1.0 0.1197836912
H  H283  1  0.96180000  0.77200000  0.98580000  1.0 0.0900465819
H  H284  1  0.02440000  0.70760000  0.98500000  1.0 0.0900465819
H  H285  1  0.90910000  0.66350000  0.97160000  1.0 0.1197836912
H  H286  1  0.97080000  0.65490000  0.94880000  1.0 0.1197836912
H  H287  1  0.91190000  0.67690000  0.90710000  1.0 0.1521397411
H  H288  1  0.84400000  0.74410000  0.87950000  1.0 0.1096431863
H  H289  1  0.76430000  0.86490000  0.93860000  1.0 0.1096431863
H  H290  1  0.83620000  0.79170000  0.96850000  1.0 0.1398124277
H  H291  1  0.99800000  0.38700000  0.62890000  1.0 0.1096431863
H  H292  1  0.07780000  0.32220000  0.65620000  1.0 0.1398124277
H  H293  1  0.94860000  0.38810000  0.71810000  1.0 0.1295368359
H  H294  1  0.88230000  0.46610000  0.69020000  1.0 0.1197836912
H  H295  1  0.07940000  0.32890000  0.72420000  1.0 0.1197836912
H  H296  1  0.09660000  0.26560000  0.70240000  1.0 0.1197836912
H  H297  1  0.96530000  0.27110000  0.73560000  1.0 0.0815788957
H  H298  1  0.03100000  0.21050000  0.73810000  1.0 0.0815788957
H  H299  1  0.92460000  0.15380000  0.71910000  1.0 0.1197836912
H  H300  1  0.92200000  0.21570000  0.69620000  1.0 0.1096431863
H  H301  1  0.94700000  0.16690000  0.65510000  1.0 0.1197836912
H  H302  1  0.00230000  0.07520000  0.63080000  1.0 0.1096431863
H  H303  1  0.14120000  0.02380000  0.68760000  1.0 0.1197836912
H  H304  1  0.08760000  0.10430000  0.71530000  1.0 0.1295368359
C  C1  1  0.88310000  0.96590000  0.09870000  1.0 0.6105118448
C  C2  1  0.93170000  0.96940000  0.07480000  1.0 -0.0457260244
C  C3  1  0.99110000  0.01270000  0.07230000  1.0 -0.0829443649
C  C4  1  0.03030000  0.01900000  0.04840000  1.0 -0.1663089658
C  C5  1  0.00600000  0.97760000  0.02550000  1.0 0.0815788957
C  C6  1  0.94490000  0.92150000  0.03100000  1.0 -0.1386874703
C  C7  1  0.91170000  0.92140000  0.05330000  1.0 -0.0914808833
C  C8  1  0.04020000  0.98580000  0.99890000  1.0 0.0580619836
C  C9  1  0.11270000  0.00740000  0.99450000  1.0 -0.1663089658
C  C10  1  0.14360000  0.01490000  0.96950000  1.0 -0.0994341592
C  C11  1  0.10410000  0.00320000  0.94870000  1.0 -0.010226112
C  C12  1  0.02920000  0.98540000  0.95230000  1.0 -0.1181678475
C  C13  1  0.99640000  0.98020000  0.97560000  1.0 -0.1507787281
C  C14  1  0.13690000  0.01780000  0.92070000  1.0 0.5821482991
C  C15  1  0.76550000  0.90300000  0.17240000  1.0 0.5994422987
C  C16  1  0.75690000  0.87260000  0.20030000  1.0 -0.0282215727
C  C17  1  0.76660000  0.91660000  0.22260000  1.0 -0.0914808833
C  C18  1  0.75850000  0.88570000  0.24700000  1.0 -0.1507787281
C  C19  1  0.74150000  0.81370000  0.25140000  1.0 0.0815788957
C  C20  1  0.73150000  0.76670000  0.22840000  1.0 -0.1663089658
C  C21  1  0.74390000  0.79680000  0.20340000  1.0 -0.0994341592
C  C22  1  0.72840000  0.77300000  0.27820000  1.0 0.069070952
C  C23  1  0.77260000  0.79640000  0.29760000  1.0 -0.1386874703
C  C24  1  0.76630000  0.75790000  0.32120000  1.0 -0.0994341592
C  C25  1  0.71680000  0.69860000  0.32490000  1.0 -0.0386309362
C  C26  1  0.67430000  0.67740000  0.30360000  1.0 -0.0994341592
C  C27  1  0.67790000  0.71740000  0.27860000  1.0 -0.1507787281
C  C28  1  0.71560000  0.65230000  0.34960000  1.0 0.5994422987
C  C29  1  0.65170000  0.53500000  0.42270000  1.0 0.5821482991
C  C30  1  0.61650000  0.52160000  0.45010000  1.0 -0.010226112
C  C31  1  0.65980000  0.52070000  0.47120000  1.0 -0.0994341592
C  C32  1  0.63100000  0.50930000  0.49690000  1.0 -0.1507787281
C  C33  1  0.55380000  0.49690000  0.49920000  1.0 0.0580619836
C  C34  1  0.50940000  0.49810000  0.47690000  1.0 -0.1596528954
C  C35  1  0.54050000  0.50930000  0.45180000  1.0 -0.1094285847
C  C36  1  0.52370000  0.48300000  0.52440000  1.0 0.069070952
C  C37  1  0.54560000  0.51380000  0.55040000  1.0 -0.1507787281
C  C38  1  0.50840000  0.50220000  0.57310000  1.0 -0.0994341592
C  C39  1  0.44600000  0.45600000  0.57280000  1.0 -0.0282215727
C  C40  1  0.42550000  0.41980000  0.54990000  1.0 -0.0829443649
C  C41  1  0.45600000  0.43030000  0.52790000  1.0 -0.1331600294
C  C42  1  0.39950000  0.44860000  0.59870000  1.0 0.5994422987
C  C43  1  0.22250000  0.61710000  0.17130000  1.0 0.5994422987
C  C44  1  0.23460000  0.65430000  0.19890000  1.0 -0.0282215727
C  C45  1  0.22920000  0.60360000  0.22090000  1.0 -0.0994341592
C  C46  1  0.24160000  0.63360000  0.24710000  1.0 -0.189845071
C  C47  1  0.25690000  0.71180000  0.24910000  1.0 0.069070952
C  C48  1  0.25770000  0.75820000  0.22580000  1.0 -0.189845071
C  C49  1  0.24260000  0.72870000  0.20120000  1.0 -0.0914808833
C  C50  1  0.27650000  0.74790000  0.27530000  1.0 0.0815788957
C  C51  1  0.23600000  0.72220000  0.29720000  1.0 -0.1596528954
C  C52  1  0.24810000  0.75950000  0.32110000  1.0 -0.0829443649
C  C53  1  0.29340000  0.82390000  0.32280000  1.0 -0.0653717377
C  C54  1  0.32920000  0.84740000  0.29980000  1.0 -0.0994341592
C  C55  1  0.31680000  0.80100000  0.27540000  1.0 -0.1181678475
C  C56  1  0.30220000  0.86800000  0.34710000  1.0 0.5994422987
C  C57  1  0.20920000  0.06210000  0.36770000  1.0 0.5821482991
C  C58  1  0.15220000  0.12160000  0.36450000  1.0 -0.0386309362
C  C59  1  0.07830000  0.10440000  0.36810000  1.0 -0.0914808833
C  C60  1  0.02150000  0.15770000  0.36360000  1.0 -0.1331600294
C  C61  1  0.04150000  0.23090000  0.35830000  1.0 0.0815788957
C  C62  1  0.11310000  0.24870000  0.35280000  1.0 -0.1386874703
C  C63  1  0.16890000  0.19450000  0.35630000  1.0 -0.0994341592
C  C64  1  0.97940000  0.28930000  0.35810000  1.0 0.0900465819
C  C65  1  0.90620000  0.27260000  0.35380000  1.0 -0.1507787281
C  C66  1  0.84750000  0.32480000  0.35720000  1.0 -0.1094285847
C  C67  1  0.86940000  0.39730000  0.36510000  1.0 -0.010226112
C  C68  1  0.93930000  0.41540000  0.36660000  1.0 -0.0829443649
C  C69  1  0.99760000  0.36530000  0.36360000  1.0 -0.1386874703
C  C70  1  0.80570000  0.45270000  0.37020000  1.0 0.6105118448
C  C71  1  0.68770000  0.06260000  0.11980000  1.0 0.6105118448
C  C72  1  0.62890000  0.12020000  0.11490000  1.0 -0.0386309362
C  C73  1  0.64960000  0.19550000  0.11910000  1.0 -0.0994341592
C  C74  1  0.59470000  0.24840000  0.11570000  1.0 -0.1386874703
C  C75  1  0.52090000  0.23210000  0.11000000  1.0 0.0815788957
C  C76  1  0.50480000  0.15470000  0.10630000  1.0 -0.1181678475
C  C77  1  0.55590000  0.10610000  0.11010000  1.0 -0.0914808833
C  C78  1  0.46200000  0.29060000  0.10970000  1.0 0.0815788957
C  C79  1  0.47940000  0.36720000  0.10470000  1.0 -0.1386874703
C  C80  1  0.42590000  0.42070000  0.10670000  1.0 -0.1094285847
C  C81  1  0.35110000  0.40420000  0.11190000  1.0 -0.0282215727
C  C82  1  0.33480000  0.32980000  0.11630000  1.0 -0.0829443649
C  C83  1  0.39120000  0.27420000  0.11510000  1.0 -0.1386874703
C  C84  1  0.29640000  0.46590000  0.11750000  1.0 0.6168121948
C  C85  1  0.64740000  0.77690000  0.10310000  1.0 0.1017419767
C  C86  1  0.60070000  0.73660000  0.08640000  1.0 -0.2511915401
C  C87  1  0.59400000  0.75400000  0.05980000  1.0 0.1697089702
C  C88  1  0.64110000  0.80720000  0.05310000  1.0 -0.2026264899
C  C89  1  0.68180000  0.85030000  0.06910000  1.0 0.0304720496
C  C90  1  0.53810000  0.71390000  0.04180000  1.0 -0.2433352704
C  C91  1  0.49190000  0.76020000  0.02620000  1.0 -0.1507787281
C  C92  1  0.44090000  0.80820000  0.04100000  1.0 -0.2433352704
C  C93  1  0.39130000  0.76630000  0.05960000  1.0 0.1582993074
C  C94  1  0.38430000  0.78180000  0.08600000  1.0 -0.2256997465
C  C95  1  0.34200000  0.74330000  0.10220000  1.0 0.0900465819
C  C96  1  0.29590000  0.67390000  0.06800000  1.0 0.0495657452
C  C97  1  0.34110000  0.71570000  0.05000000  1.0 -0.2026264899
C  C98  1  0.49080000  0.10980000  0.35250000  1.0 0.0900465819
C  C99  1  0.53520000  0.15270000  0.33670000  1.0 -0.2115992279
C  C100  1  0.51750000  0.15980000  0.30910000  1.0 0.1774768337
C  C101  1  0.46050000  0.11200000  0.30030000  1.0 -0.189845071
C  C102  1  0.42100000  0.06510000  0.31670000  1.0 0.0495657452
C  C103  1  0.55600000  0.20490000  0.28900000  1.0 -0.2574976132
C  C104  1  0.50150000  0.25930000  0.27470000  1.0 -0.1386874703
C  C105  1  0.45620000  0.31420000  0.29250000  1.0 -0.2574976132
C  C106  1  0.50220000  0.36390000  0.30980000  1.0 0.1697089702
C  C107  1  0.48390000  0.36540000  0.33740000  1.0 -0.223479788
C  C108  1  0.52250000  0.41600000  0.35210000  1.0 0.0304720496
C  C109  1  0.60120000  0.44660000  0.31930000  1.0 0.0247778512
C  C110  1  0.56770000  0.40190000  0.30200000  1.0 -0.2026264899
C  C111  1  0.61690000  0.03410000  0.59870000  1.0 0.6105118448
C  C112  1  0.56830000  0.03060000  0.57480000  1.0 -0.0457260244
C  C113  1  0.50890000  0.98730000  0.57230000  1.0 -0.0829443649
C  C114  1  0.46970000  0.98100000  0.54840000  1.0 -0.1663089658
C  C115  1  0.49400000  0.02240000  0.52550000  1.0 0.0815788957
C  C116  1  0.55510000  0.07850000  0.53100000  1.0 -0.1386874703
C  C117  1  0.58830000  0.07860000  0.55330000  1.0 -0.0914808833
C  C118  1  0.45980000  0.01420000  0.49890000  1.0 0.0580619836
C  C119  1  0.38730000  0.99260000  0.49450000  1.0 -0.1663089658
C  C120  1  0.35640000  0.98510000  0.46950000  1.0 -0.0994341592
C  C121  1  0.39590000  0.99680000  0.44870000  1.0 -0.010226112
C  C122  1  0.47080000  0.01460000  0.45230000  1.0 -0.1181678475
C  C123  1  0.50360000  0.01980000  0.47560000  1.0 -0.1507787281
C  C124  1  0.36310000  0.98220000  0.42070000  1.0 0.5821482991
C  C125  1  0.73450000  0.09700000  0.67240000  1.0 0.5994422987
C  C126  1  0.74310000  0.12740000  0.70030000  1.0 -0.0282215727
C  C127  1  0.73340000  0.08340000  0.72260000  1.0 -0.0914808833
C  C128  1  0.74150000  0.11430000  0.74700000  1.0 -0.1507787281
C  C129  1  0.75850000  0.18630000  0.75140000  1.0 0.0815788957
C  C130  1  0.76850000  0.23330000  0.72840000  1.0 -0.1663089658
C  C131  1  0.75610000  0.20320000  0.70340000  1.0 -0.0994341592
C  C132  1  0.77160000  0.22700000  0.77820000  1.0 0.069070952
C  C133  1  0.72740000  0.20360000  0.79760000  1.0 -0.1331600294
C  C134  1  0.73370000  0.24210000  0.82120000  1.0 -0.0994341592
C  C135  1  0.78320000  0.30140000  0.82490000  1.0 -0.0386309362
C  C136  1  0.82570000  0.32260000  0.80360000  1.0 -0.0994341592
C  C137  1  0.82210000  0.28260000  0.77860000  1.0 -0.1507787281
C  C138  1  0.78440000  0.34770000  0.84960000  1.0 0.5994422987
C  C139  1  0.84830000  0.46500000  0.92270000  1.0 0.5821482991
C  C140  1  0.88350000  0.47840000  0.95010000  1.0 -0.010226112
C  C141  1  0.84020000  0.47930000  0.97120000  1.0 -0.0994341592
C  C142  1  0.86900000  0.49070000  0.99690000  1.0 -0.1507787281
C  C143  1  0.94620000  0.50310000  0.99920000  1.0 0.0580619836
C  C144  1  0.99060000  0.50190000  0.97690000  1.0 -0.1596528954
C  C145  1  0.95950000  0.49070000  0.95180000  1.0 -0.1094285847
C  C146  1  0.97630000  0.51700000  0.02440000  1.0 0.069070952
C  C147  1  0.95440000  0.48620000  0.05040000  1.0 -0.1507787281
C  C148  1  0.99160000  0.49780000  0.07310000  1.0 -0.0994341592
C  C149  1  0.05400000  0.54400000  0.07280000  1.0 -0.0282215727
C  C150  1  0.07450000  0.58020000  0.04990000  1.0 -0.0829443649
C  C151  1  0.04400000  0.56970000  0.02790000  1.0 -0.1331600294
C  C152  1  0.10050000  0.55140000  0.09870000  1.0 0.5994422987
C  C153  1  0.27750000  0.38290000  0.67130000  1.0 0.5994422987
C  C154  1  0.26540000  0.34570000  0.69890000  1.0 -0.0282215727
C  C155  1  0.27080000  0.39640000  0.72090000  1.0 -0.0994341592
C  C156  1  0.25840000  0.36640000  0.74710000  1.0 -0.189845071
C  C157  1  0.24310000  0.28820000  0.74910000  1.0 0.069070952
C  C158  1  0.24230000  0.24180000  0.72580000  1.0 -0.189845071
C  C159  1  0.25740000  0.27130000  0.70120000  1.0 -0.0914808833
C  C160  1  0.22350000  0.25210000  0.77530000  1.0 0.069070952
C  C161  1  0.26400000  0.27780000  0.79720000  1.0 -0.1663089658
C  C162  1  0.25190000  0.24050000  0.82110000  1.0 -0.0829443649
C  C163  1  0.20660000  0.17610000  0.82280000  1.0 -0.0644249179
C  C164  1  0.17080000  0.15260000  0.79980000  1.0 -0.0994341592
C  C165  1  0.18320000  0.19900000  0.77540000  1.0 -0.1181678475
C  C166  1  0.19780000  0.13200000  0.84710000  1.0 0.5994422987
C  C167  1  0.29080000  0.93790000  0.86770000  1.0 0.5821482991
C  C168  1  0.34780000  0.87840000  0.86450000  1.0 -0.0386309362
C  C169  1  0.42170000  0.89560000  0.86810000  1.0 -0.0914808833
C  C170  1  0.47850000  0.84230000  0.86360000  1.0 -0.1331600294
C  C171  1  0.45850000  0.76910000  0.85830000  1.0 0.0815788957
C  C172  1  0.38690000  0.75130000  0.85280000  1.0 -0.1386874703
C  C173  1  0.33110000  0.80550000  0.85630000  1.0 -0.0994341592
C  C174  1  0.52060000  0.71070000  0.85810000  1.0 0.0900465819
C  C175  1  0.59380000  0.72740000  0.85380000  1.0 -0.1507787281
C  C176  1  0.65250000  0.67520000  0.85720000  1.0 -0.1094285847
C  C177  1  0.63060000  0.60270000  0.86510000  1.0 -0.010226112
C  C178  1  0.56070000  0.58460000  0.86660000  1.0 -0.0829443649
C  C179  1  0.50240000  0.63470000  0.86360000  1.0 -0.1386874703
C  C180  1  0.69430000  0.54730000  0.87020000  1.0 0.6105118448
C  C181  1  0.81230000  0.93740000  0.61980000  1.0 0.6105118448
C  C182  1  0.87110000  0.87980000  0.61490000  1.0 -0.0386309362
C  C183  1  0.85040000  0.80450000  0.61910000  1.0 -0.0994341592
C  C184  1  0.90530000  0.75160000  0.61570000  1.0 -0.1386874703
C  C185  1  0.97910000  0.76790000  0.61000000  1.0 0.0815788957
C  C186  1  0.99520000  0.84530000  0.60630000  1.0 -0.1181678475
C  C187  1  0.94410000  0.89390000  0.61010000  1.0 -0.0914808833
C  C188  1  0.03800000  0.70940000  0.60970000  1.0 0.0815788957
C  C189  1  0.02060000  0.63280000  0.60470000  1.0 -0.1386874703
C  C190  1  0.07410000  0.57930000  0.60670000  1.0 -0.1094285847
C  C191  1  0.14890000  0.59580000  0.61190000  1.0 -0.0282215727
C  C192  1  0.16520000  0.67020000  0.61630000  1.0 -0.0829443649
C  C193  1  0.10880000  0.72580000  0.61510000  1.0 -0.1386874703
C  C194  1  0.20360000  0.53410000  0.61750000  1.0 0.6168121948
C  C195  1  0.85260000  0.22310000  0.60310000  1.0 0.1017419767
C  C196  1  0.89930000  0.26340000  0.58640000  1.0 -0.2511915401
C  C197  1  0.90600000  0.24600000  0.55980000  1.0 0.1697089702
C  C198  1  0.85890000  0.19280000  0.55310000  1.0 -0.2026264899
C  C199  1  0.81820000  0.14970000  0.56910000  1.0 0.0304720496
C  C200  1  0.96190000  0.28610000  0.54180000  1.0 -0.2433352704
C  C201  1  0.00810000  0.23980000  0.52620000  1.0 -0.1507787281
C  C202  1  0.05910000  0.19180000  0.54100000  1.0 -0.2433352704
C  C203  1  0.10870000  0.23370000  0.55960000  1.0 0.1582993074
C  C204  1  0.11570000  0.21820000  0.58600000  1.0 -0.2256997465
C  C205  1  0.15800000  0.25670000  0.60220000  1.0 0.0900465819
C  C206  1  0.20410000  0.32610000  0.56800000  1.0 0.0495657452
C  C207  1  0.15890000  0.28430000  0.55000000  1.0 -0.2026264899
C  C208  1  0.00920000  0.89020000  0.85250000  1.0 0.0900465819
C  C209  1  0.96480000  0.84730000  0.83670000  1.0 -0.2115992279
C  C210  1  0.98250000  0.84020000  0.80910000  1.0 0.1774768337
C  C211  1  0.03950000  0.88800000  0.80030000  1.0 -0.189845071
C  C212  1  0.07900000  0.93490000  0.81670000  1.0 0.0495657452
C  C213  1  0.94400000  0.79510000  0.78900000  1.0 -0.2574976132
C  C214  1  0.99850000  0.74070000  0.77470000  1.0 -0.1386874703
C  C215  1  0.04380000  0.68580000  0.79250000  1.0 -0.2574976132
C  C216  1  0.99780000  0.63610000  0.80980000  1.0 0.1697089702
C  C217  1  0.01610000  0.63460000  0.83740000  1.0 -0.223479788
C  C218  1  0.97750000  0.58400000  0.85210000  1.0 0.0304720496
C  C219  1  0.89880000  0.55340000  0.81930000  1.0 0.0247778512
C  C220  1  0.93230000  0.59810000  0.80200000  1.0 -0.2026264899
C  C221  1  0.11690000  0.46590000  0.40130000  1.0 0.6105118448
C  C222  1  0.06830000  0.46940000  0.42520000  1.0 -0.0457260244
C  C223  1  0.00890000  0.51270000  0.42770000  1.0 -0.0829443649
C  C224  1  0.96970000  0.51900000  0.45160000  1.0 -0.1663089658
C  C225  1  0.99400000  0.47760000  0.47450000  1.0 0.0815788957
C  C226  1  0.05510000  0.42150000  0.46900000  1.0 -0.1386874703
C  C227  1  0.08830000  0.42140000  0.44670000  1.0 -0.0914808833
C  C228  1  0.95980000  0.48580000  0.50110000  1.0 0.0580619836
C  C229  1  0.88730000  0.50740000  0.50550000  1.0 -0.1663089658
C  C230  1  0.85640000  0.51490000  0.53050000  1.0 -0.0994341592
C  C231  1  0.89590000  0.50320000  0.55130000  1.0 -0.010226112
C  C232  1  0.97080000  0.48540000  0.54770000  1.0 -0.1181678475
C  C233  1  0.00360000  0.48020000  0.52440000  1.0 -0.1507787281
C  C234  1  0.86310000  0.51780000  0.57930000  1.0 0.5821482991
C  C235  1  0.23450000  0.40300000  0.32760000  1.0 0.5994422987
C  C236  1  0.24310000  0.37260000  0.29970000  1.0 -0.0282215727
C  C237  1  0.23340000  0.41660000  0.27740000  1.0 -0.0914808833
C  C238  1  0.24150000  0.38570000  0.25300000  1.0 -0.1507787281
C  C239  1  0.25850000  0.31370000  0.24860000  1.0 0.0815788957
C  C240  1  0.26850000  0.26670000  0.27160000  1.0 -0.1663089658
C  C241  1  0.25610000  0.29680000  0.29660000  1.0 -0.0994341592
C  C242  1  0.27160000  0.27300000  0.22180000  1.0 0.069070952
C  C243  1  0.22740000  0.29640000  0.20240000  1.0 -0.1386874703
C  C244  1  0.23370000  0.25790000  0.17880000  1.0 -0.0994341592
C  C245  1  0.28320000  0.19860000  0.17510000  1.0 -0.0386309362
C  C246  1  0.32570000  0.17740000  0.19640000  1.0 -0.0994341592
C  C247  1  0.32210000  0.21740000  0.22140000  1.0 -0.1507787281
C  C248  1  0.28440000  0.15230000  0.15040000  1.0 0.5994422987
C  C249  1  0.34830000  0.03500000  0.07730000  1.0 0.5821482991
C  C250  1  0.38350000  0.02160000  0.04990000  1.0 -0.010226112
C  C251  1  0.34020000  0.02070000  0.02880000  1.0 -0.0994341592
C  C252  1  0.36900000  0.00930000  0.00310000  1.0 -0.1507787281
C  C253  1  0.44620000  0.99690000  0.00080000  1.0 0.0580619836
C  C254  1  0.49060000  0.99810000  0.02310000  1.0 -0.1596528954
C  C255  1  0.45950000  0.00930000  0.04820000  1.0 -0.1094285847
C  C256  1  0.47630000  0.98300000  0.97560000  1.0 0.069070952
C  C257  1  0.45440000  0.01380000  0.94960000  1.0 -0.1507787281
C  C258  1  0.49160000  0.00220000  0.92690000  1.0 -0.0994341592
C  C259  1  0.55400000  0.95600000  0.92720000  1.0 -0.0282215727
C  C260  1  0.57450000  0.91980000  0.95010000  1.0 -0.0829443649
C  C261  1  0.54400000  0.93030000  0.97210000  1.0 -0.1386874703
C  C262  1  0.60050000  0.94860000  0.90130000  1.0 0.5994422987
C  C263  1  0.77750000  0.11710000  0.32870000  1.0 0.5994422987
C  C264  1  0.76540000  0.15430000  0.30110000  1.0 -0.0282215727
C  C265  1  0.77080000  0.10360000  0.27910000  1.0 -0.0994341592
C  C266  1  0.75840000  0.13360000  0.25290000  1.0 -0.189845071
C  C267  1  0.74310000  0.21180000  0.25090000  1.0 0.069070952
C  C268  1  0.74230000  0.25820000  0.27420000  1.0 -0.189845071
C  C269  1  0.75740000  0.22870000  0.29880000  1.0 -0.0914808833
C  C270  1  0.72350000  0.24790000  0.22470000  1.0 0.069070952
C  C271  1  0.76400000  0.22220000  0.20280000  1.0 -0.1596528954
C  C272  1  0.75190000  0.25950000  0.17890000  1.0 -0.0829443649
C  C273  1  0.70660000  0.32390000  0.17720000  1.0 -0.0644249179
C  C274  1  0.67080000  0.34740000  0.20020000  1.0 -0.0994341592
C  C275  1  0.68320000  0.30100000  0.22460000  1.0 -0.1181678475
C  C276  1  0.69780000  0.36800000  0.15290000  1.0 0.5994422987
C  C277  1  0.79080000  0.56210000  0.13230000  1.0 0.5821482991
C  C278  1  0.84780000  0.62160000  0.13550000  1.0 -0.0386309362
C  C279  1  0.92170000  0.60440000  0.13190000  1.0 -0.0914808833
C  C280  1  0.97850000  0.65770000  0.13640000  1.0 -0.1331600294
C  C281  1  0.95850000  0.73090000  0.14170000  1.0 0.0815788957
C  C282  1  0.88690000  0.74870000  0.14720000  1.0 -0.1386874703
C  C283  1  0.83110000  0.69450000  0.14370000  1.0 -0.0994341592
C  C284  1  0.02060000  0.78930000  0.14190000  1.0 0.0900465819
C  C285  1  0.09380000  0.77260000  0.14620000  1.0 -0.1507787281
C  C286  1  0.15250000  0.82480000  0.14280000  1.0 -0.1094285847
C  C287  1  0.13060000  0.89730000  0.13490000  1.0 -0.010226112
C  C288  1  0.06070000  0.91540000  0.13340000  1.0 -0.0829443649
C  C289  1  0.00240000  0.86530000  0.13640000  1.0 -0.1386874703
C  C290  1  0.19430000  0.95270000  0.12980000  1.0 0.6105118448
C  C291  1  0.31230000  0.56260000  0.38020000  1.0 0.6105118448
C  C292  1  0.37110000  0.62020000  0.38510000  1.0 -0.0386309362
C  C293  1  0.35040000  0.69550000  0.38090000  1.0 -0.0994341592
C  C294  1  0.40530000  0.74840000  0.38430000  1.0 -0.1386874703
C  C295  1  0.47910000  0.73210000  0.39000000  1.0 0.0815788957
C  C296  1  0.49520000  0.65470000  0.39370000  1.0 -0.1181678475
C  C297  1  0.44410000  0.60610000  0.38990000  1.0 -0.0914808833
C  C298  1  0.53800000  0.79060000  0.39030000  1.0 0.0815788957
C  C299  1  0.52060000  0.86720000  0.39530000  1.0 -0.1386874703
C  C300  1  0.57410000  0.92070000  0.39330000  1.0 -0.1094285847
C  C301  1  0.64890000  0.90420000  0.38810000  1.0 -0.0282215727
C  C302  1  0.66520000  0.82980000  0.38370000  1.0 -0.0829443649
C  C303  1  0.60880000  0.77420000  0.38490000  1.0 -0.1386874703
C  C304  1  0.70360000  0.96590000  0.38250000  1.0 0.6168121948
C  C305  1  0.35260000  0.27690000  0.39690000  1.0 0.1017419767
C  C306  1  0.39930000  0.23660000  0.41360000  1.0 -0.2511915401
C  C307  1  0.40600000  0.25400000  0.44020000  1.0 0.1697089702
C  C308  1  0.35890000  0.30720000  0.44690000  1.0 -0.2026264899
C  C309  1  0.31820000  0.35030000  0.43090000  1.0 0.0304720496
C  C310  1  0.46190000  0.21390000  0.45820000  1.0 -0.2433352704
C  C311  1  0.50810000  0.26020000  0.47380000  1.0 -0.1507787281
C  C312  1  0.55910000  0.30820000  0.45900000  1.0 -0.2433352704
C  C313  1  0.60870000  0.26630000  0.44040000  1.0 0.1582993074
C  C314  1  0.61570000  0.28180000  0.41400000  1.0 -0.223479788
C  C315  1  0.65800000  0.24330000  0.39780000  1.0 0.0900465819
C  C316  1  0.70410000  0.17390000  0.43200000  1.0 0.0495657452
C  C317  1  0.65890000  0.21570000  0.45000000  1.0 -0.2026264899
C  C318  1  0.50920000  0.60980000  0.14750000  1.0 0.0900465819
C  C319  1  0.46480000  0.65270000  0.16330000  1.0 -0.2115992279
C  C320  1  0.48250000  0.65980000  0.19090000  1.0 0.1774768337
C  C321  1  0.53950000  0.61200000  0.19970000  1.0 -0.189845071
C  C322  1  0.57900000  0.56510000  0.18330000  1.0 0.0495657452
C  C323  1  0.44400000  0.70490000  0.21100000  1.0 -0.2574976132
C  C324  1  0.49850000  0.75930000  0.22530000  1.0 -0.1386874703
C  C325  1  0.54380000  0.81420000  0.20750000  1.0 -0.2574976132
C  C326  1  0.49780000  0.86390000  0.19020000  1.0 0.1697089702
C  C327  1  0.51610000  0.86540000  0.16260000  1.0 -0.223479788
C  C328  1  0.47750000  0.91600000  0.14790000  1.0 0.0304720496
C  C329  1  0.39880000  0.94660000  0.18070000  1.0 0.0247778512
C  C330  1  0.43230000  0.90190000  0.19800000  1.0 -0.2026264899
C  C331  1  0.38310000  0.53410000  0.90130000  1.0 0.6105118448
C  C332  1  0.43170000  0.53060000  0.92520000  1.0 -0.0457260244
C  C333  1  0.49110000  0.48730000  0.92770000  1.0 -0.0829443649
C  C334  1  0.53030000  0.48100000  0.95160000  1.0 -0.1663089658
C  C335  1  0.50600000  0.52240000  0.97450000  1.0 0.0815788957
C  C336  1  0.44490000  0.57850000  0.96900000  1.0 -0.1386874703
C  C337  1  0.41170000  0.57860000  0.94670000  1.0 -0.0914808833
C  C338  1  0.54020000  0.51420000  0.00110000  1.0 0.0580619836
C  C339  1  0.61270000  0.49260000  0.00550000  1.0 -0.1663089658
C  C340  1  0.64360000  0.48510000  0.03050000  1.0 -0.0994341592
C  C341  1  0.60410000  0.49680000  0.05130000  1.0 -0.010226112
C  C342  1  0.52920000  0.51460000  0.04770000  1.0 -0.1181678475
C  C343  1  0.49640000  0.51980000  0.02440000  1.0 -0.1507787281
C  C344  1  0.63690000  0.48220000  0.07930000  1.0 0.5821482991
C  C345  1  0.26550000  0.59700000  0.82760000  1.0 0.5994422987
C  C346  1  0.25690000  0.62740000  0.79970000  1.0 -0.0282215727
C  C347  1  0.26660000  0.58340000  0.77740000  1.0 -0.0914808833
C  C348  1  0.25850000  0.61430000  0.75300000  1.0 -0.1507787281
C  C349  1  0.24150000  0.68630000  0.74860000  1.0 0.0815788957
C  C350  1  0.23150000  0.73330000  0.77160000  1.0 -0.1663089658
C  C351  1  0.24390000  0.70320000  0.79660000  1.0 -0.0994341592
C  C352  1  0.22840000  0.72700000  0.72180000  1.0 0.069070952
C  C353  1  0.27260000  0.70360000  0.70240000  1.0 -0.1331600294
C  C354  1  0.26630000  0.74210000  0.67880000  1.0 -0.0994341592
C  C355  1  0.21680000  0.80140000  0.67510000  1.0 -0.0386309362
C  C356  1  0.17430000  0.82260000  0.69640000  1.0 -0.0994341592
C  C357  1  0.17790000  0.78260000  0.72140000  1.0 -0.1507787281
C  C358  1  0.21560000  0.84770000  0.65040000  1.0 0.5994422987
C  C359  1  0.15170000  0.96500000  0.57730000  1.0 0.5821482991
C  C360  1  0.11650000  0.97840000  0.54990000  1.0 -0.010226112
C  C361  1  0.15980000  0.97930000  0.52880000  1.0 -0.0994341592
C  C362  1  0.13100000  0.99070000  0.50310000  1.0 -0.1507787281
C  C363  1  0.05380000  0.00310000  0.50080000  1.0 0.0580619836
C  C364  1  0.00940000  0.00190000  0.52310000  1.0 -0.1596528954
C  C365  1  0.04050000  0.99070000  0.54820000  1.0 -0.1094285847
C  C366  1  0.02370000  0.01700000  0.47560000  1.0 0.069070952
C  C367  1  0.04560000  0.98620000  0.44960000  1.0 -0.1507787281
C  C368  1  0.00840000  0.99780000  0.42690000  1.0 -0.0994341592
C  C369  1  0.94600000  0.04400000  0.42720000  1.0 -0.0282215727
C  C370  1  0.92550000  0.08020000  0.45010000  1.0 -0.0829443649
C  C371  1  0.95600000  0.06970000  0.47210000  1.0 -0.1386874703
C  C372  1  0.89950000  0.05140000  0.40130000  1.0 0.5994422987
C  C373  1  0.72250000  0.88290000  0.82870000  1.0 0.5994422987
C  C374  1  0.73460000  0.84570000  0.80110000  1.0 -0.0282215727
C  C375  1  0.72920000  0.89640000  0.77910000  1.0 -0.0994341592
C  C376  1  0.74160000  0.86640000  0.75290000  1.0 -0.189845071
C  C377  1  0.75690000  0.78820000  0.75090000  1.0 0.069070952
C  C378  1  0.75770000  0.74180000  0.77420000  1.0 -0.189845071
C  C379  1  0.74260000  0.77130000  0.79880000  1.0 -0.0914808833
C  C380  1  0.77650000  0.75210000  0.72470000  1.0 0.0815788957
C  C381  1  0.73600000  0.77780000  0.70280000  1.0 -0.1596528954
C  C382  1  0.74810000  0.74050000  0.67890000  1.0 -0.0829443649
C  C383  1  0.79340000  0.67610000  0.67720000  1.0 -0.0644249179
C  C384  1  0.82920000  0.65260000  0.70020000  1.0 -0.0994341592
C  C385  1  0.81680000  0.69900000  0.72460000  1.0 -0.1181678475
C  C386  1  0.80220000  0.63200000  0.65290000  1.0 0.5994422987
C  C387  1  0.70920000  0.43790000  0.63230000  1.0 0.5821482991
C  C388  1  0.65220000  0.37840000  0.63550000  1.0 -0.0386309362
C  C389  1  0.57830000  0.39560000  0.63190000  1.0 -0.0914808833
C  C390  1  0.52150000  0.34230000  0.63640000  1.0 -0.1331600294
C  C391  1  0.54150000  0.26910000  0.64170000  1.0 0.0815788957
C  C392  1  0.61310000  0.25130000  0.64720000  1.0 -0.1386874703
C  C393  1  0.66890000  0.30550000  0.64370000  1.0 -0.0994341592
C  C394  1  0.47940000  0.21070000  0.64190000  1.0 0.0900465819
C  C395  1  0.40620000  0.22740000  0.64620000  1.0 -0.1507787281
C  C396  1  0.34750000  0.17520000  0.64280000  1.0 -0.1094285847
C  C397  1  0.36940000  0.10270000  0.63490000  1.0 -0.010226112
C  C398  1  0.43930000  0.08460000  0.63340000  1.0 -0.0829443649
C  C399  1  0.49760000  0.13470000  0.63640000  1.0 -0.1386874703
C  C400  1  0.30570000  0.04730000  0.62980000  1.0 0.6105118448
C  C401  1  0.18770000  0.43740000  0.88020000  1.0 0.6105118448
C  C402  1  0.12890000  0.37980000  0.88510000  1.0 -0.0386309362
C  C403  1  0.14960000  0.30450000  0.88090000  1.0 -0.0994341592
C  C404  1  0.09470000  0.25160000  0.88430000  1.0 -0.1386874703
C  C405  1  0.02090000  0.26790000  0.89000000  1.0 0.0815788957
C  C406  1  0.00480000  0.34530000  0.89370000  1.0 -0.1181678475
C  C407  1  0.05590000  0.39390000  0.88990000  1.0 -0.0914808833
C  C408  1  0.96200000  0.20940000  0.89030000  1.0 0.0815788957
C  C409  1  0.97940000  0.13280000  0.89530000  1.0 -0.1386874703
C  C410  1  0.92590000  0.07930000  0.89330000  1.0 -0.1094285847
C  C411  1  0.85110000  0.09580000  0.88810000  1.0 -0.0282215727
C  C412  1  0.83480000  0.17020000  0.88370000  1.0 -0.0829443649
C  C413  1  0.89120000  0.22580000  0.88490000  1.0 -0.1386874703
C  C414  1  0.79640000  0.03410000  0.88250000  1.0 0.6168121948
C  C415  1  0.14740000  0.72310000  0.89690000  1.0 0.1017419767
C  C416  1  0.10070000  0.76340000  0.91360000  1.0 -0.2511915401
C  C417  1  0.09400000  0.74600000  0.94020000  1.0 0.1697089702
C  C418  1  0.14110000  0.69280000  0.94690000  1.0 -0.2026264899
C  C419  1  0.18180000  0.64970000  0.93090000  1.0 0.0304720496
C  C420  1  0.03810000  0.78610000  0.95820000  1.0 -0.2433352704
C  C421  1  0.99190000  0.73980000  0.97380000  1.0 -0.1507787281
C  C422  1  0.94090000  0.69180000  0.95900000  1.0 -0.2433352704
C  C423  1  0.89130000  0.73370000  0.94040000  1.0 0.1582993074
C  C424  1  0.88430000  0.71820000  0.91400000  1.0 -0.2256997465
C  C425  1  0.84200000  0.75670000  0.89780000  1.0 0.0900465819
C  C426  1  0.79590000  0.82610000  0.93200000  1.0 0.0495657452
C  C427  1  0.84110000  0.78430000  0.95000000  1.0 -0.2026264899
C  C428  1  0.99080000  0.39020000  0.64750000  1.0 0.0900465819
C  C429  1  0.03520000  0.34730000  0.66330000  1.0 -0.2115992279
C  C430  1  0.01750000  0.34020000  0.69090000  1.0 0.1774768337
C  C431  1  0.96050000  0.38800000  0.69970000  1.0 -0.189845071
C  C432  1  0.92100000  0.43490000  0.68330000  1.0 0.0495657452
C  C433  1  0.05600000  0.29510000  0.71100000  1.0 -0.2574976132
C  C434  1  0.00150000  0.24070000  0.72530000  1.0 -0.1386874703
C  C435  1  0.95620000  0.18580000  0.70750000  1.0 -0.2574976132
C  C436  1  0.00220000  0.13610000  0.69020000  1.0 0.1697089702
C  C437  1  0.98390000  0.13460000  0.66260000  1.0 -0.223479788
C  C438  1  0.02250000  0.08400000  0.64790000  1.0 0.0304720496
C  C439  1  0.10120000  0.05340000  0.68070000  1.0 0.0247778512
C  C440  1  0.06770000  0.09810000  0.69800000  1.0 -0.2026264899
N  N1  1  0.68460000  0.83520000  0.09580000  1.0 -0.2256997465
N  N2  1  0.29710000  0.68880000  0.09520000  1.0 -0.2433352704
N  N3  1  0.43800000  0.06390000  0.34350000  1.0 -0.2433352704
N  N4  1  0.58650000  0.45690000  0.34630000  1.0 -0.2974703432
N  N5  1  0.81540000  0.16480000  0.59580000  1.0 -0.2256997465
N  N6  1  0.20290000  0.31120000  0.59520000  1.0 -0.2433352704
N  N7  1  0.06200000  0.93610000  0.84350000  1.0 -0.2511915401
N  N8  1  0.91350000  0.54310000  0.84630000  1.0 -0.2974703432
N  N9  1  0.31540000  0.33520000  0.40420000  1.0 -0.2256997465
N  N10  1  0.70290000  0.18880000  0.40480000  1.0 -0.2433352704
N  N11  1  0.56200000  0.56390000  0.15650000  1.0 -0.2433352704
N  N12  1  0.41350000  0.95690000  0.15370000  1.0 -0.2974703432
N  N13  1  0.18460000  0.66480000  0.90420000  1.0 -0.2256997465
N  N14  1  0.79710000  0.81120000  0.90480000  1.0 -0.2433352704
N  N15  1  0.93800000  0.43610000  0.65650000  1.0 -0.2433352704
N  N16  1  0.08650000  0.04310000  0.65370000  1.0 -0.2974703432
O  O1  1  0.89780000  0.01130000  0.11809000  1.0 -0.6804671482
O  O2  1  0.82800000  0.91830000  0.09960000  1.0 -0.5969147579
O  O3  1  0.19470000  0.04640000  0.91870000  1.0 -0.5494348949
O  O4  1  0.09710000  0.98530000  0.90250000  1.0 -0.5676576466
O  O5  1  0.80250000  0.96430000  0.16990000  1.0 -0.6742121325
O  O6  1  0.73610000  0.86520000  0.15360000  1.0 -0.5676576466
O  O7  1  0.75500000  0.66700000  0.36801000  1.0 -0.5901002746
O  O8  1  0.66666667  0.60030000  0.34770000  1.0 -0.5608656104
O  O9  1  0.71320000  0.56070000  0.41920000  1.0 -0.5901002746
O  O10  1  0.61200000  0.50750000  0.40400000  1.0 -0.5494348949
O  O11  1  0.41690000  0.48790000  0.61790000  1.0 -0.6210040794
O  O12  1  0.34550000  0.40190000  0.59760000  1.0 -0.5901002746
O  O13  1  0.18790000  0.55300000  0.17030000  1.0 -0.7014744774
O  O14  1  0.24640000  0.65480000  0.15200000  1.0 -0.5608656104
O  O15  1  0.26070000  0.85130000  0.36645000  1.0 -0.6476370738
O  O16  1  0.34730000  0.92120000  0.34677000  1.0 -0.5608656104
O  O17  1  0.19290000  0.00240000  0.37720000  1.0 -0.5901002746
O  O18  1  0.27450000  0.08100000  0.36400000  1.0 -0.5243310378
O  O19  1  0.73950000  0.43380000  0.36580000  1.0 -0.5494348949
O  O20  1  0.82870000  0.51890000  0.37810000  1.0 -0.7014744774
O  O21  1  0.75200000  0.07670000  0.12770000  1.0 -0.6375748113
O  O22  1  0.66666667  0.99380000  0.11510000  1.0 -0.5832512966
O  O23  1  0.31350000  0.53470000  0.11260000  1.0 -0.5832512966
O  O24  1  0.23320000  0.44300000  0.12730000  1.0 -0.6932651595
O  O25  1  0.60220000  0.98870000  0.61809000  1.0 -0.6804671482
O  O26  1  0.67200000  0.08170000  0.59960000  1.0 -0.5969147579
O  O27  1  0.30530000  0.95360000  0.41870000  1.0 -0.5494348949
O  O28  1  0.40290000  0.01470000  0.40250000  1.0 -0.5676576466
O  O29  1  0.69750000  0.03570000  0.66990000  1.0 -0.6742121325
O  O30  1  0.76390000  0.13480000  0.65360000  1.0 -0.5676576466
O  O31  1  0.74500000  0.33300000  0.86801000  1.0 -0.5832512966
O  O32  1  0.83340000  0.39970000  0.84770000  1.0 -0.5608656104
O  O33  1  0.78680000  0.43930000  0.91920000  1.0 -0.5901002746
O  O34  1  0.88800000  0.49250000  0.90400000  1.0 -0.5494348949
O  O35  1  0.08310000  0.51210000  0.11790000  1.0 -0.6210040794
O  O36  1  0.15450000  0.59810000  0.09760000  1.0 -0.5901002746
O  O37  1  0.31210000  0.44700000  0.67030000  1.0 -0.7014744774
O  O38  1  0.25360000  0.34520000  0.65200000  1.0 -0.5608656104
O  O39  1  0.23930000  0.14870000  0.86645000  1.0 -0.6476370738
O  O40  1  0.15270000  0.07880000  0.84677000  1.0 -0.5608656104
O  O41  1  0.30710000  0.99760000  0.87720000  1.0 -0.5901002746
O  O42  1  0.22550000  0.91900000  0.86400000  1.0 -0.5243310378
O  O43  1  0.76050000  0.56620000  0.86580000  1.0 -0.5494348949
O  O44  1  0.67130000  0.48110000  0.87810000  1.0 -0.7014744774
O  O45  1  0.74800000  0.92330000  0.62770000  1.0 -0.6375748113
O  O46  1  0.83340000  0.00620000  0.61510000  1.0 -0.5832512966
O  O47  1  0.18650000  0.46530000  0.61260000  1.0 -0.5832512966
O  O48  1  0.26680000  0.55700000  0.62730000  1.0 -0.6932651595
O  O49  1  0.10220000  0.51130000  0.38191000  1.0 -0.6804671482
O  O50  1  0.17200000  0.41830000  0.40040000  1.0 -0.5969147579
O  O51  1  0.80530000  0.54640000  0.58130000  1.0 -0.5494348949
O  O52  1  0.90290000  0.48530000  0.59750000  1.0 -0.5676576466
O  O53  1  0.19750000  0.46430000  0.33010000  1.0 -0.6742121325
O  O54  1  0.26390000  0.36520000  0.34640000  1.0 -0.5676576466
O  O55  1  0.24500000  0.16700000  0.13199000  1.0 -0.5832512966
O  O56  1  0.33340000  0.10030000  0.15230000  1.0 -0.5608656104
O  O57  1  0.28680000  0.06070000  0.08080000  1.0 -0.5901002746
O  O58  1  0.38800000  0.00750000  0.09600000  1.0 -0.5494348949
O  O59  1  0.58310000  0.98790000  0.88210000  1.0 -0.6210040794
O  O60  1  0.65450000  0.90190000  0.90240000  1.0 -0.5901002746
O  O61  1  0.81210000  0.05300000  0.32970000  1.0 -0.7014744774
O  O62  1  0.75360000  0.15480000  0.34800000  1.0 -0.5608656104
O  O63  1  0.73930000  0.35130000  0.13355000  1.0 -0.6476370738
O  O64  1  0.65270000  0.42120000  0.15323000  1.0 -0.5608656104
O  O65  1  0.80710000  0.50240000  0.12280000  1.0 -0.5901002746
O  O66  1  0.72550000  0.58100000  0.13600000  1.0 -0.5243310378
O  O67  1  0.26050000  0.93380000  0.13420000  1.0 -0.5494348949
O  O68  1  0.17130000  0.01890000  0.12190000  1.0 -0.7014744774
O  O69  1  0.24800000  0.57670000  0.37230000  1.0 -0.6375748113
O  O70  1  0.33340000  0.49380000  0.38490000  1.0 -0.5832512966
O  O71  1  0.68650000  0.03470000  0.38740000  1.0 -0.5832512966
O  O72  1  0.76680000  0.94300000  0.37270000  1.0 -0.6932651595
O  O73  1  0.39780000  0.48870000  0.88191000  1.0 -0.6804671482
O  O74  1  0.32800000  0.58170000  0.90040000  1.0 -0.5969147579
O  O75  1  0.69470000  0.45360000  0.08130000  1.0 -0.5494348949
O  O76  1  0.59710000  0.51470000  0.09750000  1.0 -0.5676576466
O  O77  1  0.30250000  0.53570000  0.83010000  1.0 -0.6742121325
O  O78  1  0.23610000  0.63480000  0.84640000  1.0 -0.5676576466
O  O79  1  0.25500000  0.83300000  0.63199000  1.0 -0.5832512966
O  O80  1  0.16660000  0.89970000  0.65230000  1.0 -0.5608656104
O  O81  1  0.21320000  0.93930000  0.58080000  1.0 -0.5901002746
O  O82  1  0.11200000  0.99250000  0.59600000  1.0 -0.5494348949
O  O83  1  0.91690000  0.01210000  0.38210000  1.0 -0.6210040794
O  O84  1  0.84550000  0.09810000  0.40240000  1.0 -0.5901002746
O  O85  1  0.68790000  0.94700000  0.82970000  1.0 -0.7014744774
O  O86  1  0.74640000  0.84520000  0.84800000  1.0 -0.5608656104
O  O87  1  0.76070000  0.64870000  0.63355000  1.0 -0.6476370738
O  O88  1  0.84730000  0.57880000  0.65323000  1.0 -0.5608656104
O  O89  1  0.69290000  0.49760000  0.62280000  1.0 -0.5901002746
O  O90  1  0.77450000  0.41900000  0.63600000  1.0 -0.5243310378
O  O91  1  0.23950000  0.06620000  0.63420000  1.0 -0.5494348949
O  O92  1  0.32870000  0.98110000  0.62190000  1.0 -0.7014744774
O  O93  1  0.25200000  0.42330000  0.87230000  1.0 -0.6375748113
O  O94  1  0.16660000  0.50620000  0.88490000  1.0 -0.5832512966
O  O95  1  0.81350000  0.96530000  0.88740000  1.0 -0.5832512966
O  O96  1  0.73320000  0.05700000  0.87270000  1.0 -0.6932651595
