# DDEC6 charges by PACMAN v1.1 (https://github.com/mtap-research/PACMAN-charge/)
data_RIGVOU_ASR_pacman
_symmetry_space_group_name_H-M   'P 1'
_cell_length_a   7.57210000
_cell_length_b   15.59500000
_cell_length_c   16.70630000
_cell_angle_alpha   90.00000000
_cell_angle_beta   94.43300000
_cell_angle_gamma   90.00000000
_symmetry_Int_Tables_number   1
_chemical_formula_structural   Eu2H6C12N4O11
_chemical_formula_sum   'Eu8 H24 C48 N16 O44'
_cell_volume   1966.89335482
_cell_formula_units_Z   4
loop_
 _symmetry_equiv_pos_site_id
 _symmetry_equiv_pos_as_xyz
  1  'x, y, z'
loop_
 _atom_site_type_symbol
 _atom_site_label
 _atom_site_symmetry_multiplicity
 _atom_site_fract_x
 _atom_site_fract_y
 _atom_site_fract_z
 _atom_site_occupancy
 _atom_site_charge
Eu  Eu1  1  0.62611000  0.89774000  0.54005000  1.0 2.012003472
Eu  Eu2  1  0.37389000  0.39774000  0.95995000  1.0 2.012003472
Eu  Eu3  1  0.37389000  0.10226000  0.45995000  1.0 2.012003472
Eu  Eu4  1  0.62611000  0.60226000  0.04005000  1.0 2.012003472
Eu  Eu5  1  0.86652000  0.05051000  0.40566000  1.0 2.0689353849
Eu  Eu6  1  0.13348000  0.55051000  0.09434000  1.0 2.0689353849
Eu  Eu7  1  0.13348000  0.94949000  0.59434000  1.0 2.0689353849
Eu  Eu8  1  0.86652000  0.44949000  0.90566000  1.0 2.0689353849
H  H1  1  0.23980000  0.69310000  0.32890000  1.0 0.152833905
H  H2  1  0.76020000  0.19310000  0.17110000  1.0 0.152833905
H  H3  1  0.76020000  0.30690000  0.67110000  1.0 0.152833905
H  H4  1  0.23980000  0.80690000  0.82890000  1.0 0.152833905
H  H5  1  0.80950000  0.75460000  0.40680000  1.0 0.1136373635
H  H6  1  0.19050000  0.25460000  0.09320000  1.0 0.1136373635
H  H7  1  0.19050000  0.24540000  0.59320000  1.0 0.1136373635
H  H8  1  0.80950000  0.74540000  0.90680000  1.0 0.1136373635
H  H9  1  0.17290000  0.82720000  0.20740000  1.0 0.152833905
H  H10  1  0.82710000  0.32720000  0.29260000  1.0 0.152833905
H  H11  1  0.82710000  0.17280000  0.79260000  1.0 0.152833905
H  H12  1  0.17290000  0.67280000  0.70740000  1.0 0.152833905
H  H13  1  0.63590000  0.93070000  0.25400000  1.0 0.115482455
H  H14  1  0.36410000  0.43070000  0.24600000  1.0 0.115482455
H  H15  1  0.36410000  0.06930000  0.74600000  1.0 0.115482455
H  H16  1  0.63590000  0.56930000  0.75400000  1.0 0.115482455
H  H17  1  0.92800000  0.89400000  0.46900000  1.0 0.3396809902
H  H18  1  0.07200000  0.39400000  0.03100000  1.0 0.3396809902
H  H19  1  0.07200000  0.10600000  0.53100000  1.0 0.3396809902
H  H20  1  0.92800000  0.60600000  0.96900000  1.0 0.3396809902
H  H21  1  0.54200000  0.96700000  0.39500000  1.0 0.3507985677
H  H22  1  0.45800000  0.46700000  0.10500000  1.0 0.3507985677
H  H23  1  0.45800000  0.03300000  0.60500000  1.0 0.3507985677
H  H24  1  0.54200000  0.53300000  0.89500000  1.0 0.3507985677
C  C1  1  0.25840000  0.80750000  0.45060000  1.0 0.5836966689
C  C2  1  0.74160000  0.30750000  0.04940000  1.0 0.5836966689
C  C3  1  0.74160000  0.19250000  0.54940000  1.0 0.5836966689
C  C4  1  0.25840000  0.69250000  0.95060000  1.0 0.5836966689
C  C5  1  0.40010000  0.76480000  0.40530000  1.0 0.168541802
C  C6  1  0.59990000  0.26480000  0.09470000  1.0 0.168541802
C  C7  1  0.59990000  0.23520000  0.59470000  1.0 0.168541802
C  C8  1  0.40010000  0.73520000  0.90530000  1.0 0.168541802
C  C9  1  0.35640000  0.70980000  0.34220000  1.0 -0.1885534991
C  C10  1  0.64360000  0.20980000  0.15780000  1.0 -0.1885534991
C  C11  1  0.64360000  0.29020000  0.65780000  1.0 -0.1885534991
C  C12  1  0.35640000  0.79020000  0.84220000  1.0 -0.1885534991
C  C13  1  0.49480000  0.68020000  0.29920000  1.0 0.1559851169
C  C14  1  0.50520000  0.18020000  0.20080000  1.0 0.1559851169
C  C15  1  0.50520000  0.31980000  0.70080000  1.0 0.1559851169
C  C16  1  0.49480000  0.81980000  0.79920000  1.0 0.1559851169
C  C17  1  0.45530000  0.63280000  0.22100000  1.0 0.6165962722
C  C18  1  0.54470000  0.13280000  0.27900000  1.0 0.6165962722
C  C19  1  0.54470000  0.36720000  0.77900000  1.0 0.6165962722
C  C20  1  0.45530000  0.86720000  0.72100000  1.0 0.6165962722
C  C21  1  0.69220000  0.74580000  0.38780000  1.0 0.2337300088
C  C22  1  0.30780000  0.24580000  0.11220000  1.0 0.2337300088
C  C23  1  0.30780000  0.25420000  0.61220000  1.0 0.2337300088
C  C24  1  0.69220000  0.75420000  0.88780000  1.0 0.2337300088
C  C25  1  0.20040000  0.95280000  0.31970000  1.0 0.5851285364
C  C26  1  0.79960000  0.45280000  0.18030000  1.0 0.5851285364
C  C27  1  0.79960000  0.04720000  0.68030000  1.0 0.5851285364
C  C28  1  0.20040000  0.54720000  0.81970000  1.0 0.5851285364
C  C29  1  0.04260000  0.91180000  0.27340000  1.0 0.1425828542
C  C30  1  0.95740000  0.41180000  0.22660000  1.0 0.1425828542
C  C31  1  0.95740000  0.08820000  0.72660000  1.0 0.1425828542
C  C32  1  0.04260000  0.58820000  0.77340000  1.0 0.1425828542
C  C33  1  0.06190000  0.84770000  0.21820000  1.0 -0.1885534991
C  C34  1  0.93810000  0.34770000  0.28180000  1.0 -0.1885534991
C  C35  1  0.93810000  0.15230000  0.78180000  1.0 -0.1885534991
C  C36  1  0.06190000  0.65230000  0.71820000  1.0 -0.1885534991
C  C37  1  0.90810000  0.81510000  0.17970000  1.0 0.1559851169
C  C38  1  0.09190000  0.31510000  0.32030000  1.0 0.1559851169
C  C39  1  0.09190000  0.18490000  0.82030000  1.0 0.1559851169
C  C40  1  0.90810000  0.68490000  0.67970000  1.0 0.1559851169
C  C41  1  0.91030000  0.73900000  0.12310000  1.0 0.5485483612
C  C42  1  0.08970000  0.23900000  0.37690000  1.0 0.5485483612
C  C43  1  0.08970000  0.26100000  0.87690000  1.0 0.5485483612
C  C44  1  0.91030000  0.76100000  0.62310000  1.0 0.5485483612
C  C45  1  0.74660000  0.90790000  0.24570000  1.0 0.2415102701
C  C46  1  0.25340000  0.40790000  0.25430000  1.0 0.2415102701
C  C47  1  0.25340000  0.09210000  0.75430000  1.0 0.2415102701
C  C48  1  0.74660000  0.59210000  0.74570000  1.0 0.2415102701
N  N1  1  0.56760000  0.78460000  0.42820000  1.0 -0.4256187473
N  N2  1  0.43240000  0.28460000  0.07180000  1.0 -0.4256187473
N  N3  1  0.43240000  0.21540000  0.57180000  1.0 -0.4256187473
N  N4  1  0.56760000  0.71540000  0.92820000  1.0 -0.4256187473
N  N5  1  0.66410000  0.69660000  0.32370000  1.0 -0.2627901231
N  N6  1  0.33590000  0.19660000  0.17630000  1.0 -0.2627901231
N  N7  1  0.33590000  0.30340000  0.67630000  1.0 -0.2627901231
N  N8  1  0.66410000  0.80340000  0.82370000  1.0 -0.2627901231
N  N9  1  0.88370000  0.94100000  0.28990000  1.0 -0.40004077
N  N10  1  0.11630000  0.44100000  0.21010000  1.0 -0.40004077
N  N11  1  0.11630000  0.05900000  0.71010000  1.0 -0.40004077
N  N12  1  0.88370000  0.55900000  0.78990000  1.0 -0.40004077
N  N13  1  0.74960000  0.84680000  0.19150000  1.0 -0.2787322496
N  N14  1  0.25040000  0.34680000  0.30850000  1.0 -0.2787322496
N  N15  1  0.25040000  0.15320000  0.80850000  1.0 -0.2787322496
N  N16  1  0.74960000  0.65320000  0.69150000  1.0 -0.2787322496
O  O1  1  0.31310000  0.85940000  0.50650000  1.0 -0.7322290633
O  O2  1  0.68690000  0.35940000  0.99350000  1.0 -0.7322290633
O  O3  1  0.68690000  0.14060000  0.49350000  1.0 -0.7322290633
O  O4  1  0.31310000  0.64060000  0.00650000  1.0 -0.7322290633
O  O5  1  0.10240000  0.79290000  0.42880000  1.0 -0.48127825
O  O6  1  0.89760000  0.29290000  0.07120000  1.0 -0.48127825
O  O7  1  0.89760000  0.20710000  0.57120000  1.0 -0.48127825
O  O8  1  0.10240000  0.70710000  0.92880000  1.0 -0.48127825
O  O9  1  0.31100000  0.59570000  0.21100000  1.0 -0.6275642906
O  O10  1  0.68900000  0.09570000  0.28900000  1.0 -0.6275642906
O  O11  1  0.68900000  0.40430000  0.78900000  1.0 -0.6275642906
O  O12  1  0.31100000  0.90430000  0.71100000  1.0 -0.6275642906
O  O13  1  0.57160000  0.63740000  0.17180000  1.0 -0.6567676757
O  O14  1  0.42840000  0.13740000  0.32820000  1.0 -0.6567676757
O  O15  1  0.42840000  0.36260000  0.82820000  1.0 -0.6567676757
O  O16  1  0.57160000  0.86260000  0.67180000  1.0 -0.6567676757
O  O17  1  0.16480000  0.00860000  0.37300000  1.0 -0.7639381979
O  O18  1  0.83520000  0.50860000  0.12700000  1.0 -0.7639381979
O  O19  1  0.83520000  0.99140000  0.62700000  1.0 -0.7639381979
O  O20  1  0.16480000  0.49140000  0.87300000  1.0 -0.7639381979
O  O21  1  0.34980000  0.92900000  0.30630000  1.0 -0.4930130039
O  O22  1  0.65020000  0.42900000  0.19370000  1.0 -0.4930130039
O  O23  1  0.65020000  0.07100000  0.69370000  1.0 -0.4930130039
O  O24  1  0.34980000  0.57100000  0.80630000  1.0 -0.4930130039
O  O25  1  0.04220000  0.68930000  0.13330000  1.0 -0.6275642906
O  O26  1  0.95780000  0.18930000  0.36670000  1.0 -0.6275642906
O  O27  1  0.95780000  0.31070000  0.86670000  1.0 -0.6275642906
O  O28  1  0.04220000  0.81070000  0.63330000  1.0 -0.6275642906
O  O29  1  0.78320000  0.72950000  0.07270000  1.0 -0.2198664416
O  O30  1  0.21680000  0.22950000  0.42730000  1.0 -0.2198664416
O  O31  1  0.21680000  0.27050000  0.92730000  1.0 -0.2198664416
O  O32  1  0.78320000  0.77050000  0.57270000  1.0 -0.2198664416
O  O33  1  0.90760000  0.92450000  0.48700000  1.0 -0.9779413436
O  O34  1  0.09240000  0.42450000  0.01300000  1.0 -0.9779413436
O  O35  1  0.09240000  0.07550000  0.51300000  1.0 -0.9779413436
O  O36  1  0.90760000  0.57550000  0.98700000  1.0 -0.9779413436
O  O37  1  0.58000000  0.99100000  0.42750000  1.0 -1.0329351519
O  O38  1  0.42000000  0.49100000  0.07250000  1.0 -1.0354614351
O  O39  1  0.42000000  0.00900000  0.57250000  1.0 -1.0354614351
O  O40  1  0.58000000  0.50900000  0.92750000  1.0 -1.0329351519
O  O41  1  0.72000000  0.80000000  0.02000000  1.0 -0.379861312
O  O42  1  0.28000000  0.30000000  0.48000000  1.0 -0.379861312
O  O43  1  0.28000000  0.20000000  0.98000000  1.0 -0.379861312
O  O44  1  0.72000000  0.70000000  0.52000000  1.0 -0.379861312
