# DDEC6 charges by PACMAN v1.1 (https://github.com/mtap-research/PACMAN-charge/)
data_RIGZEQ_ASR_pacman
_symmetry_space_group_name_H-M   'P 1'
_cell_length_a   17.79190000
_cell_length_b   17.79190000
_cell_length_c   14.11770000
_cell_angle_alpha   85.02850000
_cell_angle_beta   94.97150000
_cell_angle_gamma   42.62850000
_symmetry_Int_Tables_number   1
_chemical_formula_structural   NiH10C18(N3O2)2
_chemical_formula_sum   'Ni4 H40 C72 N24 O16'
_cell_volume   2939.30516673
_cell_formula_units_Z   4
loop_
 _symmetry_equiv_pos_site_id
 _symmetry_equiv_pos_as_xyz
  1  'x, y, z'
loop_
 _atom_site_type_symbol
 _atom_site_label
 _atom_site_symmetry_multiplicity
 _atom_site_fract_x
 _atom_site_fract_y
 _atom_site_fract_z
 _atom_site_occupancy
 _atom_site_charge
Ni  Ni1  1  0.00000000  0.50000000  0.00000000  1.0 0.5851374004
Ni  Ni2  1  0.50000000  0.00000000  0.50000000  1.0 0.5823781226
Ni  Ni3  1  0.96089000  0.96089000  0.75000000  1.0 0.7408607636
Ni  Ni4  1  0.03911000  0.03911000  0.25000000  1.0 0.7408607636
H  H1  1  0.04230000  0.82910000  0.57390000  1.0 0.1483953666
H  H2  1  0.82910000  0.04230000  0.92610000  1.0 0.1483953666
H  H3  1  0.95770000  0.17090000  0.42610000  1.0 0.1483953666
H  H4  1  0.17090000  0.95770000  0.07390000  1.0 0.1483953666
H  H5  1  0.09600000  0.77960000  0.30890000  1.0 0.1297032782
H  H6  1  0.77960000  0.09600000  0.19110000  1.0 0.1297032782
H  H7  1  0.90400000  0.22040000  0.69110000  1.0 0.1297032782
H  H8  1  0.22040000  0.90400000  0.80890000  1.0 0.1297032782
H  H9  1  0.03740000  0.75940000  0.44250000  1.0 0.1394519728
H  H10  1  0.75940000  0.03740000  0.05750000  1.0 0.1394519728
H  H11  1  0.96260000  0.24060000  0.55750000  1.0 0.1394519728
H  H12  1  0.24060000  0.96260000  0.94250000  1.0 0.1394519728
H  H13  1  0.22640000  0.45540000  0.36800000  1.0 0.121809327
H  H14  1  0.45540000  0.22640000  0.13200000  1.0 0.121809327
H  H15  1  0.77360000  0.54460000  0.63200000  1.0 0.121809327
H  H16  1  0.54460000  0.77360000  0.86800000  1.0 0.121809327
H  H17  1  0.97490000  0.83250000  0.02470000  1.0 0.1112884689
H  H18  1  0.83250000  0.97490000  0.47530000  1.0 0.1112884689
H  H19  1  0.02510000  0.16750000  0.97530000  1.0 0.1112884689
H  H20  1  0.16750000  0.02510000  0.52470000  1.0 0.1112884689
H  H21  1  0.21450000  0.47590000  0.65260000  1.0 0.1483953666
H  H22  1  0.47590000  0.21450000  0.84740000  1.0 0.1483953666
H  H23  1  0.78550000  0.52410000  0.34740000  1.0 0.1483953666
H  H24  1  0.52410000  0.78550000  0.15260000  1.0 0.1483953666
H  H25  1  0.07000000  0.58540000  0.22790000  1.0 0.121809327
H  H26  1  0.58540000  0.07000000  0.27210000  1.0 0.121809327
H  H27  1  0.93000000  0.41460000  0.77210000  1.0 0.121809327
H  H28  1  0.41460000  0.93000000  0.72790000  1.0 0.121809327
H  H29  1  0.32870000  0.27150000  0.41970000  1.0 0.1394519728
H  H30  1  0.27150000  0.32870000  0.08030000  1.0 0.1394519728
H  H31  1  0.67130000  0.72850000  0.58030000  1.0 0.1394519728
H  H32  1  0.72850000  0.67130000  0.91970000  1.0 0.1394519728
H  H33  1  0.00580000  0.74780000  0.81900000  1.0 0.1297032782
H  H34  1  0.74780000  0.00580000  0.68100000  1.0 0.1297032782
H  H35  1  0.99420000  0.25220000  0.18100000  1.0 0.1297032782
H  H36  1  0.25220000  0.99420000  0.31900000  1.0 0.1297032782
H  H37  1  0.46460000  0.11040000  0.68750000  1.0 0.1297032782
H  H38  1  0.11040000  0.46460000  0.81250000  1.0 0.1297032782
H  H39  1  0.53540000  0.88960000  0.31250000  1.0 0.1297032782
H  H40  1  0.88960000  0.53540000  0.18750000  1.0 0.1297032782
C  C1  1  0.04274000  0.79076000  0.62567000  1.0 0.1297032782
C  C2  1  0.79076000  0.04274000  0.87433000  1.0 0.121809327
C  C3  1  0.95726000  0.20924000  0.37433000  1.0 0.121809327
C  C4  1  0.20924000  0.95726000  0.12567000  1.0 0.121809327
C  C5  1  0.01502000  0.91744000  0.14233000  1.0 0.5608020458
C  C6  1  0.91744000  0.01502000  0.35767000  1.0 0.5608020458
C  C7  1  0.98498000  0.08256000  0.85767000  1.0 0.5608020458
C  C8  1  0.08256000  0.98498000  0.64233000  1.0 0.5608020458
C  C9  1  0.07554000  0.76064000  0.25989000  1.0 -0.142672595
C  C10  1  0.76064000  0.07554000  0.24011000  1.0 -0.142672595
C  C11  1  0.92446000  0.23936000  0.74011000  1.0 -0.142672595
C  C12  1  0.23936000  0.92446000  0.75989000  1.0 -0.142672595
C  C13  1  0.12642000  0.61602000  0.38862000  1.0 0.1297032782
C  C14  1  0.61602000  0.12642000  0.11138000  1.0 0.1297032782
C  C15  1  0.87358000  0.38398000  0.61138000  1.0 0.1297032782
C  C16  1  0.38398000  0.87358000  0.88862000  1.0 0.1297032782
C  C17  1  0.08812000  0.67392000  0.28535000  1.0 0.0619093157
C  C18  1  0.67392000  0.08812000  0.21465000  1.0 0.0619093157
C  C19  1  0.91188000  0.32608000  0.71465000  1.0 0.0619093157
C  C20  1  0.32608000  0.91188000  0.78535000  1.0 0.0619093157
C  C21  1  0.03340000  0.81952000  0.16365000  1.0 -0.0041783979
C  C22  1  0.81952000  0.03340000  0.33635000  1.0 -0.0041783979
C  C23  1  0.96660000  0.18048000  0.83635000  1.0 -0.0041783979
C  C24  1  0.18048000  0.96660000  0.66365000  1.0 -0.0041783979
C  C25  1  0.12003000  0.62663000  0.55672000  1.0 0.1764642592
C  C26  1  0.62663000  0.12003000  0.94328000  1.0 0.1764642592
C  C27  1  0.87997000  0.37337000  0.44328000  1.0 0.1764642592
C  C28  1  0.37337000  0.87997000  0.05672000  1.0 0.1764642592
C  C29  1  0.08669000  0.68009000  0.45999000  1.0 -0.2167735551
C  C30  1  0.68009000  0.08669000  0.04001000  1.0 -0.2167735551
C  C31  1  0.91331000  0.31991000  0.54001000  1.0 -0.2167735551
C  C32  1  0.31991000  0.91331000  0.95999000  1.0 -0.2167735551
C  C33  1  0.19937000  0.49977000  0.41594000  1.0 -0.2588602122
C  C34  1  0.49977000  0.19937000  0.08406000  1.0 -0.2588602122
C  C35  1  0.80063000  0.50023000  0.58406000  1.0 -0.2588602122
C  C36  1  0.50023000  0.80063000  0.91594000  1.0 -0.2588602122
C  C37  1  0.23236000  0.44896000  0.51334000  1.0 0.1689418588
C  C38  1  0.44896000  0.23236000  0.98666000  1.0 0.1689418588
C  C39  1  0.76764000  0.55104000  0.48666000  1.0 0.1689418588
C  C40  1  0.55104000  0.76764000  0.01334000  1.0 0.1689418588
C  C41  1  0.00422000  0.79182000  0.09054000  1.0 -0.1308733713
C  C42  1  0.79182000  0.00422000  0.40946000  1.0 -0.1308733713
C  C43  1  0.99578000  0.20818000  0.90946000  1.0 -0.1308733713
C  C44  1  0.20818000  0.99578000  0.59054000  1.0 -0.1308733713
C  C45  1  0.19271000  0.51111000  0.58609000  1.0 -0.2420532074
C  C46  1  0.51111000  0.19271000  0.91391000  1.0 -0.2420532074
C  C47  1  0.80729000  0.48889000  0.41391000  1.0 -0.2420532074
C  C48  1  0.48889000  0.80729000  0.08609000  1.0 -0.2420532074
C  C49  1  0.06033000  0.64533000  0.21171000  1.0 -0.1638183597
C  C50  1  0.64533000  0.06033000  0.28829000  1.0 -0.1638183597
C  C51  1  0.93967000  0.35467000  0.78829000  1.0 -0.1638183597
C  C52  1  0.35467000  0.93967000  0.71171000  1.0 -0.1638183597
C  C53  1  0.99091000  0.66871000  0.03850000  1.0 0.5660018955
C  C54  1  0.66871000  0.99091000  0.46150000  1.0 0.5660018955
C  C55  1  0.00909000  0.33129000  0.96150000  1.0 0.5660018955
C  C56  1  0.33129000  0.00909000  0.53850000  1.0 0.5660018955
C  C57  1  0.34854000  0.25374000  0.48894000  1.0 0.0972148866
C  C58  1  0.25374000  0.34854000  0.01106000  1.0 0.0972148866
C  C59  1  0.65146000  0.74626000  0.51106000  1.0 0.0972148866
C  C60  1  0.74626000  0.65146000  0.98894000  1.0 0.0972148866
C  C61  1  0.01907000  0.70327000  0.11557000  1.0 -0.0041783979
C  C62  1  0.70327000  0.01907000  0.38443000  1.0 -0.0041783979
C  C63  1  0.98093000  0.29673000  0.88443000  1.0 -0.0041783979
C  C64  1  0.29673000  0.98093000  0.61557000  1.0 -0.0041783979
C  C65  1  0.02396000  0.74476000  0.75704000  1.0 0.1630286782
C  C66  1  0.74476000  0.02396000  0.74296000  1.0 0.1630286782
C  C67  1  0.97604000  0.25524000  0.24296000  1.0 0.1630286782
C  C68  1  0.25524000  0.97604000  0.25704000  1.0 0.1630286782
C  C69  1  0.42100000  0.16980000  0.63060000  1.0 0.1689418588
C  C70  1  0.16980000  0.42100000  0.86940000  1.0 0.1630286782
C  C71  1  0.57900000  0.83020000  0.36940000  1.0 0.1689418588
C  C72  1  0.83020000  0.57900000  0.13060000  1.0 0.1630286782
N  N1  1  0.00931000  0.82509000  0.70704000  1.0 -0.3102400716
N  N2  1  0.82509000  0.00931000  0.79296000  1.0 -0.3102400716
N  N3  1  0.99069000  0.17491000  0.29296000  1.0 -0.3102400716
N  N4  1  0.17491000  0.99069000  0.20704000  1.0 -0.3102400716
N  N5  1  0.07723000  0.69379000  0.62786000  1.0 0.1297032782
N  N6  1  0.69379000  0.07723000  0.87214000  1.0 0.1297032782
N  N7  1  0.92277000  0.30621000  0.37214000  1.0 0.1297032782
N  N8  1  0.30621000  0.92277000  0.12786000  1.0 0.1297032782
N  N9  1  0.41790000  0.15152000  0.54273000  1.0 -0.2714254972
N  N10  1  0.15152000  0.41790000  0.95727000  1.0 -0.2714254972
N  N11  1  0.58210000  0.84848000  0.45727000  1.0 -0.2714254972
N  N12  1  0.84848000  0.58210000  0.04273000  1.0 -0.2714254972
N  N13  1  0.30931000  0.32937000  0.54153000  1.0 0.121809327
N  N14  1  0.32937000  0.30931000  0.95847000  1.0 0.121809327
N  N15  1  0.69069000  0.67063000  0.45847000  1.0 0.121809327
N  N16  1  0.67063000  0.69069000  0.04153000  1.0 0.121809327
N  N17  1  0.06491000  0.66331000  0.71290000  1.0 -0.2420532074
N  N18  1  0.66331000  0.06491000  0.78710000  1.0 -0.2420532074
N  N19  1  0.93509000  0.33669000  0.28710000  1.0 -0.2420532074
N  N20  1  0.33669000  0.93509000  0.21290000  1.0 -0.2420532074
N  N21  1  0.36047000  0.27427000  0.63490000  1.0 -0.2167735551
N  N22  1  0.27427000  0.36047000  0.86510000  1.0 -0.2167735551
N  N23  1  0.63953000  0.72573000  0.36510000  1.0 -0.2167735551
N  N24  1  0.72573000  0.63953000  0.13490000  1.0 -0.2167735551
O  O1  1  0.93724000  0.99884000  0.07183000  1.0 -0.5532924499
O  O2  1  0.99884000  0.93724000  0.42817000  1.0 -0.5532924499
O  O3  1  0.06276000  0.00116000  0.92817000  1.0 -0.5532924499
O  O4  1  0.00116000  0.06276000  0.57183000  1.0 -0.5532924499
O  O5  1  0.00663000  0.58879000  0.07095000  1.0 -0.5788863715
O  O6  1  0.58879000  0.00663000  0.42905000  1.0 -0.5788863715
O  O7  1  0.99337000  0.41121000  0.92905000  1.0 -0.5788863715
O  O8  1  0.41121000  0.99337000  0.57095000  1.0 -0.5788863715
O  O9  1  0.07970000  0.90962000  0.20128000  1.0 -0.5414049592
O  O10  1  0.90962000  0.07970000  0.29872000  1.0 -0.5414049592
O  O11  1  0.92030000  0.09038000  0.79872000  1.0 -0.5414049592
O  O12  1  0.09038000  0.92030000  0.70128000  1.0 -0.5414049592
O  O13  1  0.95475000  0.71945000  0.95157000  1.0 -0.5698835965
O  O14  1  0.71945000  0.95475000  0.54843000  1.0 -0.5698835965
O  O15  1  0.04525000  0.28055000  0.04843000  1.0 -0.5698835965
O  O16  1  0.28055000  0.04525000  0.45157000  1.0 -0.5698835965
