# DDEC6 charges by PACMAN v1.1 (https://github.com/mtap-research/PACMAN-charge/)
data_RIPKIM_ASR_pacman
_symmetry_space_group_name_H-M   'P 1'
_cell_length_a   15.76580000
_cell_length_b   15.76580000
_cell_length_c   8.53950000
_cell_angle_alpha   88.49220000
_cell_angle_beta   91.50780000
_cell_angle_gamma   130.55900000
_symmetry_Int_Tables_number   1
_chemical_formula_structural   CuH13C12(NO2)2
_chemical_formula_sum   'Cu4 H52 C48 N8 O16'
_cell_volume   1611.92688881
_cell_formula_units_Z   4
loop_
 _symmetry_equiv_pos_site_id
 _symmetry_equiv_pos_as_xyz
  1  'x, y, z'
loop_
 _atom_site_type_symbol
 _atom_site_label
 _atom_site_symmetry_multiplicity
 _atom_site_fract_x
 _atom_site_fract_y
 _atom_site_fract_z
 _atom_site_occupancy
 _atom_site_charge
Cu  Cu1  1  0.91726000  0.49344000  0.54748000  1.0 0.7497928643
Cu  Cu2  1  0.49344000  0.91726000  0.95252000  1.0 0.7497928643
Cu  Cu3  1  0.08274000  0.50656000  0.45252000  1.0 0.7497928643
Cu  Cu4  1  0.50656000  0.08274000  0.04748000  1.0 0.7497928643
H  H1  1  0.66680000  0.31340000  0.60860000  1.0 0.1157182062
H  H2  1  0.31340000  0.66680000  0.89140000  1.0 0.1157182062
H  H3  1  0.33320000  0.68660000  0.39140000  1.0 0.1157182062
H  H4  1  0.68660000  0.33320000  0.10860000  1.0 0.1157182062
H  H5  1  0.52230000  0.28230000  0.73610000  1.0 0.1383174494
H  H6  1  0.28230000  0.52230000  0.76390000  1.0 0.1383174494
H  H7  1  0.47770000  0.71770000  0.26390000  1.0 0.1383174494
H  H8  1  0.71770000  0.47770000  0.23610000  1.0 0.1383174494
H  H9  1  0.73330000  0.60110000  0.86820000  1.0 0.1383174494
H  H10  1  0.60110000  0.73330000  0.63180000  1.0 0.1383174494
H  H11  1  0.26670000  0.39890000  0.13180000  1.0 0.1383174494
H  H12  1  0.39890000  0.26670000  0.36820000  1.0 0.1344908976
H  H13  1  0.87250000  0.62210000  0.74310000  1.0 0.1157182062
H  H14  1  0.62210000  0.87250000  0.75690000  1.0 0.1157182062
H  H15  1  0.12750000  0.37790000  0.25690000  1.0 0.1157182062
H  H16  1  0.37790000  0.12750000  0.24310000  1.0 0.1157182062
H  H17  1  0.35370000  0.30990000  0.94820000  1.0 0.1477274604
H  H18  1  0.30990000  0.35370000  0.55180000  1.0 0.1477274604
H  H19  1  0.64630000  0.69010000  0.05180000  1.0 0.1477274604
H  H20  1  0.69010000  0.64630000  0.44820000  1.0 0.1477274604
H  H21  1  0.38070000  0.28950000  0.78510000  1.0 0.1477274604
H  H22  1  0.28950000  0.38070000  0.71490000  1.0 0.1477274604
H  H23  1  0.61930000  0.71050000  0.21490000  1.0 0.1477274604
H  H24  1  0.71050000  0.61930000  0.28510000  1.0 0.1477274604
H  H25  1  0.40940000  0.25640000  0.93950000  1.0 0.1477274604
H  H26  1  0.25640000  0.40940000  0.56050000  1.0 0.1477274604
H  H27  1  0.59060000  0.74360000  0.06050000  1.0 0.1477274604
H  H28  1  0.74360000  0.59060000  0.43950000  1.0 0.1477274604
H  H29  1  0.05530000  0.36250000  0.91470000  1.0 0.1344908976
H  H30  1  0.36250000  0.05530000  0.58530000  1.0 0.1344908976
H  H31  1  0.94470000  0.63750000  0.08530000  1.0 0.1344908976
H  H32  1  0.63750000  0.94470000  0.41470000  1.0 0.1344908976
H  H33  1  0.07090000  0.45930000  0.99850000  1.0 0.1383174494
H  H34  1  0.45930000  0.07090000  0.50150000  1.0 0.1383174494
H  H35  1  0.92910000  0.54070000  0.00150000  1.0 0.1383174494
H  H36  1  0.54070000  0.92910000  0.49850000  1.0 0.1383174494
H  H37  1  0.87710000  0.35090000  0.01180000  1.0 0.1022421771
H  H38  1  0.35090000  0.87710000  0.48820000  1.0 0.1022421771
H  H39  1  0.12290000  0.64910000  0.98820000  1.0 0.1022421771
H  H40  1  0.64910000  0.12290000  0.51180000  1.0 0.1022421771
H  H41  1  0.90980000  0.28480000  0.09170000  1.0 0.0924698681
H  H42  1  0.28480000  0.90980000  0.40830000  1.0 0.0924698681
H  H43  1  0.09020000  0.71520000  0.90830000  1.0 0.0924698681
H  H44  1  0.71520000  0.09020000  0.59170000  1.0 0.0924698681
H  H45  1  0.85360000  0.17640000  0.86880000  1.0 0.1344908976
H  H46  1  0.17640000  0.85360000  0.63120000  1.0 0.1344908976
H  H47  1  0.14640000  0.82360000  0.13120000  1.0 0.1344908976
H  H48  1  0.82360000  0.14640000  0.36880000  1.0 0.1344908976
H  H49  1  0.83020000  0.24700000  0.77840000  1.0 0.1477274604
H  H50  1  0.24700000  0.83020000  0.72160000  1.0 0.1477274604
H  H51  1  0.16980000  0.75300000  0.22160000  1.0 0.1477274604
H  H52  1  0.75300000  0.16980000  0.27840000  1.0 0.1477274604
C  C1  1  0.68014000  0.37226000  0.66070000  1.0 0.0924698681
C  C2  1  0.37226000  0.68014000  0.83930000  1.0 0.0924698681
C  C3  1  0.31986000  0.62774000  0.33930000  1.0 0.0924698681
C  C4  1  0.62774000  0.31986000  0.16070000  1.0 0.0924698681
C  C5  1  0.59267000  0.35293000  0.73700000  1.0 -0.1756195074
C  C6  1  0.35293000  0.59267000  0.76300000  1.0 -0.1756195074
C  C7  1  0.40733000  0.64707000  0.26300000  1.0 -0.1756195074
C  C8  1  0.64707000  0.40733000  0.23700000  1.0 -0.1756195074
C  C9  1  0.61028000  0.43912000  0.81480000  1.0 0.0736534761
C  C10  1  0.43912000  0.61028000  0.68520000  1.0 0.0736534761
C  C11  1  0.38972000  0.56088000  0.18520000  1.0 0.0736534761
C  C12  1  0.56088000  0.38972000  0.31480000  1.0 0.0736534761
C  C13  1  0.71737000  0.54103000  0.81590000  1.0 -0.1756195074
C  C14  1  0.54103000  0.71737000  0.68410000  1.0 -0.1756195074
C  C15  1  0.28263000  0.45897000  0.18410000  1.0 -0.1756195074
C  C16  1  0.45897000  0.28263000  0.31590000  1.0 -0.1756195074
C  C17  1  0.80045000  0.55335000  0.73900000  1.0 0.0760127583
C  C18  1  0.55335000  0.80045000  0.76100000  1.0 0.0760127583
C  C19  1  0.19955000  0.44665000  0.26100000  1.0 0.0760127583
C  C20  1  0.44665000  0.19955000  0.23900000  1.0 0.0760127583
C  C21  1  0.51716000  0.42204000  0.89680000  1.0 0.2627492899
C  C22  1  0.42204000  0.51716000  0.60320000  1.0 0.2627492899
C  C23  1  0.48284000  0.57796000  0.10320000  1.0 0.2627492899
C  C24  1  0.57796000  0.48284000  0.39680000  1.0 0.2627492899
C  C25  1  0.40543000  0.30957000  0.89200000  1.0 -0.5045766777
C  C26  1  0.30957000  0.40543000  0.60800000  1.0 -0.5045766777
C  C27  1  0.59457000  0.69043000  0.10800000  1.0 -0.5045766777
C  C28  1  0.69043000  0.59457000  0.39200000  1.0 -0.5045766777
C  C29  1  0.02444000  0.44476000  0.76820000  1.0 0.6207025403
C  C30  1  0.44476000  0.02444000  0.73180000  1.0 0.6207025403
C  C31  1  0.97556000  0.55524000  0.23180000  1.0 0.6207025403
C  C32  1  0.55524000  0.97556000  0.26820000  1.0 0.6207025403
C  C33  1  0.02389000  0.39831000  0.92560000  1.0 -0.3317293471
C  C34  1  0.39831000  0.02389000  0.57440000  1.0 -0.3317293471
C  C35  1  0.97611000  0.60169000  0.07440000  1.0 -0.3317293471
C  C36  1  0.60169000  0.97611000  0.42560000  1.0 -0.3317293471
C  C37  1  0.90616000  0.31364000  0.99240000  1.0 -0.0910738075
C  C38  1  0.31364000  0.90616000  0.50760000  1.0 -0.0910738075
C  C39  1  0.09384000  0.68636000  0.00760000  1.0 -0.0910738075
C  C40  1  0.68636000  0.09384000  0.49240000  1.0 -0.0910738075
C  C41  1  0.82686000  0.21654000  0.88040000  1.0 -0.3241274899
C  C42  1  0.21654000  0.82686000  0.61960000  1.0 -0.3241274899
C  C43  1  0.17314000  0.78346000  0.11960000  1.0 -0.3241274899
C  C44  1  0.78346000  0.17314000  0.38040000  1.0 -0.3241274899
C  C45  1  0.70556000  0.13384000  0.93040000  1.0 0.6207025403
C  C46  1  0.13384000  0.70556000  0.56960000  1.0 0.6207025403
C  C47  1  0.29444000  0.86616000  0.06960000  1.0 0.6207025403
C  C48  1  0.86616000  0.29444000  0.43040000  1.0 0.6207025403
N  N1  1  0.78257000  0.47123000  0.65840000  1.0 -0.2469740382
N  N2  1  0.47123000  0.78257000  0.84160000  1.0 -0.2469740382
N  N3  1  0.21743000  0.52877000  0.34160000  1.0 -0.2469740382
N  N4  1  0.52877000  0.21743000  0.15840000  1.0 -0.2469740382
N  N5  1  0.54447000  0.50853000  0.96310000  1.0 -0.2469740382
N  N6  1  0.50853000  0.54447000  0.53690000  1.0 -0.2469740382
N  N7  1  0.45553000  0.49147000  0.03690000  1.0 -0.2469740382
N  N8  1  0.49147000  0.45553000  0.46310000  1.0 -0.2469740382
O  O1  1  0.09251000  0.46369000  0.66710000  1.0 -0.5281385949
O  O2  1  0.46369000  0.09251000  0.83290000  1.0 -0.5281385949
O  O3  1  0.90749000  0.53631000  0.33290000  1.0 -0.5281385949
O  O4  1  0.53631000  0.90749000  0.16710000  1.0 -0.5281385949
O  O5  1  0.65475000  0.03285000  0.90980000  1.0 -0.5215737692
O  O6  1  0.03285000  0.65475000  0.59020000  1.0 -0.5215737692
O  O7  1  0.34525000  0.96715000  0.09020000  1.0 -0.5215737692
O  O8  1  0.96715000  0.34525000  0.40980000  1.0 -0.5215737692
O  O9  1  0.95640000  0.46040000  0.74730000  1.0 -0.5215737692
O  O10  1  0.46040000  0.95640000  0.75270000  1.0 -0.5215737692
O  O11  1  0.04360000  0.53960000  0.25270000  1.0 -0.5215737692
O  O12  1  0.53960000  0.04360000  0.24730000  1.0 -0.5215737692
O  O13  1  0.66461000  0.17299000  0.98610000  1.0 -0.5281385949
O  O14  1  0.17299000  0.66461000  0.51390000  1.0 -0.5281385949
O  O15  1  0.33539000  0.82701000  0.01390000  1.0 -0.5281385949
O  O16  1  0.82701000  0.33539000  0.48610000  1.0 -0.5281385949
