# DDEC6 charges by PACMAN v1.1 (https://github.com/mtap-research/PACMAN-charge/)
data_RIPTEQ_FSR_pacman
_symmetry_space_group_name_H-M   'P 1'
_cell_length_a   12.42000000
_cell_length_b   13.66600000
_cell_length_c   14.23400000
_cell_angle_alpha   96.94300000
_cell_angle_beta   114.71500000
_cell_angle_gamma   110.56800000
_symmetry_Int_Tables_number   1
_chemical_formula_structural   NaZnMo6(PO8)4
_chemical_formula_sum   'Na2 Zn2 Mo12 P8 O64'
_cell_volume   1950.26408785
_cell_formula_units_Z   2
loop_
 _symmetry_equiv_pos_site_id
 _symmetry_equiv_pos_as_xyz
  1  'x, y, z'
loop_
 _atom_site_type_symbol
 _atom_site_label
 _atom_site_symmetry_multiplicity
 _atom_site_fract_x
 _atom_site_fract_y
 _atom_site_fract_z
 _atom_site_occupancy
 _atom_site_charge
Na  Na1  1  0.00000000  0.50000000  0.00000000  1.0 1.0442249213
Na  Na2  1  0.00000000  0.00000000  0.00000000  1.0 0.923379365
Zn  Zn1  1  0.15752000  0.32103000  0.42837000  1.0 1.1894101534
Zn  Zn2  1  0.84248000  0.67897000  0.57163000  1.0 1.1894101534
Mo  Mo1  1  0.31504000  0.46533000  0.15966000  1.0 2.0220150385
Mo  Mo2  1  0.68496000  0.53467000  0.84034000  1.0 2.0220150385
Mo  Mo3  1  0.31902000  0.71535000  0.26853000  1.0 1.9710618291
Mo  Mo4  1  0.68098000  0.28465000  0.73147000  1.0 1.9812725816
Mo  Mo5  1  0.11232000  0.71400000  0.27257000  1.0 1.9812725816
Mo  Mo6  1  0.88768000  0.28600000  0.72743000  1.0 1.9710618291
Mo  Mo7  1  0.82431000  0.45828000  0.17190000  1.0 2.0103795761
Mo  Mo8  1  0.17569000  0.54172000  0.82810000  1.0 2.0103795761
Mo  Mo9  1  0.82419000  0.27440000  0.10063000  1.0 2.0103795761
Mo  Mo10  1  0.17581000  0.72560000  0.89937000  1.0 2.0103795761
Mo  Mo11  1  0.10851000  0.27985000  0.09043000  1.0 2.0103795761
Mo  Mo12  1  0.89149000  0.72015000  0.90957000  1.0 2.0103795761
P  P1  1  0.13756000  0.47321000  0.28854000  1.0 1.5219103728
P  P2  1  0.86244000  0.52679000  0.71146000  1.0 1.5219103728
P  P3  1  0.57695000  0.66462000  0.38033000  1.0 1.4676462645
P  P4  1  0.42305000  0.33538000  0.61967000  1.0 1.4676462645
P  P5  1  0.92331000  0.66445000  0.38296000  1.0 1.4676462645
P  P6  1  0.07669000  0.33555000  0.61704000  1.0 1.480986837
P  P7  1  0.97064000  0.11998000  0.20718000  1.0 1.480986837
P  P8  1  0.02936000  0.88002000  0.79282000  1.0 1.4898404513
O  O1  1  0.49390000  0.54700000  0.30250000  1.0 -0.689603226
O  O2  1  0.50610000  0.45300000  0.69750000  1.0 -0.689603226
O  O3  1  0.25080000  0.53730000  0.26800000  1.0 -0.7780134167
O  O4  1  0.74920000  0.46270000  0.73200000  1.0 -0.7780134167
O  O5  1  0.28040000  0.34580000  0.22090000  1.0 -0.7300538287
O  O6  1  0.71960000  0.65420000  0.77910000  1.0 -0.7300538287
O  O7  1  0.34320000  0.62550000  0.15270000  1.0 -0.7020255492
O  O8  1  0.65680000  0.37450000  0.84730000  1.0 -0.689603226
O  O9  1  0.13100000  0.41390000  0.05080000  1.0 -0.7959555056
O  O10  1  0.86900000  0.58610000  0.94920000  1.0 -0.7959555056
O  O11  1  0.38020000  0.43880000  0.08250000  1.0 -0.3722543683
O  O12  1  0.61980000  0.56120000  0.91750000  1.0 -0.3722543683
O  O13  1  0.49050000  0.71780000  0.38740000  1.0 -0.689603226
O  O14  1  0.50950000  0.28220000  0.61260000  1.0 -0.689603226
O  O15  1  0.28140000  0.73570000  0.38660000  1.0 -0.7300538287
O  O16  1  0.71860000  0.26430000  0.61340000  1.0 -0.7300538287
O  O17  1  0.13630000  0.65840000  0.15330000  1.0 -0.7901907679
O  O18  1  0.86370000  0.34160000  0.84670000  1.0 -0.7901907679
O  O19  1  0.39280000  0.84130000  0.26210000  1.0 -0.4302287962
O  O20  1  0.60720000  0.15870000  0.73790000  1.0 -0.4302287962
O  O21  1  0.06200000  0.71770000  0.39430000  1.0 -0.689603226
O  O22  1  0.93800000  0.28230000  0.60570000  1.0 -0.689603226
O  O23  1  0.05180000  0.53440000  0.27570000  1.0 -0.7780134167
O  O24  1  0.94820000  0.46560000  0.72430000  1.0 -0.7780134167
O  O25  1  0.90750000  0.61810000  0.16170000  1.0 -0.689603226
O  O26  1  0.09250000  0.38190000  0.83830000  1.0 -0.689603226
O  O27  1  0.12650000  0.83920000  0.26600000  1.0 -0.406120585
O  O28  1  0.87350000  0.16080000  0.73400000  1.0 -0.4035918381
O  O29  1  0.85410000  0.54080000  0.31980000  1.0 -0.689603226
O  O30  1  0.14590000  0.45920000  0.68020000  1.0 -0.689603226
O  O31  1  0.83490000  0.34120000  0.23440000  1.0 -0.7300538287
O  O32  1  0.16510000  0.65880000  0.76560000  1.0 -0.7300538287
O  O33  1  0.85880000  0.40750000  0.05850000  1.0 -0.7901907679
O  O34  1  0.14120000  0.59250000  0.94150000  1.0 -0.7901907679
O  O35  1  0.66340000  0.42940000  0.10100000  1.0 -0.381162491
O  O36  1  0.33660000  0.57060000  0.89900000  1.0 -0.3852560188
O  O37  1  0.90190000  0.23240000  0.00240000  1.0 -0.6279625561
O  O38  1  0.09810000  0.76760000  0.99760000  1.0 -0.6279625561
O  O39  1  0.86000000  0.15640000  0.16790000  1.0 -0.7020255492
O  O40  1  0.14000000  0.84360000  0.83210000  1.0 -0.7020255492
O  O41  1  0.05210000  0.35750000  0.20410000  1.0 -0.8117884066
O  O42  1  0.94790000  0.64250000  0.79590000  1.0 -0.8117884066
O  O43  1  0.66330000  0.19240000  0.01290000  1.0 -0.406120585
O  O44  1  0.33670000  0.80760000  0.98710000  1.0 -0.406120585
O  O45  1  0.04660000  0.14870000  0.14400000  1.0 -0.774664637
O  O46  1  0.95340000  0.85130000  0.85600000  1.0 -0.7780134167
O  O47  1  0.11980000  0.20260000  0.99660000  1.0 -0.4618182298
O  O48  1  0.88020000  0.79740000  0.00340000  1.0 -0.4618182298
O  O49  1  0.66430000  0.73980000  0.34240000  1.0 -0.58071534
O  O50  1  0.33570000  0.26020000  0.65760000  1.0 -0.58071534
O  O51  1  0.84470000  0.72450000  0.32510000  1.0 -0.5741222765
O  O52  1  0.15530000  0.27550000  0.67490000  1.0 -0.5741222765
O  O53  1  0.06710000  0.17770000  0.32850000  1.0 -0.689603226
O  O54  1  0.93290000  0.82230000  0.67150000  1.0 -0.689603226
O  O55  1  0.90920000  0.99650000  0.18630000  1.0 -0.58071534
O  O56  1  0.09080000  0.00350000  0.81370000  1.0 -0.58071534
O  O57  1  0.94120000  0.67630000  0.49640000  1.0 -0.689603226
O  O58  1  0.05880000  0.32370000  0.50360000  1.0 -0.689603226
O  O59  1  0.66150000  0.65990000  0.49090000  1.0 -0.6842098799
O  O60  1  0.33850000  0.34010000  0.50910000  1.0 -0.6842098799
O  O61  1  0.19510000  0.46470000  0.40350000  1.0 -0.6721995141
O  O62  1  0.80490000  0.53530000  0.59650000  1.0 -0.6721995141
O  O63  1  0.79690000  0.00330000  0.89100000  1.0 -0.0107840787
O  O64  1  0.20310000  0.99670000  0.10900000  1.0 -0.0169352036
