# DDEC6 charges by PACMAN v1.1 (https://github.com/mtap-research/PACMAN-charge/)
data_RIPTAM_FSR_pacman
_symmetry_space_group_name_H-M   'P 1'
_cell_length_a   16.20240000
_cell_length_b   9.43910000
_cell_length_c   23.98640000
_cell_angle_alpha   90.00000000
_cell_angle_beta   108.35400000
_cell_angle_gamma   90.00000000
_symmetry_Int_Tables_number   1
_chemical_formula_structural   Ca3Tb2H30C42(NO6)6
_chemical_formula_sum   'Ca6 Tb4 H60 C84 N12 O72'
_cell_volume   3481.77184432
_cell_formula_units_Z   2
loop_
 _symmetry_equiv_pos_site_id
 _symmetry_equiv_pos_as_xyz
  1  'x, y, z'
loop_
 _atom_site_type_symbol
 _atom_site_label
 _atom_site_symmetry_multiplicity
 _atom_site_fract_x
 _atom_site_fract_y
 _atom_site_fract_z
 _atom_site_occupancy
 _atom_site_charge
Ca  Ca1  1  0.50000000  0.00232000  0.75000000  1.0 1.3313477985
Ca  Ca2  1  0.50000000  0.99768000  0.25000000  1.0 1.3313477985
Ca  Ca3  1  0.50000000  0.00000000  0.00000000  1.0 1.3955317489
Ca  Ca4  1  0.50000000  0.00000000  0.50000000  1.0 1.3955317489
Ca  Ca5  1  0.00000000  0.00000000  0.00000000  1.0 1.3899067394
Ca  Ca6  1  0.00000000  0.00000000  0.50000000  1.0 1.3899067394
Tb  Tb1  1  0.70184000  0.49953000  0.90304000  1.0 1.8130548052
Tb  Tb2  1  0.29816000  0.49953000  0.59696000  1.0 1.8130548052
Tb  Tb3  1  0.29816000  0.50047000  0.09696000  1.0 1.8130548052
Tb  Tb4  1  0.70184000  0.50047000  0.40304000  1.0 1.8130548052
H  H1  1  0.90130000  0.31330000  0.11640000  1.0 0.1414900772
H  H2  1  0.09870000  0.31330000  0.38360000  1.0 0.1414900772
H  H3  1  0.09870000  0.68670000  0.88360000  1.0 0.1414900772
H  H4  1  0.90130000  0.68670000  0.61640000  1.0 0.1414900772
H  H5  1  0.01740000  0.46990000  0.13090000  1.0 0.1266284003
H  H6  1  0.98260000  0.46990000  0.36910000  1.0 0.1266284003
H  H7  1  0.98260000  0.53010000  0.86910000  1.0 0.1266284003
H  H8  1  0.01740000  0.53010000  0.63090000  1.0 0.1266284003
H  H9  1  0.01010000  0.64300000  0.06090000  1.0 0.1414900772
H  H10  1  0.98990000  0.64300000  0.43910000  1.0 0.1414900772
H  H11  1  0.98990000  0.35700000  0.93910000  1.0 0.1414900772
H  H12  1  0.01010000  0.35700000  0.56090000  1.0 0.1414900772
H  H13  1  0.86740000  0.38830000  0.74490000  1.0 0.1497592977
H  H14  1  0.13260000  0.38830000  0.75510000  1.0 0.1497592977
H  H15  1  0.13260000  0.61170000  0.25510000  1.0 0.1497592977
H  H16  1  0.86740000  0.61170000  0.24490000  1.0 0.1497592977
H  H17  1  0.80650000  0.56880000  0.67850000  1.0 0.1266284003
H  H18  1  0.19350000  0.56880000  0.82150000  1.0 0.1266284003
H  H19  1  0.19350000  0.43120000  0.32150000  1.0 0.1266284003
H  H20  1  0.80650000  0.43120000  0.17850000  1.0 0.1266284003
H  H21  1  0.70700000  0.72040000  0.69750000  1.0 0.1497592977
H  H22  1  0.29300000  0.72040000  0.80250000  1.0 0.1497592977
H  H23  1  0.29300000  0.27960000  0.30250000  1.0 0.1497592977
H  H24  1  0.70700000  0.27960000  0.19750000  1.0 0.1497592977
H  H25  1  0.41830000  0.64930000  0.96100000  1.0 0.1414900772
H  H26  1  0.58170000  0.64930000  0.53900000  1.0 0.1414900772
H  H27  1  0.58170000  0.35070000  0.03900000  1.0 0.1414900772
H  H28  1  0.41830000  0.35070000  0.46100000  1.0 0.1414900772
H  H29  1  0.32430000  0.47380000  0.90930000  1.0 0.1229348085
H  H30  1  0.67570000  0.47380000  0.59070000  1.0 0.1229348085
H  H31  1  0.67570000  0.52620000  0.09070000  1.0 0.1229348085
H  H32  1  0.32430000  0.52620000  0.40930000  1.0 0.1229348085
H  H33  1  0.37210000  0.31520000  0.85250000  1.0 0.1497592977
H  H34  1  0.62790000  0.31520000  0.64750000  1.0 0.1497592977
H  H35  1  0.62790000  0.68480000  0.14750000  1.0 0.1497592977
H  H36  1  0.37210000  0.68480000  0.35250000  1.0 0.1497592977
H  H37  1  0.65400000  0.15700000  0.81000000  1.0 0.3540645368
H  H38  1  0.34600000  0.15700000  0.69000000  1.0 0.3540645368
H  H39  1  0.34600000  0.84300000  0.19000000  1.0 0.3540645368
H  H40  1  0.65400000  0.84300000  0.31000000  1.0 0.3540645368
H  H41  1  0.68600000  0.02700000  0.80800000  1.0 0.3325228519
H  H42  1  0.31400000  0.02700000  0.69200000  1.0 0.3325228519
H  H43  1  0.31400000  0.97300000  0.19200000  1.0 0.3325228519
H  H44  1  0.68600000  0.97300000  0.30800000  1.0 0.3325228519
H  H45  1  0.61200000  0.17200000  0.95400000  1.0 0.3540645368
H  H46  1  0.38800000  0.17200000  0.54600000  1.0 0.3540645368
H  H47  1  0.38800000  0.82800000  0.04600000  1.0 0.3540645368
H  H48  1  0.61200000  0.82800000  0.45400000  1.0 0.3540645368
H  H49  1  0.60400000  0.05000000  0.92300000  1.0 0.3325228519
H  H50  1  0.39600000  0.05000000  0.57700000  1.0 0.3325228519
H  H51  1  0.39600000  0.95000000  0.07700000  1.0 0.3325228519
H  H52  1  0.60400000  0.95000000  0.42300000  1.0 0.3325228519
H  H53  1  0.82100000  0.04500000  0.96700000  1.0 0.3325228519
H  H54  1  0.17900000  0.04500000  0.53300000  1.0 0.3325228519
H  H55  1  0.17900000  0.95500000  0.03300000  1.0 0.3325228519
H  H56  1  0.82100000  0.95500000  0.46700000  1.0 0.3325228519
H  H57  1  0.83800000  0.17600000  0.95100000  1.0 0.3747951142
H  H58  1  0.16200000  0.17600000  0.54900000  1.0 0.3747951142
H  H59  1  0.16200000  0.82400000  0.04900000  1.0 0.3754364005
H  H60  1  0.83800000  0.82400000  0.45100000  1.0 0.3754364005
C  C1  1  0.75050000  0.30370000  0.02580000  1.0 0.5260672919
C  C2  1  0.24950000  0.30370000  0.47420000  1.0 0.5260672919
C  C3  1  0.24950000  0.69630000  0.97420000  1.0 0.5260672919
C  C4  1  0.75050000  0.69630000  0.52580000  1.0 0.5260672919
C  C5  1  0.82950000  0.39680000  0.03910000  1.0 0.103563543
C  C6  1  0.17050000  0.39680000  0.46090000  1.0 0.103563543
C  C7  1  0.17050000  0.60320000  0.96090000  1.0 0.103563543
C  C8  1  0.82950000  0.60320000  0.53910000  1.0 0.103563543
C  C9  1  0.90000000  0.38360000  0.08890000  1.0 -0.1321077929
C  C10  1  0.10000000  0.38360000  0.41110000  1.0 -0.1321077929
C  C11  1  0.10000000  0.61640000  0.91110000  1.0 -0.1321077929
C  C12  1  0.90000000  0.61640000  0.58890000  1.0 -0.1321077929
C  C13  1  0.96890000  0.47670000  0.09760000  1.0 -0.0242021424
C  C14  1  0.03110000  0.47670000  0.40240000  1.0 -0.0242021424
C  C15  1  0.03110000  0.52330000  0.90240000  1.0 -0.0242021424
C  C16  1  0.96890000  0.52330000  0.59760000  1.0 -0.0242021424
C  C17  1  0.96450000  0.57940000  0.05600000  1.0 -0.1205144827
C  C18  1  0.03550000  0.57940000  0.44400000  1.0 -0.1205144827
C  C19  1  0.03550000  0.42060000  0.94400000  1.0 -0.1205144827
C  C20  1  0.96450000  0.42060000  0.55600000  1.0 -0.1205144827
C  C21  1  0.89160000  0.58700000  0.00680000  1.0 0.1108564944
C  C22  1  0.10840000  0.58700000  0.49320000  1.0 0.1108564944
C  C23  1  0.10840000  0.41300000  0.99320000  1.0 0.1108564944
C  C24  1  0.89160000  0.41300000  0.50680000  1.0 0.1108564944
C  C25  1  0.88030000  0.69320000  0.95900000  1.0 0.5798236332
C  C26  1  0.11970000  0.69320000  0.54100000  1.0 0.5798236332
C  C27  1  0.11970000  0.30680000  0.04100000  1.0 0.5798236332
C  C28  1  0.88030000  0.30680000  0.45900000  1.0 0.5798236332
C  C29  1  0.83110000  0.31880000  0.84550000  1.0 0.5260672919
C  C30  1  0.16890000  0.31880000  0.65450000  1.0 0.5260672919
C  C31  1  0.16890000  0.68120000  0.15450000  1.0 0.5260672919
C  C32  1  0.83110000  0.68120000  0.34550000  1.0 0.5260672919
C  C33  1  0.79580000  0.43050000  0.79860000  1.0 0.1229348085
C  C34  1  0.20420000  0.43050000  0.70140000  1.0 0.1229348085
C  C35  1  0.20420000  0.56950000  0.20140000  1.0 0.1229348085
C  C36  1  0.79580000  0.56950000  0.29860000  1.0 0.1229348085
C  C37  1  0.82510000  0.44780000  0.75070000  1.0 -0.1321077929
C  C38  1  0.17490000  0.44780000  0.74930000  1.0 -0.1321077929
C  C39  1  0.17490000  0.55220000  0.24930000  1.0 -0.1321077929
C  C40  1  0.82510000  0.55220000  0.25070000  1.0 -0.1321077929
C  C41  1  0.78960000  0.55610000  0.71180000  1.0 -0.037075981
C  C42  1  0.21040000  0.55610000  0.78820000  1.0 -0.037075981
C  C43  1  0.21040000  0.44390000  0.28820000  1.0 -0.037075981
C  C44  1  0.78960000  0.44390000  0.21180000  1.0 -0.037075981
C  C45  1  0.72950000  0.64450000  0.72240000  1.0 -0.1205144827
C  C46  1  0.27050000  0.64450000  0.77760000  1.0 -0.1205144827
C  C47  1  0.27050000  0.35550000  0.27760000  1.0 -0.1205144827
C  C48  1  0.72950000  0.35550000  0.22240000  1.0 -0.1205144827
C  C49  1  0.70280000  0.61950000  0.77070000  1.0 0.1266284003
C  C50  1  0.29720000  0.61950000  0.72930000  1.0 0.1266284003
C  C51  1  0.29720000  0.38050000  0.22930000  1.0 0.1266284003
C  C52  1  0.70280000  0.38050000  0.27070000  1.0 0.1266284003
C  C53  1  0.63650000  0.70960000  0.78680000  1.0 0.5429631225
C  C54  1  0.36350000  0.70960000  0.71320000  1.0 0.5429631225
C  C55  1  0.36350000  0.29040000  0.21320000  1.0 0.5429631225
C  C56  1  0.63650000  0.29040000  0.28680000  1.0 0.5429631225
C  C57  1  0.58840000  0.69300000  0.96780000  1.0 0.5798236332
C  C58  1  0.41160000  0.69300000  0.53220000  1.0 0.5798236332
C  C59  1  0.41160000  0.30700000  0.03220000  1.0 0.5798236332
C  C60  1  0.58840000  0.30700000  0.46780000  1.0 0.5798236332
C  C61  1  0.52050000  0.58660000  0.93470000  1.0 0.1266284003
C  C62  1  0.47950000  0.58660000  0.56530000  1.0 0.1266284003
C  C63  1  0.47950000  0.41340000  0.06530000  1.0 0.1266284003
C  C64  1  0.52050000  0.41340000  0.43470000  1.0 0.1266284003
C  C65  1  0.43630000  0.58350000  0.93840000  1.0 -0.1321077929
C  C66  1  0.56370000  0.58350000  0.56160000  1.0 -0.1321077929
C  C67  1  0.56370000  0.41650000  0.06160000  1.0 -0.1321077929
C  C68  1  0.43630000  0.41650000  0.43840000  1.0 -0.1321077929
C  C69  1  0.38060000  0.47980000  0.90750000  1.0 -0.0280223144
C  C70  1  0.61940000  0.47980000  0.59250000  1.0 -0.0280223144
C  C71  1  0.61940000  0.52020000  0.09250000  1.0 -0.0280223144
C  C72  1  0.38060000  0.52020000  0.40750000  1.0 -0.0280223144
C  C73  1  0.40900000  0.38550000  0.87380000  1.0 -0.1205144827
C  C74  1  0.59100000  0.38550000  0.62620000  1.0 -0.1205144827
C  C75  1  0.59100000  0.61450000  0.12620000  1.0 -0.1205144827
C  C76  1  0.40900000  0.61450000  0.37380000  1.0 -0.1205144827
C  C77  1  0.49310000  0.39690000  0.87220000  1.0 0.1108564944
C  C78  1  0.50690000  0.39690000  0.62780000  1.0 0.1108564944
C  C79  1  0.50690000  0.60310000  0.12780000  1.0 0.1108564944
C  C80  1  0.49310000  0.60310000  0.37220000  1.0 0.1108564944
C  C81  1  0.53190000  0.29810000  0.83820000  1.0 0.5648372523
C  C82  1  0.46810000  0.29810000  0.66180000  1.0 0.5648372523
C  C83  1  0.46810000  0.70190000  0.16180000  1.0 0.5648372523
C  C84  1  0.53190000  0.70190000  0.33820000  1.0 0.5648372523
N  N1  1  0.82570000  0.49500000  0.99820000  1.0 -0.3402263471
N  N2  1  0.17430000  0.49500000  0.50180000  1.0 -0.3450808772
N  N3  1  0.17430000  0.50500000  0.00180000  1.0 -0.3450808772
N  N4  1  0.82570000  0.50500000  0.49820000  1.0 -0.3450808772
N  N5  1  0.73560000  0.51500000  0.80815000  1.0 -0.3402263471
N  N6  1  0.26440000  0.51500000  0.69185000  1.0 -0.3402263471
N  N7  1  0.26440000  0.48500000  0.19185000  1.0 -0.3402263471
N  N8  1  0.73560000  0.48500000  0.30815000  1.0 -0.3402263471
N  N9  1  0.54750000  0.49520000  0.90340000  1.0 -0.3402263471
N  N10  1  0.45250000  0.49520000  0.59660000  1.0 -0.3402263471
N  N11  1  0.45250000  0.50480000  0.09660000  1.0 -0.3402263471
N  N12  1  0.54750000  0.50480000  0.40340000  1.0 -0.3402263471
O  O1  1  0.69470000  0.32020000  0.97502000  1.0 -0.6156583079
O  O2  1  0.30530000  0.32020000  0.52498000  1.0 -0.6156583079
O  O3  1  0.30530000  0.67980000  0.02498000  1.0 -0.6156583079
O  O4  1  0.69470000  0.67980000  0.47502000  1.0 -0.6156583079
O  O5  1  0.74370000  0.22060000  0.06380000  1.0 -0.4369006105
O  O6  1  0.25630000  0.22060000  0.43620000  1.0 -0.4369006105
O  O7  1  0.25630000  0.77940000  0.93620000  1.0 -0.4369006105
O  O8  1  0.74370000  0.77940000  0.56380000  1.0 -0.4369006105
O  O9  1  0.81430000  0.67660000  0.91402000  1.0 -0.5788863697
O  O10  1  0.18570000  0.67660000  0.58598000  1.0 -0.5788863697
O  O11  1  0.18570000  0.32340000  0.08598000  1.0 -0.5788863697
O  O12  1  0.81430000  0.32340000  0.41402000  1.0 -0.5788863697
O  O13  1  0.93530000  0.78850000  0.96531000  1.0 -0.5788863697
O  O14  1  0.06470000  0.78850000  0.53469000  1.0 -0.5788863697
O  O15  1  0.06470000  0.21150000  0.03469000  1.0 -0.5788863697
O  O16  1  0.93530000  0.21150000  0.46531000  1.0 -0.5788863697
O  O17  1  0.80540000  0.32700000  0.89004000  1.0 -0.6061405787
O  O18  1  0.19460000  0.32700000  0.60996000  1.0 -0.6061405787
O  O19  1  0.19460000  0.67300000  0.10996000  1.0 -0.6061405787
O  O20  1  0.80540000  0.67300000  0.39004000  1.0 -0.6061405787
O  O21  1  0.88360000  0.23190000  0.83820000  1.0 -0.4218829819
O  O22  1  0.11640000  0.23190000  0.66180000  1.0 -0.4218829819
O  O23  1  0.11640000  0.76810000  0.16180000  1.0 -0.4218829819
O  O24  1  0.88360000  0.76810000  0.33820000  1.0 -0.4218829819
O  O25  1  0.59800000  0.80430000  0.75241000  1.0 -0.5371656665
O  O26  1  0.40200000  0.80430000  0.74759000  1.0 -0.5371656665
O  O27  1  0.40200000  0.19570000  0.24759000  1.0 -0.5371656665
O  O28  1  0.59800000  0.19570000  0.25241000  1.0 -0.5371656665
O  O29  1  0.62570000  0.68120000  0.83534000  1.0 -0.5454273471
O  O30  1  0.37430000  0.68120000  0.66466000  1.0 -0.5454273471
O  O31  1  0.37430000  0.31880000  0.16466000  1.0 -0.5454273471
O  O32  1  0.62570000  0.31880000  0.33534000  1.0 -0.5454273471
O  O33  1  0.66420000  0.67210000  0.96569000  1.0 -0.5788863697
O  O34  1  0.33580000  0.67210000  0.53431000  1.0 -0.5788863697
O  O35  1  0.33580000  0.32790000  0.03431000  1.0 -0.5788863697
O  O36  1  0.66420000  0.32790000  0.46569000  1.0 -0.5788863697
O  O37  1  0.56630000  0.79020000  0.99461000  1.0 -0.5893576988
O  O38  1  0.43370000  0.79020000  0.50539000  1.0 -0.5893576988
O  O39  1  0.43370000  0.20980000  0.00539000  1.0 -0.5893576988
O  O40  1  0.56630000  0.20980000  0.49461000  1.0 -0.5893576988
O  O41  1  0.61070000  0.32140000  0.84197000  1.0 -0.6061405787
O  O42  1  0.38930000  0.32140000  0.65803000  1.0 -0.6061405787
O  O43  1  0.38930000  0.67860000  0.15803000  1.0 -0.6061405787
O  O44  1  0.61070000  0.67860000  0.34197000  1.0 -0.6061405787
O  O45  1  0.48670000  0.20030000  0.80982000  1.0 -0.5205924758
O  O46  1  0.51330000  0.20030000  0.69018000  1.0 -0.5205924758
O  O47  1  0.51330000  0.79970000  0.19018000  1.0 -0.5205924758
O  O48  1  0.48670000  0.79970000  0.30982000  1.0 -0.5205924758
O  O49  1  0.53040000  0.90520000  0.85169000  1.0 0.0698125619
O  O50  1  0.46960000  0.90520000  0.64831000  1.0 0.0698125619
O  O51  1  0.46960000  0.09480000  0.14831000  1.0 0.0698125619
O  O52  1  0.53040000  0.09480000  0.35169000  1.0 0.0698125619
O  O53  1  0.65060000  0.08660000  0.78756000  1.0 -0.6845990666
O  O54  1  0.34940000  0.08660000  0.71244000  1.0 -0.6845990666
O  O55  1  0.34940000  0.91340000  0.21244000  1.0 -0.6845990666
O  O56  1  0.65060000  0.91340000  0.28756000  1.0 -0.6845990666
O  O57  1  0.38660000  0.93610000  0.91270000  1.0 -0.3298798078
O  O58  1  0.61340000  0.93610000  0.58730000  1.0 -0.3298798078
O  O59  1  0.61340000  0.06390000  0.08730000  1.0 -0.3298798078
O  O60  1  0.38660000  0.06390000  0.41270000  1.0 -0.3298798078
O  O61  1  0.58320000  0.09590000  0.94660000  1.0 -0.7088928618
O  O62  1  0.41680000  0.09590000  0.55340000  1.0 -0.7088928618
O  O63  1  0.41680000  0.90410000  0.05340000  1.0 -0.7088928618
O  O64  1  0.58320000  0.90410000  0.44660000  1.0 -0.7088928618
O  O65  1  0.86200000  0.09990000  0.96570000  1.0 -0.6964904317
O  O66  1  0.13800000  0.09990000  0.53430000  1.0 -0.6964904317
O  O67  1  0.13800000  0.90010000  0.03430000  1.0 -0.6964904317
O  O68  1  0.86200000  0.90010000  0.46570000  1.0 -0.6964904317
O  O69  1  0.00950000  0.05300000  0.90710000  1.0 -0.3839280554
O  O70  1  0.99050000  0.05300000  0.59290000  1.0 -0.3839280554
O  O71  1  0.99050000  0.94700000  0.09290000  1.0 -0.3876504847
O  O72  1  0.00950000  0.94700000  0.40710000  1.0 -0.3876504847
