# DDEC6 charges by PACMAN v1.1 (https://github.com/mtap-research/PACMAN-charge/)
data_RIPWEU_ion_pacman
_symmetry_space_group_name_H-M   'P 1'
_cell_length_a   17.85500000
_cell_length_b   23.87560000
_cell_length_c   34.84050000
_cell_angle_alpha   90.00000000
_cell_angle_beta   90.00000000
_cell_angle_gamma   90.00000000
_symmetry_Int_Tables_number   1
_chemical_formula_structural   KNa9Sm6MnP5H14W30(C7O78)2
_chemical_formula_sum   'K4 Na36 Sm24 Mn4 P20 H56 W120 C56 O624'
_cell_volume   14852.46466534
_cell_formula_units_Z   4
loop_
 _symmetry_equiv_pos_site_id
 _symmetry_equiv_pos_as_xyz
  1  'x, y, z'
loop_
 _atom_site_type_symbol
 _atom_site_label
 _atom_site_symmetry_multiplicity
 _atom_site_fract_x
 _atom_site_fract_y
 _atom_site_fract_z
 _atom_site_occupancy
 _atom_site_charge
K  K1  1  0.08540000  0.16270000  0.26190000  1.0 1.0527105437
K  K2  1  0.41460000  0.83730000  0.76190000  1.0 1.0527105437
K  K3  1  0.58540000  0.33730000  0.73810000  1.0 1.0527105437
K  K4  1  0.91460000  0.66270000  0.23810000  1.0 1.0527105437
Na  Na1  1  0.50970000  0.94040000  0.11830000  1.0 0.5028569431
Na  Na2  1  0.99030000  0.05960000  0.61830000  1.0 0.5028569431
Na  Na3  1  0.00970000  0.55960000  0.88170000  1.0 0.5028569431
Na  Na4  1  0.49030000  0.44040000  0.38170000  1.0 0.5028569431
Na  Na5  1  0.11320000  0.69210000  0.16910000  1.0 0.9081005261
Na  Na6  1  0.38680000  0.30790000  0.66910000  1.0 0.9081005261
Na  Na7  1  0.61320000  0.80790000  0.83090000  1.0 0.9081005261
Na  Na8  1  0.88680000  0.19210000  0.33090000  1.0 0.9081005261
Na  Na9  1  0.00210000  0.97800000  0.05120000  1.0 0.9582621859
Na  Na10  1  0.49790000  0.02200000  0.55120000  1.0 0.9582621859
Na  Na11  1  0.50210000  0.52200000  0.94880000  1.0 0.9582621859
Na  Na12  1  0.99790000  0.47800000  0.44880000  1.0 0.9582621859
Na  Na13  1  0.50930000  0.93030000  0.38140000  1.0 0.9419147403
Na  Na14  1  0.99070000  0.06970000  0.88140000  1.0 0.9419147403
Na  Na15  1  0.00930000  0.56970000  0.61860000  1.0 0.9419147403
Na  Na16  1  0.49070000  0.43030000  0.11860000  1.0 0.9419147403
Na  Na17  1  0.98600000  0.95590000  0.26210000  1.0 0.9036042051
Na  Na18  1  0.51400000  0.04410000  0.76210000  1.0 0.9036042051
Na  Na19  1  0.48600000  0.54410000  0.73790000  1.0 0.9036042051
Na  Na20  1  0.01400000  0.45590000  0.23790000  1.0 0.9036042051
Na  Na21  1  0.18380000  0.21470000  0.10170000  1.0 0.9419147403
Na  Na22  1  0.31620000  0.78530000  0.60170000  1.0 0.9419147403
Na  Na23  1  0.68380000  0.28530000  0.89830000  1.0 0.9419147403
Na  Na24  1  0.81620000  0.71470000  0.39830000  1.0 0.9419147403
Na  Na25  1  0.98970000  0.12860000  0.05780000  1.0 0.9547939108
Na  Na26  1  0.51030000  0.87140000  0.55780000  1.0 0.9582621859
Na  Na27  1  0.48970000  0.37140000  0.94220000  1.0 0.9547939108
Na  Na28  1  0.01030000  0.62860000  0.44220000  1.0 0.9547939108
Na  Na29  1  0.51400000  0.91200000  0.11870000  1.0 0.3399880932
Na  Na30  1  0.98600000  0.08800000  0.61870000  1.0 0.3399880932
Na  Na31  1  0.01400000  0.58800000  0.88130000  1.0 0.3399880932
Na  Na32  1  0.48600000  0.41200000  0.38130000  1.0 0.3399880932
Na  Na33  1  0.79480000  0.51560000  0.59680000  1.0 0.9680084394
Na  Na34  1  0.70520000  0.48440000  0.09680000  1.0 0.9680084394
Na  Na35  1  0.29480000  0.98440000  0.40320000  1.0 0.9680084394
Na  Na36  1  0.20520000  0.01560000  0.90320000  1.0 0.9680084394
Sm  Sm1  1  0.39880000  0.30614000  0.03152000  1.0 2.2189684317
Sm  Sm2  1  0.10120000  0.69386000  0.53152000  1.0 2.2189684317
Sm  Sm3  1  0.89880000  0.19386000  0.96848000  1.0 2.2189684317
Sm  Sm4  1  0.60120000  0.80614000  0.46848000  1.0 2.2189684317
Sm  Sm5  1  0.11929000  0.19041000  0.96325000  1.0 2.2088314698
Sm  Sm6  1  0.38071000  0.80959000  0.46325000  1.0 2.2088314698
Sm  Sm7  1  0.61929000  0.30959000  0.03675000  1.0 2.2088314698
Sm  Sm8  1  0.88071000  0.69041000  0.53675000  1.0 2.2088314698
Sm  Sm9  1  0.68389000  0.67163000  0.14338000  1.0 2.1216343449
Sm  Sm10  1  0.81611000  0.32837000  0.64338000  1.0 2.1216343449
Sm  Sm11  1  0.18389000  0.82837000  0.85662000  1.0 2.1216343449
Sm  Sm12  1  0.31611000  0.17163000  0.35662000  1.0 2.1216343449
Sm  Sm13  1  0.31420000  0.67308000  0.14045000  1.0 2.1741525338
Sm  Sm14  1  0.18580000  0.32692000  0.64045000  1.0 2.1741525338
Sm  Sm15  1  0.81420000  0.82692000  0.85955000  1.0 2.1741525338
Sm  Sm16  1  0.68580000  0.17308000  0.35955000  1.0 2.1741525338
Sm  Sm17  1  0.10865000  0.78601000  0.27557000  1.0 2.1887656854
Sm  Sm18  1  0.39135000  0.21399000  0.77557000  1.0 2.1887656854
Sm  Sm19  1  0.60865000  0.71399000  0.72443000  1.0 2.1887656854
Sm  Sm20  1  0.89135000  0.28601000  0.22443000  1.0 2.1887656854
Sm  Sm21  1  0.00334000  0.79333000  0.08944000  1.0 2.2041240142
Sm  Sm22  1  0.49666000  0.20667000  0.58944000  1.0 2.2041240142
Sm  Sm23  1  0.50334000  0.70667000  0.91056000  1.0 2.2041240142
Sm  Sm24  1  0.99666000  0.29333000  0.41056000  1.0 2.2041240142
Mn  Mn1  1  0.66260000  0.78090000  0.33890000  1.0 1.3728837178
Mn  Mn2  1  0.83740000  0.21910000  0.83890000  1.0 1.375049989
Mn  Mn3  1  0.16260000  0.71910000  0.66110000  1.0 1.3728837178
Mn  Mn4  1  0.33740000  0.28090000  0.16110000  1.0 1.3728837178
P  P1  1  0.50370000  0.98070000  0.22074000  1.0 1.4535003112
P  P2  1  0.99630000  0.01930000  0.72074000  1.0 1.4575812028
P  P3  1  0.00370000  0.51930000  0.77926000  1.0 1.4535003112
P  P4  1  0.49630000  0.48070000  0.27926000  1.0 1.4535003112
P  P5  1  0.62750000  0.99890000  0.04240000  1.0 1.4746886895
P  P6  1  0.87250000  0.00110000  0.54240000  1.0 1.4794219689
P  P7  1  0.12750000  0.50110000  0.95760000  1.0 1.4794219689
P  P8  1  0.37250000  0.49890000  0.45760000  1.0 1.4794219689
P  P9  1  0.39760000  0.99560000  0.03860000  1.0 1.4794219689
P  P10  1  0.10240000  0.00440000  0.53860000  1.0 1.486861309
P  P11  1  0.89760000  0.50440000  0.96140000  1.0 1.486861309
P  P12  1  0.60240000  0.49560000  0.46140000  1.0 1.486861309
P  P13  1  0.69340000  0.98670000  0.15380000  1.0 1.5226437853
P  P14  1  0.80660000  0.01330000  0.65380000  1.0 1.5226437853
P  P15  1  0.19340000  0.51330000  0.84620000  1.0 1.5226437853
P  P16  1  0.30660000  0.48670000  0.34620000  1.0 1.5226437853
P  P17  1  0.32130000  0.98460000  0.14840000  1.0 1.4794219689
P  P18  1  0.17870000  0.01540000  0.64840000  1.0 1.4794219689
P  P19  1  0.82130000  0.51540000  0.85160000  1.0 1.4794219689
P  P20  1  0.67870000  0.48460000  0.35160000  1.0 1.4794219689
H  H1  1  0.25940000  0.77550000  0.05030000  1.0 0.1703610712
H  H2  1  0.24060000  0.22450000  0.55030000  1.0 0.1703610712
H  H3  1  0.75940000  0.72450000  0.94970000  1.0 0.1703610712
H  H4  1  0.74060000  0.27550000  0.44970000  1.0 0.1703610712
H  H5  1  0.22850000  0.71910000  0.03370000  1.0 0.1703610712
H  H6  1  0.27150000  0.28090000  0.53370000  1.0 0.1703610712
H  H7  1  0.72850000  0.78090000  0.96630000  1.0 0.1703610712
H  H8  1  0.77150000  0.21910000  0.46630000  1.0 0.1703610712
H  H9  1  0.02520000  0.88260000  0.19320000  1.0 0.1509299921
H  H10  1  0.47480000  0.11740000  0.69320000  1.0 0.1509299921
H  H11  1  0.52520000  0.61740000  0.80680000  1.0 0.1509299921
H  H12  1  0.97480000  0.38260000  0.30680000  1.0 0.1509299921
H  H13  1  0.95110000  0.84700000  0.19680000  1.0 0.1703610712
H  H14  1  0.54890000  0.15300000  0.69680000  1.0 0.1703610712
H  H15  1  0.45110000  0.65300000  0.80320000  1.0 0.1703610712
H  H16  1  0.04890000  0.34700000  0.30320000  1.0 0.1703610712
H  H17  1  0.27190000  0.27340000  0.90810000  1.0 0.1625478708
H  H18  1  0.22810000  0.72660000  0.40810000  1.0 0.1625478708
H  H19  1  0.77190000  0.22660000  0.09190000  1.0 0.1625478708
H  H20  1  0.72810000  0.77340000  0.59190000  1.0 0.1625478708
H  H21  1  0.32270000  0.21970000  0.90830000  1.0 0.1625478708
H  H22  1  0.17730000  0.78030000  0.40830000  1.0 0.1625478708
H  H23  1  0.82270000  0.28030000  0.09170000  1.0 0.1625478708
H  H24  1  0.67730000  0.71970000  0.59170000  1.0 0.1625478708
H  H25  1  0.82090000  0.73450000  0.03400000  1.0 0.1509299921
H  H26  1  0.67910000  0.26550000  0.53400000  1.0 0.1509299921
H  H27  1  0.32090000  0.76550000  0.96600000  1.0 0.1509299921
H  H28  1  0.17910000  0.23450000  0.46600000  1.0 0.1509299921
H  H29  1  0.77980000  0.78620000  0.05230000  1.0 0.1509299921
H  H30  1  0.72020000  0.21380000  0.55230000  1.0 0.1509299921
H  H31  1  0.27980000  0.71380000  0.94770000  1.0 0.1509299921
H  H32  1  0.22020000  0.28620000  0.44770000  1.0 0.1509299921
H  H33  1  0.34990000  0.70270000  0.25740000  1.0 0.1509299921
H  H34  1  0.15010000  0.29730000  0.75740000  1.0 0.1509299921
H  H35  1  0.84990000  0.79730000  0.74260000  1.0 0.1509299921
H  H36  1  0.65010000  0.20270000  0.24260000  1.0 0.1509299921
H  H37  1  0.34950000  0.76330000  0.23970000  1.0 0.1509299921
H  H38  1  0.15050000  0.23670000  0.73970000  1.0 0.1509299921
H  H39  1  0.84950000  0.73670000  0.76030000  1.0 0.1509299921
H  H40  1  0.65050000  0.26330000  0.26030000  1.0 0.1509299921
H  H41  1  0.03210000  0.27640000  0.86070000  1.0 0.1509299921
H  H42  1  0.46790000  0.72360000  0.36070000  1.0 0.1509299921
H  H43  1  0.53210000  0.22360000  0.13930000  1.0 0.1509299921
H  H44  1  0.96790000  0.77640000  0.63930000  1.0 0.1509299921
H  H45  1  0.05640000  0.21400000  0.85290000  1.0 0.1703610712
H  H46  1  0.44360000  0.78600000  0.35290000  1.0 0.1703610712
H  H47  1  0.55640000  0.28600000  0.14710000  1.0 0.1703610712
H  H48  1  0.94360000  0.71400000  0.64710000  1.0 0.1703610712
H  H49  1  0.52660000  0.75550000  0.08310000  1.0 0.1509299921
H  H50  1  0.97340000  0.24450000  0.58310000  1.0 0.1509299921
H  H51  1  0.02660000  0.74450000  0.91690000  1.0 0.1509299921
H  H52  1  0.47340000  0.25550000  0.41690000  1.0 0.1509299921
H  H53  1  0.52390000  0.69660000  0.06300000  1.0 0.1840252386
H  H54  1  0.97610000  0.30340000  0.56300000  1.0 0.1840252386
H  H55  1  0.02390000  0.80340000  0.93700000  1.0 0.1840252386
H  H56  1  0.47610000  0.19660000  0.43700000  1.0 0.1840252386
W  W1  1  0.16435000  0.91555000  0.11896000  1.0 2.4573782192
W  W2  1  0.33565000  0.08445000  0.61896000  1.0 2.4573782192
W  W3  1  0.66435000  0.58445000  0.88104000  1.0 2.4573782192
W  W4  1  0.83565000  0.41555000  0.38104000  1.0 2.4573782192
W  W5  1  0.61184000  0.13897000  0.05514000  1.0 2.4823968218
W  W6  1  0.88816000  0.86103000  0.55514000  1.0 2.4823968218
W  W7  1  0.11184000  0.36103000  0.94486000  1.0 2.4823968218
W  W8  1  0.38816000  0.63897000  0.44486000  1.0 2.4823968218
W  W9  1  0.85172000  0.92012000  0.11834000  1.0 2.4914773659
W  W10  1  0.64828000  0.07988000  0.61834000  1.0 2.4914773659
W  W11  1  0.35172000  0.57988000  0.88166000  1.0 2.4914773659
W  W12  1  0.14828000  0.42012000  0.38166000  1.0 2.4914773659
W  W13  1  0.61481000  0.93811000  0.95287000  1.0 2.4420519929
W  W14  1  0.88519000  0.06189000  0.45287000  1.0 2.4420519929
W  W15  1  0.11481000  0.56189000  0.04713000  1.0 2.4420519929
W  W16  1  0.38519000  0.43811000  0.54713000  1.0 2.4420519929
W  W17  1  0.50458000  0.12217000  0.21684000  1.0 2.4301765477
W  W18  1  0.99542000  0.87783000  0.71684000  1.0 2.4301765477
W  W19  1  0.00458000  0.37783000  0.78316000  1.0 2.4301765477
W  W20  1  0.49542000  0.62217000  0.28316000  1.0 2.4301765477
W  W21  1  0.50428000  0.84053000  0.20643000  1.0 2.4301765477
W  W22  1  0.99572000  0.15947000  0.70643000  1.0 2.4301765477
W  W23  1  0.00428000  0.65947000  0.79357000  1.0 2.4301765477
W  W24  1  0.49572000  0.34053000  0.29357000  1.0 2.4301765477
W  W25  1  0.40201000  0.93411000  0.95072000  1.0 2.4573782192
W  W26  1  0.09799000  0.06589000  0.45072000  1.0 2.4573782192
W  W27  1  0.90201000  0.56589000  0.04928000  1.0 2.4573782192
W  W28  1  0.59799000  0.43411000  0.54928000  1.0 2.4573782192
W  W29  1  0.78890000  0.93303000  0.01404000  1.0 2.4697505242
W  W30  1  0.71110000  0.06697000  0.51404000  1.0 2.4697505242
W  W31  1  0.28890000  0.56697000  0.98596000  1.0 2.4697505242
W  W32  1  0.21110000  0.43303000  0.48596000  1.0 2.4697505242
W  W33  1  0.78974000  0.91251000  0.22122000  1.0 2.4245068636
W  W34  1  0.71026000  0.08749000  0.72122000  1.0 2.4245068636
W  W35  1  0.28974000  0.58749000  0.77878000  1.0 2.4245068636
W  W36  1  0.21026000  0.41251000  0.27878000  1.0 2.4301765477
W  W37  1  0.41211000  0.85382000  0.03944000  1.0 2.4420519929
W  W38  1  0.08789000  0.14618000  0.53944000  1.0 2.4420519929
W  W39  1  0.91211000  0.64618000  0.96056000  1.0 2.4420519929
W  W40  1  0.58789000  0.35382000  0.46056000  1.0 2.4420519929
W  W41  1  0.23260000  0.92478000  0.01523000  1.0 2.4697505242
W  W42  1  0.26740000  0.07522000  0.51523000  1.0 2.4697505242
W  W43  1  0.73260000  0.57522000  0.98477000  1.0 2.4697505242
W  W44  1  0.76740000  0.42478000  0.48477000  1.0 2.4697505242
W  W45  1  0.40280000  0.13609000  0.05138000  1.0 2.4994646317
W  W46  1  0.09720000  0.86391000  0.55138000  1.0 2.4914773659
W  W47  1  0.90280000  0.36391000  0.94862000  1.0 2.4914773659
W  W48  1  0.59720000  0.63609000  0.44862000  1.0 2.4914773659
W  W49  1  0.61512000  0.90754000  0.28415000  1.0 2.4994646317
W  W50  1  0.88488000  0.09246000  0.78415000  1.0 2.4994646317
W  W51  1  0.11512000  0.59246000  0.71585000  1.0 2.4994646317
W  W52  1  0.38488000  0.40754000  0.21585000  1.0 2.4994646317
W  W53  1  0.23426000  0.90795000  0.22056000  1.0 2.4994646317
W  W54  1  0.26574000  0.09205000  0.72056000  1.0 2.4994646317
W  W55  1  0.73426000  0.59205000  0.77944000  1.0 2.4914773659
W  W56  1  0.76574000  0.40795000  0.27944000  1.0 2.4994646317
W  W57  1  0.67763000  0.13005000  0.15685000  1.0 2.4494280324
W  W58  1  0.82237000  0.86995000  0.65685000  1.0 2.4494280324
W  W59  1  0.17763000  0.36995000  0.84315000  1.0 2.4494280324
W  W60  1  0.32237000  0.63005000  0.34315000  1.0 2.4494280324
W  W61  1  0.62140000  0.85684000  0.04333000  1.0 2.4301765477
W  W62  1  0.87860000  0.14316000  0.54333000  1.0 2.4301765477
W  W63  1  0.12140000  0.64316000  0.95667000  1.0 2.4301765477
W  W64  1  0.37860000  0.35684000  0.45667000  1.0 2.4301765477
W  W65  1  0.41804000  0.07257000  0.95458000  1.0 2.4301765477
W  W66  1  0.08196000  0.92743000  0.45458000  1.0 2.4301765477
W  W67  1  0.91804000  0.42743000  0.04542000  1.0 2.4301765477
W  W68  1  0.58196000  0.57257000  0.54542000  1.0 2.4301765477
W  W69  1  0.63171000  0.07614000  0.95987000  1.0 2.4301765477
W  W70  1  0.86829000  0.92386000  0.45987000  1.0 2.4301765477
W  W71  1  0.13171000  0.42386000  0.04013000  1.0 2.4301765477
W  W72  1  0.36829000  0.57614000  0.54013000  1.0 2.4301765477
W  W73  1  0.38650000  0.04344000  0.28646000  1.0 2.4994646317
W  W74  1  0.11350000  0.95656000  0.78646000  1.0 2.4994646317
W  W75  1  0.88650000  0.45656000  0.71354000  1.0 2.4994646317
W  W76  1  0.61350000  0.54344000  0.21354000  1.0 2.4994646317
W  W77  1  0.67720000  0.84576000  0.14682000  1.0 2.4914773659
W  W78  1  0.82280000  0.15424000  0.64682000  1.0 2.4914773659
W  W79  1  0.17720000  0.65424000  0.85318000  1.0 2.4914773659
W  W80  1  0.32280000  0.34576000  0.35318000  1.0 2.4914773659
W  W81  1  0.34061000  0.84465000  0.13995000  1.0 2.4494280324
W  W82  1  0.15939000  0.15535000  0.63995000  1.0 2.4494280324
W  W83  1  0.84061000  0.65535000  0.86005000  1.0 2.4494280324
W  W84  1  0.65939000  0.34465000  0.36005000  1.0 2.4494280324
W  W85  1  0.33702000  0.12574000  0.15293000  1.0 2.4573782192
W  W86  1  0.16298000  0.87426000  0.65293000  1.0 2.4573782192
W  W87  1  0.83702000  0.37426000  0.84707000  1.0 2.4573782192
W  W88  1  0.66298000  0.62574000  0.34707000  1.0 2.4573782192
W  W89  1  0.59639000  0.04537000  0.29391000  1.0 2.4697505242
W  W90  1  0.90361000  0.95463000  0.79391000  1.0 2.4697505242
W  W91  1  0.09639000  0.45463000  0.70609000  1.0 2.4697505242
W  W92  1  0.40361000  0.54537000  0.20609000  1.0 2.4697505242
W  W93  1  0.40378000  0.90431000  0.28644000  1.0 2.4112531946
W  W94  1  0.09622000  0.09569000  0.78644000  1.0 2.4112531946
W  W95  1  0.90378000  0.59569000  0.71356000  1.0 2.4112531946
W  W96  1  0.59622000  0.40431000  0.21356000  1.0 2.4112531946
W  W97  1  0.79214000  0.07063000  0.02918000  1.0 2.5365282104
W  W98  1  0.70786000  0.92937000  0.52918000  1.0 2.5365282104
W  W99  1  0.29214000  0.42937000  0.97082000  1.0 2.5365282104
W  W100  1  0.20786000  0.57063000  0.47082000  1.0 2.5365282104
W  W101  1  0.21916000  0.04673000  0.21919000  1.0 2.4914773659
W  W102  1  0.28084000  0.95327000  0.71919000  1.0 2.4914773659
W  W103  1  0.71916000  0.45327000  0.78081000  1.0 2.4914773659
W  W104  1  0.78084000  0.54673000  0.28081000  1.0 2.4914773659
W  W105  1  0.23974000  0.06430000  0.01245000  1.0 2.4823968218
W  W106  1  0.26026000  0.93570000  0.51245000  1.0 2.4823968218
W  W107  1  0.73974000  0.43570000  0.98755000  1.0 2.4823968218
W  W108  1  0.76026000  0.56430000  0.48755000  1.0 2.4823968218
W  W109  1  0.85278000  0.05902000  0.13373000  1.0 2.4420519929
W  W110  1  0.64722000  0.94098000  0.63373000  1.0 2.4301765477
W  W111  1  0.35278000  0.44098000  0.86627000  1.0 2.4420519929
W  W112  1  0.14722000  0.55902000  0.36627000  1.0 2.4420519929
W  W113  1  0.77445000  0.05050000  0.23371000  1.0 2.4823968218
W  W114  1  0.72555000  0.94950000  0.73371000  1.0 2.4823968218
W  W115  1  0.27445000  0.44950000  0.76629000  1.0 2.4823968218
W  W116  1  0.22555000  0.55050000  0.26629000  1.0 2.4823968218
W  W117  1  0.16708000  0.05504000  0.11448000  1.0 2.4573782192
W  W118  1  0.33292000  0.94496000  0.61448000  1.0 2.4573782192
W  W119  1  0.66708000  0.44496000  0.88552000  1.0 2.4573782192
W  W120  1  0.83292000  0.55504000  0.38552000  1.0 2.4573782192
C  C1  1  0.24570000  0.73740000  0.05690000  1.0 -0.2110480095
C  C2  1  0.25430000  0.26260000  0.55690000  1.0 -0.2110480095
C  C3  1  0.74570000  0.76260000  0.94310000  1.0 -0.2110480095
C  C4  1  0.75430000  0.23740000  0.44310000  1.0 -0.2110480095
C  C5  1  0.25640000  0.71810000  0.22530000  1.0 0.7078696893
C  C6  1  0.24360000  0.28190000  0.72530000  1.0 0.7078696893
C  C7  1  0.75640000  0.78190000  0.77470000  1.0 0.7078696893
C  C8  1  0.74360000  0.21810000  0.27470000  1.0 0.7078696893
C  C9  1  0.00400000  0.84870000  0.20380000  1.0 -0.1503280948
C  C10  1  0.49600000  0.15130000  0.70380000  1.0 -0.1503280948
C  C11  1  0.50400000  0.65130000  0.79620000  1.0 -0.1503280948
C  C12  1  0.99600000  0.34870000  0.29620000  1.0 -0.1503280948
C  C13  1  0.97000000  0.21920000  0.89340000  1.0 0.6570464031
C  C14  1  0.53000000  0.78080000  0.39340000  1.0 0.6570464031
C  C15  1  0.47000000  0.28080000  0.10660000  1.0 0.6570464031
C  C16  1  0.03000000  0.71920000  0.60660000  1.0 0.6570464031
C  C17  1  0.27870000  0.23680000  0.91970000  1.0 -0.190119924
C  C18  1  0.22130000  0.76320000  0.41970000  1.0 -0.190119924
C  C19  1  0.77870000  0.26320000  0.08030000  1.0 -0.190119924
C  C20  1  0.72130000  0.73680000  0.58030000  1.0 -0.190119924
C  C21  1  0.82450000  0.76320000  0.05360000  1.0 -0.1503280948
C  C22  1  0.67550000  0.23680000  0.55360000  1.0 -0.1503280948
C  C23  1  0.32450000  0.73680000  0.94640000  1.0 -0.1503280948
C  C24  1  0.17550000  0.26320000  0.44640000  1.0 -0.1503280948
C  C25  1  0.33750000  0.72430000  0.23470000  1.0 -0.190119924
C  C26  1  0.16250000  0.27570000  0.73470000  1.0 -0.190119924
C  C27  1  0.83750000  0.77570000  0.76530000  1.0 -0.190119924
C  C28  1  0.66250000  0.22430000  0.26530000  1.0 -0.190119924
C  C29  1  0.04720000  0.79470000  0.18860000  1.0 0.6959378527
C  C30  1  0.45280000  0.20530000  0.68860000  1.0 0.6959378527
C  C31  1  0.54720000  0.70530000  0.81140000  1.0 0.6959378527
C  C32  1  0.95280000  0.29470000  0.31140000  1.0 0.6959378527
C  C33  1  0.01390000  0.23840000  0.85740000  1.0 -0.1093125014
C  C34  1  0.48610000  0.76160000  0.35740000  1.0 -0.1093125014
C  C35  1  0.51390000  0.26160000  0.14260000  1.0 -0.1093125014
C  C36  1  0.98610000  0.73840000  0.64260000  1.0 -0.1093125014
C  C37  1  0.82970000  0.73540000  0.09360000  1.0 0.6932948784
C  C38  1  0.67030000  0.26460000  0.59360000  1.0 0.6932948784
C  C39  1  0.32970000  0.76460000  0.90640000  1.0 0.6932948784
C  C40  1  0.17030000  0.23540000  0.40640000  1.0 0.6932948784
C  C41  1  0.51200000  0.69250000  0.11970000  1.0 0.6570464031
C  C42  1  0.98800000  0.30750000  0.61970000  1.0 0.6570464031
C  C43  1  0.01200000  0.80750000  0.88030000  1.0 0.6570464031
C  C44  1  0.48800000  0.19250000  0.38030000  1.0 0.6570464031
C  C45  1  0.29000000  0.24310000  0.96020000  1.0 0.6570464031
C  C46  1  0.21000000  0.75690000  0.46020000  1.0 0.6570464031
C  C47  1  0.79000000  0.25690000  0.03980000  1.0 0.6570464031
C  C48  1  0.71000000  0.74310000  0.53980000  1.0 0.6570464031
C  C49  1  0.54200000  0.71670000  0.08530000  1.0 -0.190119924
C  C50  1  0.95800000  0.28330000  0.58530000  1.0 -0.190119924
C  C51  1  0.04200000  0.78330000  0.91470000  1.0 -0.190119924
C  C52  1  0.45800000  0.21670000  0.41470000  1.0 -0.190119924
C  C53  1  0.18680000  0.73880000  0.08330000  1.0 0.6503691928
C  C54  1  0.31320000  0.26120000  0.58330000  1.0 0.6503691928
C  C55  1  0.68680000  0.76120000  0.91670000  1.0 0.6503691928
C  C56  1  0.81320000  0.23880000  0.41670000  1.0 0.6503691928
O  O1  1  0.34800000  0.26880000  0.97440000  1.0 -0.6200642007
O  O2  1  0.15200000  0.73120000  0.47440000  1.0 -0.6200642007
O  O3  1  0.84800000  0.23120000  0.02560000  1.0 -0.6200642007
O  O4  1  0.65200000  0.76880000  0.52560000  1.0 -0.6200642007
O  O5  1  0.24050000  0.22320000  0.98380000  1.0 -0.6000159352
O  O6  1  0.25950000  0.77680000  0.48380000  1.0 -0.6000159352
O  O7  1  0.74050000  0.27680000  0.01620000  1.0 -0.6000159352
O  O8  1  0.75950000  0.72320000  0.51620000  1.0 -0.6000159352
O  O9  1  0.02610000  0.77810000  0.15310000  1.0 -0.7106573129
O  O10  1  0.47390000  0.22190000  0.65310000  1.0 -0.7106573129
O  O11  1  0.52610000  0.72190000  0.84690000  1.0 -0.7106573129
O  O12  1  0.97390000  0.27810000  0.34690000  1.0 -0.7106573129
O  O13  1  0.88960000  0.79730000  0.04660000  1.0 -0.3712514608
O  O14  1  0.61040000  0.20270000  0.54660000  1.0 -0.3712514608
O  O15  1  0.38960000  0.70270000  0.95340000  1.0 -0.3712514608
O  O16  1  0.11040000  0.29730000  0.45340000  1.0 -0.3712514608
O  O17  1  0.12560000  0.76760000  0.07830000  1.0 -0.6124583838
O  O18  1  0.37440000  0.23240000  0.57830000  1.0 -0.6124583838
O  O19  1  0.62560000  0.73240000  0.92170000  1.0 -0.6124583838
O  O20  1  0.87440000  0.26760000  0.42170000  1.0 -0.6124583838
O  O21  1  0.62400000  0.71340000  0.08700000  1.0 -0.3784537345
O  O22  1  0.87600000  0.28660000  0.58700000  1.0 -0.3784537345
O  O23  1  0.12400000  0.78660000  0.91300000  1.0 -0.3784537345
O  O24  1  0.37600000  0.21340000  0.41300000  1.0 -0.3784537345
O  O25  1  0.54740000  0.67600000  0.14700000  1.0 -0.5205703571
O  O26  1  0.95260000  0.32400000  0.64700000  1.0 -0.5205703571
O  O27  1  0.04740000  0.82400000  0.85300000  1.0 -0.5205703571
O  O28  1  0.45260000  0.17600000  0.35300000  1.0 -0.5205703571
O  O29  1  0.43610000  0.68950000  0.12050000  1.0 -0.661626388
O  O30  1  0.06390000  0.31050000  0.62050000  1.0 -0.661626388
O  O31  1  0.93610000  0.81050000  0.87950000  1.0 -0.661626388
O  O32  1  0.56390000  0.18950000  0.37950000  1.0 -0.661626388
O  O33  1  0.38220000  0.70270000  0.19970000  1.0 -0.3784537345
O  O34  1  0.11780000  0.29730000  0.69970000  1.0 -0.3784537345
O  O35  1  0.88220000  0.79730000  0.80030000  1.0 -0.3784537345
O  O36  1  0.61780000  0.20270000  0.30030000  1.0 -0.3784537345
O  O37  1  0.89000000  0.74420000  0.11150000  1.0 -0.5814970775
O  O38  1  0.61000000  0.25580000  0.61150000  1.0 -0.5814970775
O  O39  1  0.39000000  0.75580000  0.88850000  1.0 -0.5814970775
O  O40  1  0.11000000  0.24420000  0.38850000  1.0 -0.5814970775
O  O41  1  0.77790000  0.70290000  0.10100000  1.0 -0.6000159352
O  O42  1  0.72210000  0.29710000  0.60100000  1.0 -0.6000159352
O  O43  1  0.27790000  0.79710000  0.89900000  1.0 -0.6000159352
O  O44  1  0.22210000  0.20290000  0.39900000  1.0 -0.6000159352
O  O45  1  0.31220000  0.70820000  0.07110000  1.0 -0.3353035643
O  O46  1  0.18780000  0.29180000  0.57110000  1.0 -0.3353035643
O  O47  1  0.81220000  0.79180000  0.92890000  1.0 -0.3353035643
O  O48  1  0.68780000  0.20820000  0.42890000  1.0 -0.3353035643
O  O49  1  0.23550000  0.70000000  0.19430000  1.0 -0.6269023164
O  O50  1  0.26450000  0.30000000  0.69430000  1.0 -0.6269023164
O  O51  1  0.73550000  0.80000000  0.80570000  1.0 -0.6269023164
O  O52  1  0.76450000  0.20000000  0.30570000  1.0 -0.6269023164
O  O53  1  0.19560000  0.71070000  0.11770000  1.0 -0.718874131
O  O54  1  0.30440000  0.28930000  0.61770000  1.0 -0.718874131
O  O55  1  0.69560000  0.78930000  0.88230000  1.0 -0.718874131
O  O56  1  0.80440000  0.21070000  0.38230000  1.0 -0.718874131
O  O57  1  0.21560000  0.74160000  0.25140000  1.0 -0.6200642007
O  O58  1  0.28440000  0.25840000  0.75140000  1.0 -0.6200642007
O  O59  1  0.71560000  0.75840000  0.74860000  1.0 -0.6200642007
O  O60  1  0.78440000  0.24160000  0.24860000  1.0 -0.6200642007
O  O61  1  0.07390000  0.76110000  0.21040000  1.0 -0.7017514302
O  O62  1  0.42610000  0.23890000  0.71040000  1.0 -0.7017514302
O  O63  1  0.57390000  0.73890000  0.78960000  1.0 -0.7017514302
O  O64  1  0.92610000  0.26110000  0.28960000  1.0 -0.7017514302
O  O65  1  0.01240000  0.84700000  0.24400000  1.0 -0.5311658277
O  O66  1  0.48760000  0.15300000  0.74400000  1.0 -0.5311658277
O  O67  1  0.51240000  0.65300000  0.75600000  1.0 -0.5311658277
O  O68  1  0.98760000  0.34700000  0.25600000  1.0 -0.5311658277
O  O69  1  0.00870000  0.12470000  0.98370000  1.0 -0.8890645764
O  O70  1  0.49130000  0.87530000  0.48370000  1.0 -0.8890645764
O  O71  1  0.50870000  0.37530000  0.01630000  1.0 -0.8890645764
O  O72  1  0.99130000  0.62470000  0.51630000  1.0 -0.8890645764
O  O73  1  0.50890000  0.26580000  0.00080000  1.0 -0.661626388
O  O74  1  0.99110000  0.73420000  0.50080000  1.0 -0.661626388
O  O75  1  0.00890000  0.23420000  0.99920000  1.0 -0.661626388
O  O76  1  0.49110000  0.76580000  0.49920000  1.0 -0.661626388
O  O77  1  0.01150000  0.20610000  0.92170000  1.0 -0.6768341406
O  O78  1  0.48850000  0.79390000  0.42170000  1.0 -0.6768341406
O  O79  1  0.51150000  0.29390000  0.07830000  1.0 -0.6768341406
O  O80  1  0.98850000  0.70610000  0.57830000  1.0 -0.6768341406
O  O81  1  0.90160000  0.21700000  0.89260000  1.0 -0.6000159352
O  O82  1  0.59840000  0.78300000  0.39260000  1.0 -0.6000159352
O  O83  1  0.40160000  0.28300000  0.10740000  1.0 -0.6000159352
O  O84  1  0.09840000  0.71700000  0.60740000  1.0 -0.6000159352
O  O85  1  0.96450000  0.23570000  0.82700000  1.0 -0.3784537345
O  O86  1  0.53550000  0.76430000  0.32700000  1.0 -0.3712514608
O  O87  1  0.46450000  0.26430000  0.17300000  1.0 -0.3712514608
O  O88  1  0.03550000  0.73570000  0.67300000  1.0 -0.3784537345
O  O89  1  0.21450000  0.20280000  0.91200000  1.0 -0.3861149593
O  O90  1  0.28550000  0.79720000  0.41200000  1.0 -0.3861149593
O  O91  1  0.71450000  0.29720000  0.08800000  1.0 -0.3861149593
O  O92  1  0.78550000  0.70280000  0.58800000  1.0 -0.3861149593
O  O93  1  0.92520000  0.10520000  0.13300000  1.0 -0.6124583838
O  O94  1  0.57480000  0.89480000  0.63300000  1.0 -0.6124583838
O  O95  1  0.42520000  0.39480000  0.86700000  1.0 -0.6124583838
O  O96  1  0.07480000  0.60520000  0.36700000  1.0 -0.6124583838
O  O97  1  0.24860000  0.86680000  0.11640000  1.0 -0.8700421688
O  O98  1  0.25140000  0.13320000  0.61640000  1.0 -0.8700421688
O  O99  1  0.74860000  0.63320000  0.88360000  1.0 -0.8700421688
O  O100  1  0.75140000  0.36680000  0.38360000  1.0 -0.8700421688
O  O101  1  0.30670000  0.06620000  0.97340000  1.0 -0.8817497143
O  O102  1  0.19330000  0.93380000  0.47340000  1.0 -0.8817497143
O  O103  1  0.80670000  0.43380000  0.02660000  1.0 -0.8817497143
O  O104  1  0.69330000  0.56620000  0.52660000  1.0 -0.8817497143
O  O105  1  0.37440000  0.97400000  0.31330000  1.0 -0.9217815592
O  O106  1  0.12560000  0.02600000  0.81330000  1.0 -0.9217815592
O  O107  1  0.87440000  0.52600000  0.68670000  1.0 -0.9217815592
O  O108  1  0.62560000  0.47400000  0.18670000  1.0 -0.9217815592
O  O109  1  0.43450000  0.12930000  0.17610000  1.0 -0.8315944626
O  O110  1  0.06550000  0.87070000  0.67610000  1.0 -0.8315944626
O  O111  1  0.93450000  0.37070000  0.82390000  1.0 -0.8315944626
O  O112  1  0.56550000  0.62930000  0.32390000  1.0 -0.8315944626
O  O113  1  0.76890000  0.10770000  0.13210000  1.0 -0.8890645764
O  O114  1  0.73110000  0.89230000  0.63210000  1.0 -0.8890645764
O  O115  1  0.26890000  0.39230000  0.86790000  1.0 -0.8890645764
O  O116  1  0.23110000  0.60770000  0.36790000  1.0 -0.8890645764
O  O117  1  0.50790000  0.14060000  0.06140000  1.0 -0.8198452999
O  O118  1  0.99210000  0.85940000  0.56140000  1.0 -0.8198452999
O  O119  1  0.00790000  0.35940000  0.93860000  1.0 -0.8198452999
O  O120  1  0.49210000  0.64060000  0.43860000  1.0 -0.8198452999
O  O121  1  0.77180000  0.87010000  0.12400000  1.0 -0.8700421688
O  O122  1  0.72820000  0.12990000  0.62400000  1.0 -0.8700421688
O  O123  1  0.27180000  0.62990000  0.87600000  1.0 -0.8700421688
O  O124  1  0.22820000  0.37010000  0.37600000  1.0 -0.8700421688
O  O125  1  0.30180000  0.11130000  0.04280000  1.0 -0.8817497143
O  O126  1  0.19820000  0.88870000  0.54280000  1.0 -0.8817497143
O  O127  1  0.80180000  0.38870000  0.95720000  1.0 -0.8817497143
O  O128  1  0.69820000  0.61130000  0.45720000  1.0 -0.8817497143
O  O129  1  0.51590000  0.85300000  0.04980000  1.0 -0.8617238496
O  O130  1  0.98410000  0.14700000  0.54980000  1.0 -0.8617238496
O  O131  1  0.01590000  0.64700000  0.95020000  1.0 -0.8617238496
O  O132  1  0.48410000  0.35300000  0.45020000  1.0 -0.8617238496
O  O133  1  0.71510000  0.11900000  0.04960000  1.0 -0.8993228398
O  O134  1  0.78490000  0.88100000  0.54960000  1.0 -0.8993228398
O  O135  1  0.21510000  0.38100000  0.95040000  1.0 -0.8993228398
O  O136  1  0.28490000  0.61900000  0.45040000  1.0 -0.8993228398
O  O137  1  0.18560000  0.92600000  0.06080000  1.0 -0.8198452999
O  O138  1  0.31440000  0.07400000  0.56080000  1.0 -0.8198452999
O  O139  1  0.68560000  0.57400000  0.93920000  1.0 -0.8198452999
O  O140  1  0.81440000  0.42600000  0.43920000  1.0 -0.8198452999
O  O141  1  0.63490000  0.84500000  0.09610000  1.0 -0.8503760228
O  O142  1  0.86510000  0.15500000  0.59610000  1.0 -0.8503760228
O  O143  1  0.13490000  0.65500000  0.90390000  1.0 -0.8503760228
O  O144  1  0.36510000  0.34500000  0.40390000  1.0 -0.8503760228
O  O145  1  0.29840000  0.03750000  0.26060000  1.0 -0.8416761278
O  O146  1  0.20160000  0.96250000  0.76060000  1.0 -0.8416761278
O  O147  1  0.79840000  0.46250000  0.73940000  1.0 -0.8416761278
O  O148  1  0.70160000  0.53750000  0.23940000  1.0 -0.8416761278
O  O149  1  0.82420000  0.97870000  0.24700000  1.0 -0.9401857747
O  O150  1  0.67580000  0.02130000  0.74700000  1.0 -0.9401857747
O  O151  1  0.32420000  0.52130000  0.75300000  1.0 -0.9401857747
O  O152  1  0.17580000  0.47870000  0.25300000  1.0 -0.9401857747
O  O153  1  0.18240000  0.97570000  0.23590000  1.0 -0.8890645764
O  O154  1  0.31760000  0.02430000  0.73590000  1.0 -0.8890645764
O  O155  1  0.68240000  0.52430000  0.76410000  1.0 -0.8890645764
O  O156  1  0.81760000  0.47570000  0.26410000  1.0 -0.8890645764
O  O157  1  0.63000000  0.13760000  0.10960000  1.0 -0.8198452999
O  O158  1  0.87000000  0.86240000  0.60960000  1.0 -0.8198452999
O  O159  1  0.13000000  0.36240000  0.89040000  1.0 -0.8198452999
O  O160  1  0.37000000  0.63760000  0.39040000  1.0 -0.8198452999
O  O161  1  0.83710000  0.93400000  0.06680000  1.0 -0.8817497143
O  O162  1  0.66290000  0.06600000  0.56680000  1.0 -0.8817497143
O  O163  1  0.33710000  0.56600000  0.93320000  1.0 -0.8817497143
O  O164  1  0.16290000  0.43400000  0.43320000  1.0 -0.8817497143
O  O165  1  0.71810000  0.98300000  0.19640000  1.0 -0.8817497143
O  O166  1  0.78190000  0.01700000  0.69640000  1.0 -0.8817497143
O  O167  1  0.21810000  0.51700000  0.80360000  1.0 -0.8817497143
O  O168  1  0.28190000  0.48300000  0.30360000  1.0 -0.8817497143
O  O169  1  0.38990000  0.84480000  0.09360000  1.0 -0.8416761278
O  O170  1  0.11010000  0.15520000  0.59360000  1.0 -0.8416761278
O  O171  1  0.88990000  0.65520000  0.90640000  1.0 -0.8416761278
O  O172  1  0.61010000  0.34480000  0.40640000  1.0 -0.8416761278
O  O173  1  0.57140000  0.97800000  0.24880000  1.0 -0.8817497143
O  O174  1  0.92860000  0.02200000  0.74880000  1.0 -0.8817497143
O  O175  1  0.07140000  0.52200000  0.75120000  1.0 -0.8817497143
O  O176  1  0.42860000  0.47800000  0.25120000  1.0 -0.8817497143
O  O177  1  0.19450000  0.99530000  0.99630000  1.0 -0.8993228398
O  O178  1  0.30550000  0.00470000  0.49630000  1.0 -0.8993228398
O  O179  1  0.69450000  0.50470000  0.00370000  1.0 -0.8993228398
O  O180  1  0.80550000  0.49530000  0.50370000  1.0 -0.8993228398
O  O181  1  0.16980000  0.91520000  0.17150000  1.0 -0.8617238496
O  O182  1  0.33020000  0.08480000  0.67150000  1.0 -0.8617238496
O  O183  1  0.66980000  0.58480000  0.82850000  1.0 -0.8617238496
O  O184  1  0.83020000  0.41520000  0.32850000  1.0 -0.8617238496
O  O185  1  0.57530000  0.09600000  0.25540000  1.0 -0.8700421688
O  O186  1  0.92470000  0.90400000  0.75540000  1.0 -0.8700421688
O  O187  1  0.07530000  0.40400000  0.74460000  1.0 -0.8700421688
O  O188  1  0.42470000  0.59600000  0.24460000  1.0 -0.8700421688
O  O189  1  0.43100000  0.97790000  0.24700000  1.0 -0.8700421688
O  O190  1  0.06900000  0.02210000  0.74700000  1.0 -0.8700421688
O  O191  1  0.93100000  0.52210000  0.75300000  1.0 -0.8700421688
O  O192  1  0.56900000  0.47790000  0.25300000  1.0 -0.8700421688
O  O193  1  0.36850000  0.93410000  0.14040000  1.0 -0.7806039347
O  O194  1  0.13150000  0.06590000  0.64040000  1.0 -0.7806039347
O  O195  1  0.86850000  0.56590000  0.85960000  1.0 -0.7806039347
O  O196  1  0.63150000  0.43410000  0.35960000  1.0 -0.7806039347
O  O197  1  0.30400000  0.91120000  0.25870000  1.0 -0.8315944626
O  O198  1  0.19600000  0.08880000  0.75870000  1.0 -0.8315944626
O  O199  1  0.80400000  0.58880000  0.74130000  1.0 -0.8315944626
O  O200  1  0.69600000  0.41120000  0.24130000  1.0 -0.8315944626
O  O201  1  0.43330000  0.84080000  0.16660000  1.0 -0.8416761278
O  O202  1  0.06670000  0.15920000  0.66666667  1.0 -0.8416761278
O  O203  1  0.93330000  0.65920000  0.83340000  1.0 -0.8416761278
O  O204  1  0.56670000  0.34080000  0.33340000  1.0 -0.8416761278
O  O205  1  0.71580000  0.00080000  0.04300000  1.0 -0.8890645764
O  O206  1  0.78420000  0.99920000  0.54300000  1.0 -0.8890645764
O  O207  1  0.21580000  0.49920000  0.95700000  1.0 -0.8890645764
O  O208  1  0.28420000  0.50080000  0.45700000  1.0 -0.8890645764
O  O209  1  0.42410000  0.11710000  0.99820000  1.0 -0.8700421688
O  O210  1  0.07590000  0.88290000  0.49820000  1.0 -0.8700421688
O  O211  1  0.92410000  0.38290000  0.00180000  1.0 -0.8700421688
O  O212  1  0.57590000  0.61710000  0.50180000  1.0 -0.8700421688
O  O213  1  0.29210000  0.86490000  0.18860000  1.0 -0.8503760228
O  O214  1  0.20790000  0.13510000  0.68860000  1.0 -0.8503760228
O  O215  1  0.79210000  0.63510000  0.81140000  1.0 -0.8503760228
O  O216  1  0.70790000  0.36490000  0.31140000  1.0 -0.8503760228
O  O217  1  0.30550000  0.93440000  0.96740000  1.0 -0.8890645764
O  O218  1  0.19450000  0.06560000  0.46740000  1.0 -0.8890645764
O  O219  1  0.80550000  0.56560000  0.03260000  1.0 -0.8890645764
O  O220  1  0.69450000  0.43440000  0.53260000  1.0 -0.8890645764
O  O221  1  0.28940000  0.09980000  0.19840000  1.0 -0.8993228398
O  O222  1  0.21060000  0.90020000  0.69840000  1.0 -0.8993228398
O  O223  1  0.78940000  0.40020000  0.80160000  1.0 -0.8993228398
O  O224  1  0.71060000  0.59980000  0.30160000  1.0 -0.8993228398
O  O225  1  0.92500000  0.87070000  0.11640000  1.0 -0.8503760228
O  O226  1  0.57500000  0.12930000  0.61640000  1.0 -0.8503760228
O  O227  1  0.42500000  0.62930000  0.88360000  1.0 -0.8503760228
O  O228  1  0.07500000  0.37070000  0.38360000  1.0 -0.8503760228
O  O229  1  0.51820000  0.07080000  0.94870000  1.0 -0.8315944626
O  O230  1  0.98180000  0.92920000  0.44870000  1.0 -0.8315944626
O  O231  1  0.01820000  0.42920000  0.05130000  1.0 -0.8315944626
O  O232  1  0.48180000  0.57080000  0.55130000  1.0 -0.8315944626
O  O233  1  0.90780000  0.98960000  0.12540000  1.0 -0.8890645764
O  O234  1  0.59220000  0.01040000  0.62540000  1.0 -0.8890645764
O  O235  1  0.40780000  0.51040000  0.87460000  1.0 -0.8890645764
O  O236  1  0.09220000  0.48960000  0.37460000  1.0 -0.8890645764
O  O237  1  0.11020000  0.98630000  0.11410000  1.0 -0.8993228398
O  O238  1  0.38980000  0.01370000  0.61410000  1.0 -0.8993228398
O  O239  1  0.61020000  0.51370000  0.88590000  1.0 -0.8993228398
O  O240  1  0.88980000  0.48630000  0.38590000  1.0 -0.8993228398
O  O241  1  0.50600000  0.92960000  0.19320000  1.0 -0.791730561
O  O242  1  0.99400000  0.07040000  0.69320000  1.0 -0.791730561
O  O243  1  0.00600000  0.57040000  0.80680000  1.0 -0.791730561
O  O244  1  0.49400000  0.42960000  0.30680000  1.0 -0.791730561
O  O245  1  0.50060000  0.90730000  0.29950000  1.0 -0.8817497143
O  O246  1  0.99940000  0.09270000  0.79950000  1.0 -0.8817497143
O  O247  1  0.00060000  0.59270000  0.70050000  1.0 -0.8817497143
O  O248  1  0.49940000  0.40730000  0.20050000  1.0 -0.8817497143
O  O249  1  0.60220000  0.88730000  0.99180000  1.0 -0.8503760228
O  O250  1  0.89780000  0.11270000  0.49180000  1.0 -0.8503760228
O  O251  1  0.10220000  0.61270000  0.00820000  1.0 -0.8503760228
O  O252  1  0.39780000  0.38730000  0.50820000  1.0 -0.8503760228
O  O253  1  0.39550000  0.89140000  0.91050000  1.0 -0.5487002476
O  O254  1  0.10450000  0.10860000  0.41050000  1.0 -0.5487002476
O  O255  1  0.89550000  0.60860000  0.08950000  1.0 -0.5487002476
O  O256  1  0.60450000  0.39140000  0.58950000  1.0 -0.5487002476
O  O257  1  0.38930000  0.20830000  0.04460000  1.0 -0.8503760228
O  O258  1  0.11070000  0.79170000  0.54460000  1.0 -0.8503760228
O  O259  1  0.88930000  0.29170000  0.95540000  1.0 -0.8503760228
O  O260  1  0.61070000  0.70830000  0.45540000  1.0 -0.8503760228
O  O261  1  0.72580000  0.94170000  0.97390000  1.0 -0.8617238496
O  O262  1  0.77420000  0.05830000  0.47390000  1.0 -0.8617238496
O  O263  1  0.22580000  0.55830000  0.02610000  1.0 -0.8617238496
O  O264  1  0.27420000  0.44170000  0.52610000  1.0 -0.8617238496
O  O265  1  0.49640000  0.04040000  0.30480000  1.0 -0.8817497143
O  O266  1  0.00360000  0.95960000  0.80480000  1.0 -0.8817497143
O  O267  1  0.99640000  0.45960000  0.69520000  1.0 -0.8817497143
O  O268  1  0.50360000  0.54040000  0.19520000  1.0 -0.8817497143
O  O269  1  0.85280000  0.12090000  0.00860000  1.0 -0.8890645764
O  O270  1  0.64720000  0.87910000  0.50860000  1.0 -0.8890645764
O  O271  1  0.35280000  0.37910000  0.99140000  1.0 -0.8890645764
O  O272  1  0.14720000  0.62090000  0.49140000  1.0 -0.8890645764
O  O273  1  0.71860000  0.86250000  0.19370000  1.0 -0.8617238496
O  O274  1  0.78140000  0.13750000  0.69370000  1.0 -0.8617238496
O  O275  1  0.21860000  0.63750000  0.80630000  1.0 -0.8617238496
O  O276  1  0.28140000  0.36250000  0.30630000  1.0 -0.8617238496
O  O277  1  0.59650000  0.04970000  0.06340000  1.0 -0.7017514302
O  O278  1  0.90350000  0.95030000  0.56340000  1.0 -0.7017514302
O  O279  1  0.09650000  0.45030000  0.93660000  1.0 -0.7017514302
O  O280  1  0.40350000  0.54970000  0.43660000  1.0 -0.7017514302
O  O281  1  0.42580000  0.00220000  0.99570000  1.0 -0.8700421688
O  O282  1  0.07420000  0.99780000  0.49570000  1.0 -0.8700421688
O  O283  1  0.92580000  0.49780000  0.00430000  1.0 -0.8700421688
O  O284  1  0.57420000  0.50220000  0.50430000  1.0 -0.8700421688
O  O285  1  0.85530000  0.88710000  0.99480000  1.0 -0.5697795941
O  O286  1  0.64470000  0.11290000  0.49480000  1.0 -0.5697795941
O  O287  1  0.35530000  0.61290000  0.00520000  1.0 -0.5697795941
O  O288  1  0.14470000  0.38710000  0.50520000  1.0 -0.5697795941
O  O289  1  0.24620000  0.10580000  0.12610000  1.0 -0.9401857747
O  O290  1  0.25380000  0.89420000  0.62610000  1.0 -0.9401857747
O  O291  1  0.74620000  0.39420000  0.87390000  1.0 -0.9401857747
O  O292  1  0.75380000  0.60580000  0.37390000  1.0 -0.9401857747
O  O293  1  0.42960000  0.85900000  0.24480000  1.0 -0.8700421688
O  O294  1  0.07040000  0.14100000  0.74480000  1.0 -0.8700421688
O  O295  1  0.92960000  0.64100000  0.75520000  1.0 -0.8700421688
O  O296  1  0.57040000  0.35900000  0.25520000  1.0 -0.8700421688
O  O297  1  0.72330000  0.87960000  0.03800000  1.0 -0.8890645764
O  O298  1  0.77670000  0.12040000  0.53800000  1.0 -0.8890645764
O  O299  1  0.22330000  0.62040000  0.96200000  1.0 -0.8890645764
O  O300  1  0.27670000  0.37960000  0.46200000  1.0 -0.8890645764
O  O301  1  0.60010000  0.94430000  0.05970000  1.0 -0.791730561
O  O302  1  0.89990000  0.05570000  0.55970000  1.0 -0.791730561
O  O303  1  0.10010000  0.55570000  0.94030000  1.0 -0.791730561
O  O304  1  0.39990000  0.44430000  0.44030000  1.0 -0.791730561
O  O305  1  0.30980000  0.87650000  0.03310000  1.0 -0.8993228398
O  O306  1  0.19020000  0.12350000  0.53310000  1.0 -0.8993228398
O  O307  1  0.80980000  0.62350000  0.96690000  1.0 -0.8993228398
O  O308  1  0.69020000  0.37650000  0.46690000  1.0 -0.8993228398
O  O309  1  0.17670000  0.85870000  0.24170000  1.0 -0.8198452999
O  O310  1  0.32330000  0.14130000  0.74170000  1.0 -0.8198452999
O  O311  1  0.67670000  0.64130000  0.75830000  1.0 -0.8198452999
O  O312  1  0.82330000  0.35870000  0.25830000  1.0 -0.8198452999
O  O313  1  0.84050000  0.86660000  0.24640000  1.0 -0.5604970846
O  O314  1  0.65950000  0.13340000  0.74640000  1.0 -0.5604970846
O  O315  1  0.34050000  0.63340000  0.75360000  1.0 -0.5604970846
O  O316  1  0.15950000  0.36660000  0.25360000  1.0 -0.5604970846
O  O317  1  0.64220000  0.01010000  0.93030000  1.0 -0.8817497143
O  O318  1  0.85780000  0.98990000  0.43030000  1.0 -0.8817497143
O  O319  1  0.14220000  0.48990000  0.06970000  1.0 -0.8817497143
O  O320  1  0.35780000  0.51010000  0.56970000  1.0 -0.8817497143
O  O321  1  0.57940000  0.12830000  0.17930000  1.0 -0.8315944626
O  O322  1  0.92060000  0.87170000  0.67930000  1.0 -0.8315944626
O  O323  1  0.07940000  0.37170000  0.82070000  1.0 -0.8315944626
O  O324  1  0.42060000  0.62830000  0.32070000  1.0 -0.8315944626
O  O325  1  0.69720000  0.20090000  0.16330000  1.0 -0.6200642007
O  O326  1  0.80280000  0.79910000  0.66330000  1.0 -0.6200642007
O  O327  1  0.19720000  0.29910000  0.83670000  1.0 -0.6200642007
O  O328  1  0.30280000  0.70090000  0.33670000  1.0 -0.6200642007
O  O329  1  0.50570000  0.03480000  0.19760000  1.0 -0.7017514302
O  O330  1  0.99430000  0.96520000  0.69760000  1.0 -0.7017514302
O  O331  1  0.00570000  0.46520000  0.80240000  1.0 -0.7017514302
O  O332  1  0.49430000  0.53480000  0.30240000  1.0 -0.7017514302
O  O333  1  0.63550000  0.86220000  0.32120000  1.0 -0.7671379193
O  O334  1  0.86450000  0.13780000  0.82120000  1.0 -0.7671379193
O  O335  1  0.13550000  0.63780000  0.67880000  1.0 -0.7671379193
O  O336  1  0.36450000  0.36220000  0.17880000  1.0 -0.7671379193
O  O337  1  0.37270000  0.85580000  0.31760000  1.0 -0.5487002476
O  O338  1  0.12730000  0.14420000  0.81760000  1.0 -0.5487002476
O  O339  1  0.87270000  0.64420000  0.68240000  1.0 -0.5487002476
O  O340  1  0.62730000  0.35580000  0.18240000  1.0 -0.5487002476
O  O341  1  0.70530000  0.91760000  0.26180000  1.0 -0.8315944626
O  O342  1  0.79470000  0.08240000  0.76180000  1.0 -0.8315944626
O  O343  1  0.20530000  0.58240000  0.73820000  1.0 -0.8315944626
O  O344  1  0.29470000  0.41760000  0.23820000  1.0 -0.8315944626
O  O345  1  0.50820000  0.76910000  0.21330000  1.0 -0.5205703571
O  O346  1  0.99180000  0.23090000  0.71330000  1.0 -0.5205703571
O  O347  1  0.00820000  0.73090000  0.78670000  1.0 -0.5205703571
O  O348  1  0.49180000  0.26910000  0.28670000  1.0 -0.5205703571
O  O349  1  0.42610000  0.94280000  0.05760000  1.0 -0.791730561
O  O350  1  0.07390000  0.05720000  0.55760000  1.0 -0.791730561
O  O351  1  0.92610000  0.55720000  0.94240000  1.0 -0.791730561
O  O352  1  0.57390000  0.44280000  0.44240000  1.0 -0.791730561
O  O353  1  0.31220000  0.19260000  0.15890000  1.0 -0.7404659434
O  O354  1  0.18780000  0.80740000  0.65890000  1.0 -0.7404659434
O  O355  1  0.81220000  0.30740000  0.84110000  1.0 -0.7404659434
O  O356  1  0.68780000  0.69260000  0.34110000  1.0 -0.7404659434
O  O357  1  0.25070000  0.98560000  0.12220000  1.0 -0.8817497143
O  O358  1  0.24930000  0.01440000  0.62220000  1.0 -0.8817497143
O  O359  1  0.75070000  0.51440000  0.87780000  1.0 -0.8817497143
O  O360  1  0.74930000  0.48560000  0.37780000  1.0 -0.8817497143
O  O361  1  0.36640000  0.03910000  0.14410000  1.0 -0.7017514302
O  O362  1  0.13360000  0.96090000  0.64410000  1.0 -0.7017514302
O  O363  1  0.86640000  0.46090000  0.85590000  1.0 -0.7017514302
O  O364  1  0.63360000  0.53910000  0.35590000  1.0 -0.7017514302
O  O365  1  0.64730000  0.04030000  0.14770000  1.0 -0.7106573129
O  O366  1  0.85270000  0.95970000  0.64770000  1.0 -0.7106573129
O  O367  1  0.14730000  0.45970000  0.85230000  1.0 -0.7106573129
O  O368  1  0.35270000  0.54030000  0.35230000  1.0 -0.7106573129
O  O369  1  0.35980000  0.08700000  0.32390000  1.0 -0.8198452999
O  O370  1  0.14020000  0.91300000  0.82390000  1.0 -0.8132796805
O  O371  1  0.85980000  0.41300000  0.67610000  1.0 -0.8132796805
O  O372  1  0.64020000  0.58700000  0.17610000  1.0 -0.8132796805
O  O373  1  0.32130000  0.77520000  0.14110000  1.0 -0.7530356242
O  O374  1  0.17870000  0.22480000  0.64110000  1.0 -0.7530356242
O  O375  1  0.82130000  0.72480000  0.85890000  1.0 -0.7530356242
O  O376  1  0.67870000  0.27520000  0.35890000  1.0 -0.7530356242
O  O377  1  0.57900000  0.84300000  0.16790000  1.0 -0.8503760228
O  O378  1  0.92100000  0.15700000  0.66790000  1.0 -0.8503760228
O  O379  1  0.07900000  0.65700000  0.83210000  1.0 -0.8503760228
O  O380  1  0.42100000  0.34300000  0.33210000  1.0 -0.8503760228
O  O381  1  0.62280000  0.97360000  0.31560000  1.0 -0.8993228398
O  O382  1  0.87720000  0.02640000  0.81560000  1.0 -0.8993228398
O  O383  1  0.12280000  0.52640000  0.68440000  1.0 -0.8993228398
O  O384  1  0.37720000  0.47360000  0.18440000  1.0 -0.8993228398
O  O385  1  0.62480000  0.08990000  0.32860000  1.0 -0.718874131
O  O386  1  0.87520000  0.91010000  0.82860000  1.0 -0.718874131
O  O387  1  0.12480000  0.41010000  0.67140000  1.0 -0.718874131
O  O388  1  0.37520000  0.58990000  0.17140000  1.0 -0.718874131
O  O389  1  0.51510000  0.94420000  0.94510000  1.0 -0.8198452999
O  O390  1  0.98490000  0.05580000  0.44510000  1.0 -0.8198452999
O  O391  1  0.01510000  0.55580000  0.05490000  1.0 -0.8198452999
O  O392  1  0.48490000  0.44420000  0.55490000  1.0 -0.8198452999
O  O393  1  0.28790000  0.97940000  0.19080000  1.0 -0.8817497143
O  O394  1  0.21210000  0.02060000  0.69080000  1.0 -0.8817497143
O  O395  1  0.78790000  0.52060000  0.80920000  1.0 -0.8817497143
O  O396  1  0.71210000  0.47940000  0.30920000  1.0 -0.8817497143
O  O397  1  0.83780000  0.06070000  0.07510000  1.0 -0.8700421688
O  O398  1  0.66220000  0.93930000  0.57510000  1.0 -0.8700421688
O  O399  1  0.33780000  0.43930000  0.92490000  1.0 -0.8700421688
O  O400  1  0.16220000  0.56070000  0.42490000  1.0 -0.8700421688
O  O401  1  0.16770000  0.04560000  0.17480000  1.0 -0.8617238496
O  O402  1  0.33230000  0.95440000  0.67480000  1.0 -0.8617238496
O  O403  1  0.66770000  0.45440000  0.82520000  1.0 -0.8617238496
O  O404  1  0.83230000  0.54560000  0.32520000  1.0 -0.8617238496
O  O405  1  0.69510000  0.77380000  0.14960000  1.0 -0.8198452999
O  O406  1  0.80490000  0.22620000  0.64960000  1.0 -0.8198452999
O  O407  1  0.19510000  0.72620000  0.85040000  1.0 -0.8198452999
O  O408  1  0.30490000  0.27380000  0.35040000  1.0 -0.8198452999
O  O409  1  0.64910000  0.93300000  0.14380000  1.0 -0.791730561
O  O410  1  0.85090000  0.06700000  0.64380000  1.0 -0.791730561
O  O411  1  0.14910000  0.56700000  0.85620000  1.0 -0.791730561
O  O412  1  0.35090000  0.43300000  0.35620000  1.0 -0.791730561
O  O413  1  0.17560000  0.11150000  0.99440000  1.0 -0.8132796805
O  O414  1  0.32440000  0.88850000  0.49440000  1.0 -0.8132796805
O  O415  1  0.67560000  0.38850000  0.00560000  1.0 -0.8132796805
O  O416  1  0.82440000  0.61150000  0.50560000  1.0 -0.8132796805
O  O417  1  0.84680000  0.91820000  0.17860000  1.0 -0.8700421688
O  O418  1  0.65320000  0.08180000  0.67860000  1.0 -0.8700421688
O  O419  1  0.34680000  0.58180000  0.82140000  1.0 -0.8700421688
O  O420  1  0.15320000  0.41820000  0.32140000  1.0 -0.8700421688
O  O421  1  0.42830000  0.09470000  0.25210000  1.0 -0.8890645764
O  O422  1  0.07170000  0.90530000  0.75210000  1.0 -0.8890645764
O  O423  1  0.92830000  0.40530000  0.74790000  1.0 -0.8890645764
O  O424  1  0.57170000  0.59470000  0.24790000  1.0 -0.8890645764
O  O425  1  0.63720000  0.78840000  0.02860000  1.0 -0.5814970775
O  O426  1  0.86280000  0.21160000  0.52860000  1.0 -0.5814970775
O  O427  1  0.13720000  0.71160000  0.97140000  1.0 -0.5814970775
O  O428  1  0.36280000  0.28840000  0.47140000  1.0 -0.5814970775
O  O429  1  0.43130000  0.88300000  0.98980000  1.0 -0.8700421688
O  O430  1  0.06870000  0.11700000  0.48980000  1.0 -0.8700421688
O  O431  1  0.93130000  0.61700000  0.01020000  1.0 -0.8700421688
O  O432  1  0.56870000  0.38300000  0.51020000  1.0 -0.8700421688
O  O433  1  0.83770000  0.00290000  0.00690000  1.0 -0.9069579585
O  O434  1  0.66230000  0.99710000  0.50690000  1.0 -0.9069579585
O  O435  1  0.33770000  0.49710000  0.99310000  1.0 -0.9069579585
O  O436  1  0.16230000  0.50290000  0.49310000  1.0 -0.9069579585
O  O437  1  0.09250000  0.09940000  0.11470000  1.0 -0.718874131
O  O438  1  0.40750000  0.90060000  0.61470000  1.0 -0.718874131
O  O439  1  0.59250000  0.40060000  0.88530000  1.0 -0.718874131
O  O440  1  0.90750000  0.59940000  0.38530000  1.0 -0.718874131
O  O441  1  0.30950000  0.99460000  0.03890000  1.0 -0.8817497143
O  O442  1  0.19050000  0.00540000  0.53890000  1.0 -0.8817497143
O  O443  1  0.80950000  0.50540000  0.96110000  1.0 -0.8817497143
O  O444  1  0.69050000  0.49460000  0.46110000  1.0 -0.8817497143
O  O445  1  0.64540000  0.12650000  0.92600000  1.0 -0.5311658277
O  O446  1  0.85460000  0.87350000  0.42600000  1.0 -0.5311658277
O  O447  1  0.14540000  0.37350000  0.07400000  1.0 -0.5311658277
O  O448  1  0.35460000  0.62650000  0.57400000  1.0 -0.5311658277
O  O449  1  0.39650000  0.12000000  0.92040000  1.0 -0.5604970846
O  O450  1  0.10350000  0.88000000  0.42040000  1.0 -0.5604970846
O  O451  1  0.89650000  0.38000000  0.07960000  1.0 -0.5604970846
O  O452  1  0.60350000  0.62000000  0.57960000  1.0 -0.5604970846
O  O453  1  0.39560000  0.00470000  0.92550000  1.0 -0.9069579585
O  O454  1  0.10440000  0.99530000  0.42550000  1.0 -0.9069579585
O  O455  1  0.89560000  0.49530000  0.07450000  1.0 -0.9069579585
O  O456  1  0.60440000  0.50470000  0.57450000  1.0 -0.9069579585
O  O457  1  0.57970000  0.85980000  0.24460000  1.0 -0.8890645764
O  O458  1  0.92030000  0.14020000  0.74460000  1.0 -0.8890645764
O  O459  1  0.07970000  0.64020000  0.75540000  1.0 -0.8890645764
O  O460  1  0.42030000  0.35980000  0.25540000  1.0 -0.8890645764
O  O461  1  0.40450000  0.78260000  0.02610000  1.0 -0.6200642007
O  O462  1  0.09550000  0.21740000  0.52610000  1.0 -0.6200642007
O  O463  1  0.90450000  0.71740000  0.97390000  1.0 -0.6200642007
O  O464  1  0.59550000  0.28260000  0.47390000  1.0 -0.6200642007
O  O465  1  0.70050000  0.04110000  0.26990000  1.0 -0.8416761278
O  O466  1  0.79950000  0.95890000  0.76990000  1.0 -0.8416761278
O  O467  1  0.20050000  0.45890000  0.73010000  1.0 -0.8416761278
O  O468  1  0.29950000  0.54110000  0.23010000  1.0 -0.8416761278
O  O469  1  0.83300000  0.09450000  0.25980000  1.0 -0.6000159352
O  O470  1  0.66700000  0.90550000  0.75980000  1.0 -0.6000159352
O  O471  1  0.33300000  0.40550000  0.74020000  1.0 -0.6000159352
O  O472  1  0.16700000  0.59450000  0.24020000  1.0 -0.6000159352
O  O473  1  0.17340000  0.88070000  0.98960000  1.0 -0.5604970846
O  O474  1  0.32660000  0.11930000  0.48960000  1.0 -0.5604970846
O  O475  1  0.67340000  0.61930000  0.01040000  1.0 -0.5604970846
O  O476  1  0.82660000  0.38070000  0.51040000  1.0 -0.5604970846
O  O477  1  0.60250000  0.00260000  0.99890000  1.0 -0.8700421688
O  O478  1  0.89750000  0.99740000  0.49890000  1.0 -0.8700421688
O  O479  1  0.10250000  0.49740000  0.00110000  1.0 -0.8700421688
O  O480  1  0.39750000  0.50260000  0.50110000  1.0 -0.8700421688
O  O481  1  0.38390000  0.13410000  0.10490000  1.0 -0.8132796805
O  O482  1  0.11610000  0.86590000  0.60490000  1.0 -0.8132796805
O  O483  1  0.88390000  0.36590000  0.89510000  1.0 -0.8132796805
O  O484  1  0.61610000  0.63410000  0.39510000  1.0 -0.8132796805
O  O485  1  0.76720000  0.98930000  0.12910000  1.0 -0.8890645764
O  O486  1  0.73280000  0.01070000  0.62910000  1.0 -0.8890645764
O  O487  1  0.26720000  0.51070000  0.87090000  1.0 -0.8890645764
O  O488  1  0.23280000  0.48930000  0.37090000  1.0 -0.8890645764
O  O489  1  0.63900000  0.89480000  0.91570000  1.0 -0.5205703571
O  O490  1  0.86100000  0.10520000  0.41570000  1.0 -0.5205703571
O  O491  1  0.13900000  0.60520000  0.08430000  1.0 -0.5205703571
O  O492  1  0.36100000  0.39480000  0.58430000  1.0 -0.5205703571
O  O493  1  0.50120000  0.19050000  0.23170000  1.0 -0.5697795941
O  O494  1  0.99880000  0.80950000  0.73170000  1.0 -0.5697795941
O  O495  1  0.00120000  0.30950000  0.76830000  1.0 -0.5697795941
O  O496  1  0.49880000  0.69050000  0.26830000  1.0 -0.5697795941
O  O497  1  0.71960000  0.10230000  0.20430000  1.0 -0.8993228398
O  O498  1  0.78040000  0.89770000  0.70430000  1.0 -0.8993228398
O  O499  1  0.21960000  0.39770000  0.79570000  1.0 -0.8993228398
O  O500  1  0.28040000  0.60230000  0.29570000  1.0 -0.8993228398
O  O501  1  0.72510000  0.07140000  0.98000000  1.0 -0.8503760228
O  O502  1  0.77490000  0.92860000  0.48000000  1.0 -0.8503760228
O  O503  1  0.22510000  0.42860000  0.02000000  1.0 -0.8503760228
O  O504  1  0.27490000  0.57140000  0.52000000  1.0 -0.8503760228
O  O505  1  0.60070000  0.12030000  0.00260000  1.0 -0.8700421688
O  O506  1  0.89930000  0.87970000  0.50260000  1.0 -0.8700421688
O  O507  1  0.10070000  0.37970000  0.99740000  1.0 -0.8700421688
O  O508  1  0.39930000  0.62030000  0.49740000  1.0 -0.8700421688
O  O509  1  0.84210000  0.05110000  0.18500000  1.0 -0.8617238496
O  O510  1  0.65790000  0.94890000  0.68500000  1.0 -0.8617238496
O  O511  1  0.34210000  0.44890000  0.81500000  1.0 -0.8617238496
O  O512  1  0.15790000  0.55110000  0.31500000  1.0 -0.8617238496
O  O513  1  0.62590000  0.21000000  0.04850000  1.0 -0.8019809543
O  O514  1  0.87410000  0.79000000  0.54850000  1.0 -0.8019809543
O  O515  1  0.12590000  0.29000000  0.95150000  1.0 -0.8019809543
O  O516  1  0.37410000  0.71000000  0.45150000  1.0 -0.8019809543
O  O517  1  0.42310000  0.04640000  0.06080000  1.0 -0.7106573129
O  O518  1  0.07690000  0.95360000  0.56080000  1.0 -0.7106573129
O  O519  1  0.92310000  0.45360000  0.93920000  1.0 -0.7106573129
O  O520  1  0.57690000  0.54640000  0.43920000  1.0 -0.7106573129
O  O521  1  0.18660000  0.05480000  0.06220000  1.0 -0.8700421688
O  O522  1  0.31340000  0.94520000  0.56220000  1.0 -0.8700421688
O  O523  1  0.68660000  0.44520000  0.93780000  1.0 -0.8700421688
O  O524  1  0.81340000  0.55480000  0.43780000  1.0 -0.8700421688
O  O525  1  0.16280000  0.09130000  0.24690000  1.0 -0.8700421688
O  O526  1  0.33720000  0.90870000  0.74690000  1.0 -0.8700421688
O  O527  1  0.66280000  0.40870000  0.75310000  1.0 -0.8700421688
O  O528  1  0.83720000  0.59130000  0.25310000  1.0 -0.8700421688
O  O529  1  0.09000000  0.87140000  0.11240000  1.0 -0.7530356242
O  O530  1  0.41000000  0.12860000  0.61240000  1.0 -0.7530356242
O  O531  1  0.59000000  0.62860000  0.88760000  1.0 -0.7530356242
O  O532  1  0.91000000  0.37140000  0.38760000  1.0 -0.7530356242
O  O533  1  0.11170000  0.22390000  0.03040000  1.0 -0.4481192424
O  O534  1  0.38830000  0.77610000  0.53040000  1.0 -0.4481192424
O  O535  1  0.61170000  0.27610000  0.96960000  1.0 -0.4481192424
O  O536  1  0.88830000  0.72390000  0.46960000  1.0 -0.4481192424
O  O537  1  0.11550000  0.11290000  0.91660000  1.0 -0.8019809543
O  O538  1  0.38450000  0.88710000  0.41660000  1.0 -0.8019809543
O  O539  1  0.61550000  0.38710000  0.08340000  1.0 -0.8019809543
O  O540  1  0.88450000  0.61290000  0.58340000  1.0 -0.8019809543
O  O541  1  0.26490000  0.29650000  0.04360000  1.0 -0.3784537345
O  O542  1  0.23510000  0.70350000  0.54360000  1.0 -0.3712514608
O  O543  1  0.76490000  0.20350000  0.95640000  1.0 -0.3712514608
O  O544  1  0.73510000  0.79650000  0.45640000  1.0 -0.3712514608
O  O545  1  0.37780000  0.39320000  0.07160000  1.0 -0.5906198516
O  O546  1  0.12220000  0.60680000  0.57160000  1.0 -0.5906198516
O  O547  1  0.87780000  0.10680000  0.92840000  1.0 -0.5906198516
O  O548  1  0.62220000  0.89320000  0.42840000  1.0 -0.5906198516
O  O549  1  0.74200000  0.80190000  0.36620000  1.0 -0.7671379193
O  O550  1  0.75800000  0.19810000  0.86620000  1.0 -0.7671379193
O  O551  1  0.24200000  0.69810000  0.63380000  1.0 -0.7671379193
O  O552  1  0.25800000  0.30190000  0.13380000  1.0 -0.7671379193
O  O553  1  0.01970000  0.68690000  0.10400000  1.0 -0.317477171
O  O554  1  0.48030000  0.31310000  0.60400000  1.0 -0.317477171
O  O555  1  0.51970000  0.81310000  0.89600000  1.0 -0.317477171
O  O556  1  0.98030000  0.18690000  0.39600000  1.0 -0.317477171
O  O557  1  0.02050000  0.74430000  0.02730000  1.0 -0.1288082979
O  O558  1  0.47950000  0.25570000  0.52730000  1.0 -0.1288082979
O  O559  1  0.52050000  0.75570000  0.97270000  1.0 -0.1288082979
O  O560  1  0.97950000  0.24430000  0.47270000  1.0 -0.1288082979
O  O561  1  0.02070000  0.86550000  0.03830000  1.0 -0.6124583838
O  O562  1  0.47930000  0.13450000  0.53830000  1.0 -0.6200642007
O  O563  1  0.52070000  0.63450000  0.96170000  1.0 -0.6124583838
O  O564  1  0.97930000  0.36550000  0.46170000  1.0 -0.6124583838
O  O565  1  0.00680000  0.76720000  0.31520000  1.0 -0.7671379193
O  O566  1  0.49320000  0.23280000  0.81520000  1.0 -0.7671379193
O  O567  1  0.50680000  0.73280000  0.68480000  1.0 -0.7671379193
O  O568  1  0.99320000  0.26720000  0.18480000  1.0 -0.7671379193
O  O569  1  0.12300000  0.68570000  0.30680000  1.0 -0.1611416198
O  O570  1  0.37700000  0.31430000  0.80680000  1.0 -0.1611416198
O  O571  1  0.62300000  0.81430000  0.69320000  1.0 -0.1611416198
O  O572  1  0.87700000  0.18570000  0.19320000  1.0 -0.1611416198
O  O573  1  0.21840000  0.79650000  0.32040000  1.0 -0.1093125014
O  O574  1  0.28160000  0.20350000  0.82040000  1.0 -0.1093125014
O  O575  1  0.71840000  0.70350000  0.67960000  1.0 -0.1093125014
O  O576  1  0.78160000  0.29650000  0.17960000  1.0 -0.1093125014
O  O577  1  0.09270000  0.87390000  0.31390000  1.0 -0.476987031
O  O578  1  0.40730000  0.12610000  0.81390000  1.0 -0.476987031
O  O579  1  0.59270000  0.62610000  0.68610000  1.0 -0.476987031
O  O580  1  0.90730000  0.37390000  0.18610000  1.0 -0.476987031
O  O581  1  0.33510000  0.59680000  0.09160000  1.0 -0.2438354784
O  O582  1  0.16490000  0.40320000  0.59160000  1.0 -0.2457079186
O  O583  1  0.83510000  0.90320000  0.90840000  1.0 -0.2438354784
O  O584  1  0.66490000  0.09680000  0.40840000  1.0 -0.2438354784
O  O585  1  0.21430000  0.60200000  0.15260000  1.0 -0.4413942068
O  O586  1  0.28570000  0.39800000  0.65260000  1.0 -0.4413942068
O  O587  1  0.71430000  0.89800000  0.84740000  1.0 -0.4413942068
O  O588  1  0.78570000  0.10200000  0.34740000  1.0 -0.4413942068
O  O589  1  0.65360000  0.59930000  0.09310000  1.0 -0.5442868068
O  O590  1  0.84640000  0.40070000  0.59310000  1.0 -0.5442868068
O  O591  1  0.15360000  0.90070000  0.90690000  1.0 -0.5442868068
O  O592  1  0.34640000  0.09930000  0.40690000  1.0 -0.5442868068
O  O593  1  0.78190000  0.59750000  0.14080000  1.0 -0.4037643268
O  O594  1  0.71810000  0.40250000  0.64080000  1.0 -0.4037643268
O  O595  1  0.28190000  0.90250000  0.85920000  1.0 -0.4065426781
O  O596  1  0.21810000  0.09750000  0.35920000  1.0 -0.4065426781
O  O597  1  0.76950000  0.67530000  0.19840000  1.0 -0.0831202983
O  O598  1  0.73050000  0.32470000  0.69840000  1.0 -0.0831202983
O  O599  1  0.26950000  0.82470000  0.80160000  1.0 -0.0858903198
O  O600  1  0.23050000  0.17530000  0.30160000  1.0 -0.0831202983
O  O601  1  0.63440000  0.70080000  0.20650000  1.0 -0.0628566264
O  O602  1  0.86560000  0.29920000  0.70650000  1.0 -0.0628566264
O  O603  1  0.13440000  0.79920000  0.79350000  1.0 -0.0628566264
O  O604  1  0.36560000  0.20080000  0.29350000  1.0 -0.0628566264
O  O605  1  0.19100000  0.21700000  0.24560000  1.0 -0.3712514608
O  O606  1  0.30900000  0.78300000  0.74560000  1.0 -0.3712514608
O  O607  1  0.69100000  0.28300000  0.75440000  1.0 -0.3648656501
O  O608  1  0.80900000  0.71700000  0.25440000  1.0 -0.3712514608
O  O609  1  0.02680000  0.01330000  0.97510000  1.0 -0.2110480095
O  O610  1  0.47320000  0.98670000  0.47510000  1.0 -0.2110480095
O  O611  1  0.52680000  0.48670000  0.02490000  1.0 -0.2110480095
O  O612  1  0.97320000  0.51330000  0.52490000  1.0 -0.2110480095
O  O613  1  0.00000000  0.09710000  0.22670000  1.0 -0.2718312039
O  O614  1  0.50000000  0.90290000  0.72670000  1.0 -0.2718312039
O  O615  1  0.50000000  0.40290000  0.77330000  1.0 -0.2718312039
O  O616  1  0.00000000  0.59710000  0.27330000  1.0 -0.2718312039
O  O617  1  0.01540000  0.99630000  0.19050000  1.0 -0.0393003269
O  O618  1  0.48460000  0.00370000  0.69050000  1.0 -0.0329865944
O  O619  1  0.51540000  0.50370000  0.80950000  1.0 -0.0329865944
O  O620  1  0.98460000  0.49630000  0.30950000  1.0 -0.0329865944
O  O621  1  0.51080000  0.04710000  0.12390000  1.0 0.271099645
O  O622  1  0.98920000  0.95290000  0.62390000  1.0 0.271099645
O  O623  1  0.01080000  0.45290000  0.87610000  1.0 0.271099645
O  O624  1  0.48920000  0.54710000  0.37610000  1.0 0.271099645
