# DDEC6 charges by PACMAN v1.1 (https://github.com/mtap-research/PACMAN-charge/)
data_RIPWIY_ion_pacman
_symmetry_space_group_name_H-M   'P 1'
_cell_length_a   18.25610000
_cell_length_b   18.25610000
_cell_length_c   24.55830000
_cell_angle_alpha   75.00530000
_cell_angle_beta   104.99500000
_cell_angle_gamma   105.35300000
_symmetry_Int_Tables_number   1
_chemical_formula_structural   K4Na2Sm4Cu2P5H8W30C6N2(ClO35)4
_chemical_formula_sum   'K8 Na4 Sm8 Cu4 P10 H16 W60 C12 N4 Cl8 O280'
_cell_volume   7463.38241550
_cell_formula_units_Z   2
loop_
 _symmetry_equiv_pos_site_id
 _symmetry_equiv_pos_as_xyz
  1  'x, y, z'
loop_
 _atom_site_type_symbol
 _atom_site_label
 _atom_site_symmetry_multiplicity
 _atom_site_fract_x
 _atom_site_fract_y
 _atom_site_fract_z
 _atom_site_occupancy
 _atom_site_charge
K  K1  1  0.51679000  0.04701000  0.53020000  1.0 0.3471260927
K  K2  1  0.04701000  0.51679000  0.96980000  1.0 0.339135643
K  K3  1  0.48321000  0.95299000  0.46980000  1.0 0.339135643
K  K4  1  0.95299000  0.48321000  0.03020000  1.0 0.3471260927
K  K5  1  0.26030000  0.17130000  0.42460000  1.0 0.918204125
K  K6  1  0.17130000  0.26030000  0.07540000  1.0 0.918204125
K  K7  1  0.73970000  0.82870000  0.57540000  1.0 0.918204125
K  K8  1  0.82870000  0.73970000  0.92460000  1.0 0.918204125
Na  Na1  1  0.29120000  0.25880000  0.80810000  1.0 0.918204125
Na  Na2  1  0.25880000  0.29120000  0.69190000  1.0 0.918204125
Na  Na3  1  0.70880000  0.74120000  0.19190000  1.0 0.918204125
Na  Na4  1  0.74120000  0.70880000  0.30810000  1.0 0.918204125
Sm  Sm1  1  0.73607000  0.36637000  0.56372000  1.0 2.3159184865
Sm  Sm2  1  0.36637000  0.73607000  0.93628000  1.0 2.3122487477
Sm  Sm3  1  0.26393000  0.63363000  0.43628000  1.0 2.3122487477
Sm  Sm4  1  0.63363000  0.26393000  0.06372000  1.0 2.3159184865
Sm  Sm5  1  0.17484000  0.01894000  0.06554000  1.0 2.2463466934
Sm  Sm6  1  0.01894000  0.17484000  0.43446000  1.0 2.2463466934
Sm  Sm7  1  0.82516000  0.98106000  0.93446000  1.0 2.2463466934
Sm  Sm8  1  0.98106000  0.82516000  0.56554000  1.0 2.2463466934
Cu  Cu1  1  0.84230000  0.57950000  0.74480000  1.0 0.9083823822
Cu  Cu2  1  0.57950000  0.84230000  0.75520000  1.0 0.9083823822
Cu  Cu3  1  0.15770000  0.42050000  0.25520000  1.0 0.9083823822
Cu  Cu4  1  0.42050000  0.15770000  0.24480000  1.0 0.9083823822
P  P1  1  0.34032000  0.11308000  0.74870000  1.0 1.4693141393
P  P2  1  0.11308000  0.34032000  0.75130000  1.0 1.4693141393
P  P3  1  0.65968000  0.88692000  0.25130000  1.0 1.4693141393
P  P4  1  0.88692000  0.65968000  0.24870000  1.0 1.4693141393
P  P5  1  0.47267000  0.33193000  0.74950000  1.0 1.4462584666
P  P6  1  0.33193000  0.47267000  0.75050000  1.0 1.4462584666
P  P7  1  0.52733000  0.66807000  0.25050000  1.0 1.4462584666
P  P8  1  0.66807000  0.52733000  0.24950000  1.0 1.4462584666
P  P9  1  0.11640000  0.11640000  0.75000000  1.0 1.4412199668
P  P10  1  0.88360000  0.88360000  0.25000000  1.0 1.4412199668
H  H1  1  0.84730000  0.44710000  0.82940000  1.0 0.2885461412
H  H2  1  0.44710000  0.84730000  0.67060000  1.0 0.2885461412
H  H3  1  0.15270000  0.55290000  0.17060000  1.0 0.2885461412
H  H4  1  0.55290000  0.15270000  0.32940000  1.0 0.2885461412
H  H5  1  0.91650000  0.46050000  0.80430000  1.0 0.2885461412
H  H6  1  0.46050000  0.91650000  0.69570000  1.0 0.2885461412
H  H7  1  0.08350000  0.53950000  0.19570000  1.0 0.2885461412
H  H8  1  0.53950000  0.08350000  0.30430000  1.0 0.2885461412
H  H9  1  0.76340000  0.40300000  0.75490000  1.0 0.1607533507
H  H10  1  0.40300000  0.76340000  0.74510000  1.0 0.1607533507
H  H11  1  0.23660000  0.59700000  0.24510000  1.0 0.1607533507
H  H12  1  0.59700000  0.23660000  0.25490000  1.0 0.1607533507
H  H13  1  0.83550000  0.37930000  0.74740000  1.0 0.1665380112
H  H14  1  0.37930000  0.83550000  0.75260000  1.0 0.1665380112
H  H15  1  0.16450000  0.62070000  0.25260000  1.0 0.1665380112
H  H16  1  0.62070000  0.16450000  0.24740000  1.0 0.1665380112
W  W1  1  0.62440000  0.23850000  0.81975000  1.0 2.4399964026
W  W2  1  0.23850000  0.62440000  0.68025000  1.0 2.4399964026
W  W3  1  0.37560000  0.76150000  0.18025000  1.0 2.4399964026
W  W4  1  0.76150000  0.37560000  0.31975000  1.0 2.4399964026
W  W5  1  0.29374000  0.92320000  0.81990000  1.0 2.4996403567
W  W6  1  0.92320000  0.29374000  0.68010000  1.0 2.4996403567
W  W7  1  0.70626000  0.07680000  0.18010000  1.0 2.4996403567
W  W8  1  0.07680000  0.70626000  0.31990000  1.0 2.4996403567
W  W9  1  0.62903000  0.44593000  0.82026000  1.0 2.4045345001
W  W10  1  0.44593000  0.62903000  0.67974000  1.0 2.406820798
W  W11  1  0.37097000  0.55407000  0.17974000  1.0 2.406820798
W  W12  1  0.55407000  0.37097000  0.32026000  1.0 2.406820798
W  W13  1  0.41235000  0.36519000  0.60353000  1.0 2.4531766586
W  W14  1  0.36519000  0.41235000  0.89647000  1.0 2.4531766586
W  W15  1  0.58765000  0.63481000  0.39647000  1.0 2.4531766586
W  W16  1  0.63481000  0.58765000  0.10353000  1.0 2.4531766586
W  W17  1  0.28936000  0.16590000  0.60268000  1.0 2.4664125681
W  W18  1  0.16590000  0.28936000  0.89732000  1.0 2.4664125681
W  W19  1  0.71064000  0.83410000  0.39732000  1.0 2.462971466
W  W20  1  0.83410000  0.71064000  0.10268000  1.0 2.462971466
W  W21  1  0.49808000  0.03614000  0.81807000  1.0 2.4399964026
W  W22  1  0.03614000  0.49808000  0.68193000  1.0 2.4399964026
W  W23  1  0.50192000  0.96386000  0.18193000  1.0 2.4399964026
W  W24  1  0.96386000  0.50192000  0.31807000  1.0 2.4399964026
W  W25  1  0.49911000  0.57743000  0.82171000  1.0 2.4338223748
W  W26  1  0.57743000  0.49911000  0.67829000  1.0 2.4338223748
W  W27  1  0.50089000  0.42257000  0.17829000  1.0 2.4338223748
W  W28  1  0.42257000  0.50089000  0.32171000  1.0 2.4338223748
W  W29  1  0.17385000  0.08809000  0.89499000  1.0 2.4907698842
W  W30  1  0.08809000  0.17385000  0.60501000  1.0 2.4907698842
W  W31  1  0.82615000  0.91191000  0.10501000  1.0 2.4907698842
W  W32  1  0.91191000  0.82615000  0.39499000  1.0 2.4907698842
W  W33  1  0.37850000  0.08774000  0.89524000  1.0 2.4664125681
W  W34  1  0.08774000  0.37850000  0.60476000  1.0 2.462971466
W  W35  1  0.62150000  0.91226000  0.10476000  1.0 2.462971466
W  W36  1  0.91226000  0.62150000  0.39524000  1.0 2.462971466
W  W37  1  0.49813000  0.28847000  0.89514000  1.0 2.4996403567
W  W38  1  0.28847000  0.49813000  0.60486000  1.0 2.4996403567
W  W39  1  0.50187000  0.71153000  0.10486000  1.0 2.4996403567
W  W40  1  0.71153000  0.50187000  0.39514000  1.0 2.4996403567
W  W41  1  0.46897000  0.09343000  0.67527000  1.0 2.4818012528
W  W42  1  0.09343000  0.46897000  0.82473000  1.0 2.4818012528
W  W43  1  0.53103000  0.90657000  0.32473000  1.0 2.4818012528
W  W44  1  0.90657000  0.53103000  0.17527000  1.0 2.4818012528
W  W45  1  0.96622000  0.06470000  0.82197000  1.0 2.4907698842
W  W46  1  0.06470000  0.96622000  0.67803000  1.0 2.4907698842
W  W47  1  0.03378000  0.93530000  0.17803000  1.0 2.4907698842
W  W48  1  0.93530000  0.03378000  0.32197000  1.0 2.4907698842
W  W49  1  0.59108000  0.29776000  0.67724000  1.0 2.4907698842
W  W50  1  0.29776000  0.59108000  0.82276000  1.0 2.4907698842
W  W51  1  0.40892000  0.70224000  0.32276000  1.0 2.4907698842
W  W52  1  0.70224000  0.40892000  0.17724000  1.0 2.4907698842
W  W53  1  0.92739000  0.08623000  0.67961000  1.0 2.4664125681
W  W54  1  0.08623000  0.92739000  0.82039000  1.0 2.4664125681
W  W55  1  0.07261000  0.91377000  0.32039000  1.0 2.4664125681
W  W56  1  0.91377000  0.07261000  0.17961000  1.0 2.4664125681
W  W57  1  0.27186000  0.96310000  0.67712000  1.0 2.406820798
W  W58  1  0.96310000  0.27186000  0.82288000  1.0 2.406820798
W  W59  1  0.72814000  0.03690000  0.32288000  1.0 2.406820798
W  W60  1  0.03690000  0.72814000  0.17712000  1.0 2.406820798
C  C1  1  0.99820000  0.95220000  0.00300000  1.0 0.5451564006
C  C2  1  0.95220000  0.99820000  0.49700000  1.0 0.5451564006
C  C3  1  0.00180000  0.04780000  0.99700000  1.0 0.5444068126
C  C4  1  0.04780000  0.00180000  0.50300000  1.0 0.5444068126
C  C5  1  0.80280000  0.46620000  0.68440000  1.0 0.6492525004
C  C6  1  0.46620000  0.80280000  0.81560000  1.0 0.6492525004
C  C7  1  0.19720000  0.53380000  0.31560000  1.0 0.6492525004
C  C8  1  0.53380000  0.19720000  0.18440000  1.0 0.6492525004
C  C9  1  0.81460000  0.42360000  0.74590000  1.0 -0.2595854588
C  C10  1  0.42360000  0.81460000  0.75410000  1.0 -0.2595854588
C  C11  1  0.18540000  0.57640000  0.25410000  1.0 -0.2595854588
C  C12  1  0.57640000  0.18540000  0.24590000  1.0 -0.2595854588
N  N1  1  0.86620000  0.46320000  0.79700000  1.0 -0.5192198046
N  N2  1  0.46320000  0.86620000  0.70300000  1.0 -0.5192198046
N  N3  1  0.13380000  0.53680000  0.20300000  1.0 -0.5192198046
N  N4  1  0.53680000  0.13380000  0.29700000  1.0 -0.5192198046
Cl  Cl1  1  0.23330000  0.34530000  0.44100000  1.0 0.8521340898
Cl  Cl2  1  0.34530000  0.23330000  0.05900000  1.0 0.8558517507
Cl  Cl3  1  0.76670000  0.65470000  0.55900000  1.0 0.8558517507
Cl  Cl4  1  0.65470000  0.76670000  0.94100000  1.0 0.8521340898
Cl  Cl5  1  0.40020000  0.90540000  0.04020000  1.0 0.7799354158
Cl  Cl6  1  0.90540000  0.40020000  0.45980000  1.0 0.7799354158
Cl  Cl7  1  0.59980000  0.09460000  0.95980000  1.0 0.7799354158
Cl  Cl8  1  0.09460000  0.59980000  0.54020000  1.0 0.7799354158
O  O1  1  0.81250000  0.54510000  0.66770000  1.0 -0.6088810452
O  O2  1  0.54510000  0.81250000  0.83230000  1.0 -0.6088810452
O  O3  1  0.18750000  0.45490000  0.33230000  1.0 -0.6041197665
O  O4  1  0.45490000  0.18750000  0.16770000  1.0 -0.6041197665
O  O5  1  0.77450000  0.43370000  0.63760000  1.0 -0.6346241025
O  O6  1  0.43370000  0.77450000  0.86240000  1.0 -0.6358573027
O  O7  1  0.22550000  0.56630000  0.36240000  1.0 -0.6346241025
O  O8  1  0.56630000  0.22550000  0.13760000  1.0 -0.6346241025
O  O9  1  0.34020000  0.13800000  0.80250000  1.0 -0.7990760021
O  O10  1  0.13800000  0.34020000  0.69750000  1.0 -0.7990760021
O  O11  1  0.65980000  0.86200000  0.19750000  1.0 -0.7990760021
O  O12  1  0.86200000  0.65980000  0.30250000  1.0 -0.7990760021
O  O13  1  0.46360000  0.07580000  0.86970000  1.0 -0.8974774145
O  O14  1  0.07580000  0.46360000  0.63030000  1.0 -0.8974774145
O  O15  1  0.53640000  0.92420000  0.13030000  1.0 -0.8974774145
O  O16  1  0.92420000  0.53640000  0.36970000  1.0 -0.8974774145
O  O17  1  0.32220000  0.99140000  0.86890000  1.0 -0.8712793468
O  O18  1  0.99140000  0.32220000  0.63110000  1.0 -0.8712793468
O  O19  1  0.67780000  0.00860000  0.13110000  1.0 -0.8712793468
O  O20  1  0.00860000  0.67780000  0.36890000  1.0 -0.8712793468
O  O21  1  0.40540000  0.04680000  0.96660000  1.0 -0.578886831
O  O22  1  0.04680000  0.40540000  0.53340000  1.0 -0.578886831
O  O23  1  0.59460000  0.95320000  0.03340000  1.0 -0.578886831
O  O24  1  0.95320000  0.59460000  0.46660000  1.0 -0.578886831
O  O25  1  0.27930000  0.10390000  0.89840000  1.0 -0.8498134949
O  O26  1  0.10390000  0.27930000  0.60160000  1.0 -0.8498134949
O  O27  1  0.72070000  0.89610000  0.10160000  1.0 -0.8498134949
O  O28  1  0.89610000  0.72070000  0.39840000  1.0 -0.8498134949
O  O29  1  0.42660000  0.19120000  0.89970000  1.0 -0.8498134949
O  O30  1  0.19120000  0.42660000  0.60030000  1.0 -0.8498134949
O  O31  1  0.57340000  0.80880000  0.10030000  1.0 -0.8498134949
O  O32  1  0.80880000  0.57340000  0.39970000  1.0 -0.8498134949
O  O33  1  0.41850000  0.33430000  0.89960000  1.0 -0.8712793468
O  O34  1  0.33430000  0.41850000  0.60040000  1.0 -0.8712793468
O  O35  1  0.58150000  0.66570000  0.10040000  1.0 -0.8712793468
O  O36  1  0.66570000  0.58150000  0.39960000  1.0 -0.8712793468
O  O37  1  0.54450000  0.27430000  0.96720000  1.0 -0.7797615268
O  O38  1  0.27430000  0.54450000  0.53280000  1.0 -0.7797615268
O  O39  1  0.45550000  0.72570000  0.03280000  1.0 -0.7797615268
O  O40  1  0.72570000  0.45550000  0.46720000  1.0 -0.7797615268
O  O41  1  0.44190000  0.30410000  0.80380000  1.0 -0.7881846838
O  O42  1  0.30410000  0.44190000  0.69620000  1.0 -0.7881846838
O  O43  1  0.55810000  0.69590000  0.19620000  1.0 -0.7881846838
O  O44  1  0.69590000  0.55810000  0.30380000  1.0 -0.7881846838
O  O45  1  0.56400000  0.24220000  0.87090000  1.0 -0.8974774145
O  O46  1  0.24220000  0.56400000  0.62910000  1.0 -0.8974774145
O  O47  1  0.43600000  0.75780000  0.12910000  1.0 -0.8974774145
O  O48  1  0.75780000  0.43600000  0.37090000  1.0 -0.8974774145
O  O49  1  0.56210000  0.38710000  0.87050000  1.0 -0.8800222464
O  O50  1  0.38710000  0.56210000  0.62950000  1.0 -0.8800222464
O  O51  1  0.43790000  0.61290000  0.12950000  1.0 -0.8800222464
O  O52  1  0.61290000  0.43790000  0.37050000  1.0 -0.8800222464
O  O53  1  0.70840000  0.48260000  0.86670000  1.0 -0.5917268061
O  O54  1  0.48260000  0.70840000  0.63330000  1.0 -0.5917268061
O  O55  1  0.29160000  0.51740000  0.13330000  1.0 -0.5917268061
O  O56  1  0.51740000  0.29160000  0.36670000  1.0 -0.5917268061
O  O57  1  0.03210000  0.11570000  0.75030000  1.0 -0.8712793468
O  O58  1  0.11570000  0.03210000  0.74970000  1.0 -0.8712793468
O  O59  1  0.96790000  0.88430000  0.24970000  1.0 -0.8712793468
O  O60  1  0.88430000  0.96790000  0.25030000  1.0 -0.8712793468
O  O61  1  0.49450000  0.31110000  0.62730000  1.0 -0.8883400349
O  O62  1  0.31110000  0.49450000  0.87270000  1.0 -0.8883400349
O  O63  1  0.50550000  0.68890000  0.37270000  1.0 -0.8883400349
O  O64  1  0.68890000  0.50550000  0.12730000  1.0 -0.8883400349
O  O65  1  0.39330000  0.14490000  0.62610000  1.0 -0.8974774145
O  O66  1  0.14490000  0.39330000  0.87390000  1.0 -0.8974774145
O  O67  1  0.60670000  0.85510000  0.37390000  1.0 -0.8974774145
O  O68  1  0.85510000  0.60670000  0.12610000  1.0 -0.8974774145
O  O69  1  0.57300000  0.53040000  0.81550000  1.0 -0.8405102261
O  O70  1  0.53040000  0.57300000  0.68450000  1.0 -0.8405102261
O  O71  1  0.42700000  0.46960000  0.18450000  1.0 -0.8405102261
O  O72  1  0.46960000  0.42700000  0.31550000  1.0 -0.8405102261
O  O73  1  0.52440000  0.41660000  0.74920000  1.0 -0.8622745117
O  O74  1  0.41660000  0.52440000  0.75080000  1.0 -0.8622745117
O  O75  1  0.47560000  0.58340000  0.25080000  1.0 -0.8622745117
O  O76  1  0.58340000  0.47560000  0.24920000  1.0 -0.8622745117
O  O77  1  0.64900000  0.30180000  0.63060000  1.0 -0.8405102261
O  O78  1  0.30180000  0.64900000  0.86940000  1.0 -0.8405102261
O  O79  1  0.35100000  0.69820000  0.36940000  1.0 -0.8405102261
O  O80  1  0.69820000  0.35100000  0.13060000  1.0 -0.8405102261
O  O81  1  0.06160000  0.08360000  0.87110000  1.0 -0.8800222464
O  O82  1  0.08360000  0.06160000  0.62890000  1.0 -0.8800222464
O  O83  1  0.93840000  0.91640000  0.12890000  1.0 -0.8800222464
O  O84  1  0.91640000  0.93840000  0.37110000  1.0 -0.8800222464
O  O85  1  0.29030000  0.02850000  0.75000000  1.0 -0.8800222464
O  O86  1  0.02850000  0.29030000  0.75000000  1.0 -0.8800222464
O  O87  1  0.70970000  0.97150000  0.25000000  1.0 -0.8800222464
O  O88  1  0.97150000  0.70970000  0.25000000  1.0 -0.8800222464
O  O89  1  0.57610000  0.14030000  0.81270000  1.0 -0.8405102261
O  O90  1  0.14030000  0.57610000  0.68730000  1.0 -0.8405102261
O  O91  1  0.42390000  0.85970000  0.18730000  1.0 -0.8405102261
O  O92  1  0.85970000  0.42390000  0.31270000  1.0 -0.8405102261
O  O93  1  0.40870000  0.96090000  0.81490000  1.0 -0.8622745117
O  O94  1  0.96090000  0.40870000  0.68510000  1.0 -0.8622745117
O  O95  1  0.59130000  0.03910000  0.18510000  1.0 -0.8622745117
O  O96  1  0.03910000  0.59130000  0.31490000  1.0 -0.8622745117
O  O97  1  0.00420000  0.97080000  0.81790000  1.0 -0.8974774145
O  O98  1  0.97080000  0.00420000  0.68210000  1.0 -0.8974774145
O  O99  1  0.99580000  0.02920000  0.18210000  1.0 -0.8974774145
O  O100  1  0.02920000  0.99580000  0.31790000  1.0 -0.8974774145
O  O101  1  0.83790000  0.06550000  0.63340000  1.0 -0.6207173802
O  O102  1  0.06550000  0.83790000  0.86660000  1.0 -0.6207173802
O  O103  1  0.16210000  0.93450000  0.36660000  1.0 -0.6207173802
O  O104  1  0.93450000  0.16210000  0.13340000  1.0 -0.6207173802
O  O105  1  0.49170000  0.45270000  0.62950000  1.0 -0.8883400349
O  O106  1  0.45270000  0.49170000  0.87050000  1.0 -0.8883400349
O  O107  1  0.50830000  0.54730000  0.37050000  1.0 -0.8883400349
O  O108  1  0.54730000  0.50830000  0.12950000  1.0 -0.8883400349
O  O109  1  0.65850000  0.26390000  0.74820000  1.0 -0.8498134949
O  O110  1  0.26390000  0.65850000  0.75180000  1.0 -0.8498134949
O  O111  1  0.34150000  0.73610000  0.25180000  1.0 -0.8498134949
O  O112  1  0.73610000  0.34150000  0.24820000  1.0 -0.8498134949
O  O113  1  0.94680000  0.15820000  0.81680000  1.0 -0.809988279
O  O114  1  0.15820000  0.94680000  0.68320000  1.0 -0.809988279
O  O115  1  0.05320000  0.84180000  0.18320000  1.0 -0.809988279
O  O116  1  0.84180000  0.05320000  0.31680000  1.0 -0.809988279
O  O117  1  0.28150000  0.88990000  0.74940000  1.0 -0.8622745117
O  O118  1  0.88990000  0.28150000  0.75060000  1.0 -0.8622745117
O  O119  1  0.71850000  0.11010000  0.25060000  1.0 -0.8622745117
O  O120  1  0.11010000  0.71850000  0.24940000  1.0 -0.8712793468
O  O121  1  0.33660000  0.27260000  0.60040000  1.0 -0.8622745117
O  O122  1  0.27260000  0.33660000  0.89960000  1.0 -0.8622745117
O  O123  1  0.66340000  0.72740000  0.39960000  1.0 -0.8622745117
O  O124  1  0.72740000  0.66340000  0.10040000  1.0 -0.8622745117
O  O125  1  0.99240000  0.15220000  0.62890000  1.0 -0.8883400349
O  O126  1  0.15220000  0.99240000  0.87110000  1.0 -0.8883400349
O  O127  1  0.00760000  0.84780000  0.37110000  1.0 -0.8883400349
O  O128  1  0.84780000  0.00760000  0.12890000  1.0 -0.8883400349
O  O129  1  0.65370000  0.50550000  0.74830000  1.0 -0.8800222464
O  O130  1  0.50550000  0.65370000  0.75170000  1.0 -0.8800222464
O  O131  1  0.34630000  0.49450000  0.25170000  1.0 -0.8800222464
O  O132  1  0.49450000  0.34630000  0.24830000  1.0 -0.8800222464
O  O133  1  0.89410000  0.04510000  0.75080000  1.0 -0.8883400349
O  O134  1  0.04510000  0.89410000  0.74920000  1.0 -0.8883400349
O  O135  1  0.10590000  0.95490000  0.24920000  1.0 -0.8883400349
O  O136  1  0.95490000  0.10590000  0.25080000  1.0 -0.8800222464
O  O137  1  0.51780000  0.03200000  0.74600000  1.0 -0.8974774145
O  O138  1  0.03200000  0.51780000  0.75400000  1.0 -0.8974774145
O  O139  1  0.48220000  0.96800000  0.25400000  1.0 -0.8974774145
O  O140  1  0.96800000  0.48220000  0.24600000  1.0 -0.8974774145
O  O141  1  0.37520000  0.00080000  0.68050000  1.0 -0.8712793468
O  O142  1  0.00080000  0.37520000  0.81950000  1.0 -0.8712793468
O  O143  1  0.62480000  0.99920000  0.31950000  1.0 -0.8712793468
O  O144  1  0.99920000  0.62480000  0.18050000  1.0 -0.8712793468
O  O145  1  0.18930000  0.91010000  0.81440000  1.0 -0.8498134949
O  O146  1  0.91010000  0.18930000  0.68560000  1.0 -0.8498134949
O  O147  1  0.81070000  0.08990000  0.18560000  1.0 -0.8498134949
O  O148  1  0.08990000  0.81070000  0.31440000  1.0 -0.8498134949
O  O149  1  0.56400000  0.98320000  0.86430000  1.0 -0.5517708324
O  O150  1  0.98320000  0.56400000  0.63570000  1.0 -0.5517708324
O  O151  1  0.43600000  0.01680000  0.13570000  1.0 -0.5517708324
O  O152  1  0.01680000  0.43600000  0.36430000  1.0 -0.5517708324
O  O153  1  0.27940000  0.16680000  0.53100000  1.0 -0.725375522
O  O154  1  0.16680000  0.27940000  0.96900000  1.0 -0.725375522
O  O155  1  0.72060000  0.83320000  0.46900000  1.0 -0.725375522
O  O156  1  0.83320000  0.72060000  0.03100000  1.0 -0.725375522
O  O157  1  0.17400000  0.04600000  0.96730000  1.0 -0.8622745117
O  O158  1  0.04600000  0.17400000  0.53270000  1.0 -0.8622745117
O  O159  1  0.82600000  0.95400000  0.03270000  1.0 -0.8622745117
O  O160  1  0.95400000  0.82600000  0.46730000  1.0 -0.8622745117
O  O161  1  0.61300000  0.39960000  0.68190000  1.0 -0.8498134949
O  O162  1  0.39960000  0.61300000  0.81810000  1.0 -0.8498134949
O  O163  1  0.38700000  0.60040000  0.31810000  1.0 -0.8498134949
O  O164  1  0.60040000  0.38700000  0.18190000  1.0 -0.8498134949
O  O165  1  0.13880000  0.17000000  0.69600000  1.0 -0.7881846838
O  O166  1  0.17000000  0.13880000  0.80400000  1.0 -0.7881846838
O  O167  1  0.86120000  0.83000000  0.30400000  1.0 -0.7881846838
O  O168  1  0.83000000  0.86120000  0.19600000  1.0 -0.7881846838
O  O169  1  0.41620000  0.39260000  0.53110000  1.0 -0.5917268061
O  O170  1  0.39260000  0.41620000  0.96890000  1.0 -0.5917268061
O  O171  1  0.58380000  0.60740000  0.46890000  1.0 -0.5917268061
O  O172  1  0.60740000  0.58380000  0.03110000  1.0 -0.5917268061
O  O173  1  0.25180000  0.05820000  0.62770000  1.0 -0.8712793468
O  O174  1  0.05820000  0.25180000  0.87230000  1.0 -0.8712793468
O  O175  1  0.74820000  0.94180000  0.37230000  1.0 -0.8712793468
O  O176  1  0.94180000  0.74820000  0.12770000  1.0 -0.8712793468
O  O177  1  0.55180000  0.63280000  0.87090000  1.0 -0.5517708324
O  O178  1  0.63280000  0.55180000  0.62910000  1.0 -0.5517708324
O  O179  1  0.44820000  0.36720000  0.12910000  1.0 -0.5517708324
O  O180  1  0.36720000  0.44820000  0.37090000  1.0 -0.5517708324
O  O181  1  0.65580000  0.35860000  0.81640000  1.0 -0.8712793468
O  O182  1  0.35860000  0.65580000  0.68360000  1.0 -0.8712793468
O  O183  1  0.34420000  0.64140000  0.18360000  1.0 -0.8712793468
O  O184  1  0.64140000  0.34420000  0.31640000  1.0 -0.8712793468
O  O185  1  0.18750000  0.19370000  0.90070000  1.0 -0.8405102261
O  O186  1  0.19370000  0.18750000  0.59930000  1.0 -0.8405102261
O  O187  1  0.81250000  0.80630000  0.09930000  1.0 -0.8405102261
O  O188  1  0.80630000  0.81250000  0.40070000  1.0 -0.8405102261
O  O189  1  0.52720000  0.27900000  0.74750000  1.0 -0.8712793468
O  O190  1  0.27900000  0.52720000  0.75250000  1.0 -0.8712793468
O  O191  1  0.47280000  0.72100000  0.25250000  1.0 -0.8712793468
O  O192  1  0.72100000  0.47280000  0.24750000  1.0 -0.8712793468
O  O193  1  0.71000000  0.22260000  0.86590000  1.0 -0.561727021
O  O194  1  0.22260000  0.71000000  0.63410000  1.0 -0.561727021
O  O195  1  0.29000000  0.77740000  0.13410000  1.0 -0.561727021
O  O196  1  0.77740000  0.29000000  0.36590000  1.0 -0.561727021
O  O197  1  0.40640000  0.33200000  0.69570000  1.0 -0.7990760021
O  O198  1  0.33200000  0.40640000  0.80430000  1.0 -0.7990760021
O  O199  1  0.59360000  0.66800000  0.30430000  1.0 -0.7990760021
O  O200  1  0.66800000  0.59360000  0.19570000  1.0 -0.7990760021
O  O201  1  0.25040000  0.90200000  0.62920000  1.0 -0.578886831
O  O202  1  0.90200000  0.25040000  0.87080000  1.0 -0.578886831
O  O203  1  0.74960000  0.09800000  0.37080000  1.0 -0.574957151
O  O204  1  0.09800000  0.74960000  0.12920000  1.0 -0.578886831
O  O205  1  0.90410000  0.00630000  0.86760000  1.0 -0.8974774145
O  O206  1  0.00630000  0.90410000  0.63240000  1.0 -0.8974774145
O  O207  1  0.09590000  0.99370000  0.13240000  1.0 -0.8974774145
O  O208  1  0.99370000  0.09590000  0.36760000  1.0 -0.8974774145
O  O209  1  0.50000000  0.05840000  0.62800000  1.0 -0.7506022193
O  O210  1  0.05840000  0.50000000  0.87200000  1.0 -0.7506022193
O  O211  1  0.50000000  0.94160000  0.37200000  1.0 -0.7506022193
O  O212  1  0.94160000  0.50000000  0.12800000  1.0 -0.7506022193
O  O213  1  0.06210000  0.93270000  0.02790000  1.0 -0.578886831
O  O214  1  0.93270000  0.06210000  0.47210000  1.0 -0.578886831
O  O215  1  0.93790000  0.06730000  0.97210000  1.0 -0.578886831
O  O216  1  0.06730000  0.93790000  0.52790000  1.0 -0.578886831
O  O217  1  0.31160000  0.83780000  0.86660000  1.0 -0.8405102261
O  O218  1  0.83780000  0.31160000  0.63340000  1.0 -0.8405102261
O  O219  1  0.68840000  0.16220000  0.13340000  1.0 -0.8405102261
O  O220  1  0.16220000  0.68840000  0.36660000  1.0 -0.8405102261
O  O221  1  0.54250000  0.18150000  0.68200000  1.0 -0.8498134949
O  O222  1  0.18150000  0.54250000  0.81800000  1.0 -0.8498134949
O  O223  1  0.45750000  0.81850000  0.31800000  1.0 -0.8498134949
O  O224  1  0.81850000  0.45750000  0.18200000  1.0 -0.8498134949
O  O225  1  0.93450000  0.91950000  0.98120000  1.0 -0.5329108127
O  O226  1  0.91950000  0.93450000  0.51880000  1.0 -0.5329108127
O  O227  1  0.06550000  0.08050000  0.01880000  1.0 -0.5329108127
O  O228  1  0.08050000  0.06550000  0.48120000  1.0 -0.5329108127
O  O229  1  0.42310000  0.10970000  0.74710000  1.0 -0.8800222464
O  O230  1  0.10970000  0.42310000  0.75290000  1.0 -0.8800222464
O  O231  1  0.57690000  0.89030000  0.25290000  1.0 -0.8712793468
O  O232  1  0.89030000  0.57690000  0.24710000  1.0 -0.8712793468
O  O233  1  0.30580000  0.16820000  0.69460000  1.0 -0.809988279
O  O234  1  0.16820000  0.30580000  0.80540000  1.0 -0.809988279
O  O235  1  0.69420000  0.83180000  0.30540000  1.0 -0.809988279
O  O236  1  0.83180000  0.69420000  0.19460000  1.0 -0.809988279
O  O237  1  0.79450000  0.67530000  0.70100000  1.0 -0.5394323506
O  O238  1  0.67530000  0.79450000  0.79900000  1.0 -0.5394323506
O  O239  1  0.20550000  0.32470000  0.29900000  1.0 -0.5394323506
O  O240  1  0.32470000  0.20550000  0.20100000  1.0 -0.5394323506
O  O241  1  0.70310000  0.21530000  0.57600000  1.0 -0.1631981719
O  O242  1  0.21530000  0.70310000  0.92400000  1.0 -0.1631981719
O  O243  1  0.29690000  0.78470000  0.42400000  1.0 -0.1631981719
O  O244  1  0.78470000  0.29690000  0.07600000  1.0 -0.1530843862
O  O245  1  0.85740000  0.46780000  0.55430000  1.0 -0.3364318001
O  O246  1  0.46780000  0.85740000  0.94570000  1.0 -0.329750032
O  O247  1  0.14260000  0.53220000  0.44570000  1.0 -0.3364318001
O  O248  1  0.53220000  0.14260000  0.05430000  1.0 -0.3364318001
O  O249  1  0.61590000  0.31690000  0.50000000  1.0 -0.4098051601
O  O250  1  0.31690000  0.61590000  0.00000000  1.0 -0.4098051601
O  O251  1  0.38410000  0.68310000  0.50000000  1.0 -0.4098051601
O  O252  1  0.68310000  0.38410000  0.00000000  1.0 -0.4183365293
O  O253  1  0.79320000  0.32500000  0.50170000  1.0 -0.6207173802
O  O254  1  0.32500000  0.79320000  0.99830000  1.0 -0.6207173802
O  O255  1  0.20680000  0.67500000  0.49830000  1.0 -0.6207173802
O  O256  1  0.67500000  0.20680000  0.00170000  1.0 -0.6207173802
O  O257  1  0.65340000  0.45940000  0.55230000  1.0 -0.329750032
O  O258  1  0.45940000  0.65340000  0.94770000  1.0 -0.329750032
O  O259  1  0.34660000  0.54060000  0.44770000  1.0 -0.329750032
O  O260  1  0.54060000  0.34660000  0.05230000  1.0 -0.329750032
O  O261  1  0.30420000  0.02660000  0.05420000  1.0 -0.2691267617
O  O262  1  0.02660000  0.30420000  0.44580000  1.0 -0.2595854588
O  O263  1  0.69580000  0.97340000  0.94580000  1.0 -0.2595854588
O  O264  1  0.97340000  0.69580000  0.55420000  1.0 -0.2595854588
O  O265  1  0.25990000  0.02810000  0.15320000  1.0 -0.4183365293
O  O266  1  0.02810000  0.25990000  0.34680000  1.0 -0.4265732654
O  O267  1  0.74010000  0.97190000  0.84680000  1.0 -0.4098051601
O  O268  1  0.97190000  0.74010000  0.65320000  1.0 -0.4183365293
O  O269  1  0.19150000  0.88910000  0.08960000  1.0 -0.3105016687
O  O270  1  0.88910000  0.19150000  0.41040000  1.0 -0.3105016687
O  O271  1  0.80850000  0.11090000  0.91040000  1.0 -0.3202532568
O  O272  1  0.11090000  0.80850000  0.58960000  1.0 -0.3202532568
O  O273  1  0.22380000  0.15240000  0.05150000  1.0 -0.8272385188
O  O274  1  0.15240000  0.22380000  0.44850000  1.0 -0.8241767176
O  O275  1  0.77620000  0.84760000  0.94850000  1.0 -0.8241767176
O  O276  1  0.84760000  0.77620000  0.55150000  1.0 -0.8272385188
O  O277  1  0.28180000  0.00560000  0.42370000  1.0 0.1277173813
O  O278  1  0.00560000  0.28180000  0.07630000  1.0 0.1277173813
O  O279  1  0.71820000  0.99440000  0.57630000  1.0 0.1277173813
O  O280  1  0.99440000  0.71820000  0.92370000  1.0 0.1277173813
