# DDEC6 charges by PACMAN v1.1 (https://github.com/mtap-research/PACMAN-charge/)
data_RIQQAN_ASR_pacman
_symmetry_space_group_name_H-M   'P 1'
_cell_length_a   18.12030000
_cell_length_b   19.64660000
_cell_length_c   23.81030000
_cell_angle_alpha   78.25500000
_cell_angle_beta   71.55100000
_cell_angle_gamma   76.00500000
_symmetry_Int_Tables_number   1
_chemical_formula_structural   K7V28H108C120(NO3)48
_chemical_formula_sum   'K7 V28 H108 C120 N48 O144'
_cell_volume   7727.54516035
_cell_formula_units_Z   1
loop_
 _symmetry_equiv_pos_site_id
 _symmetry_equiv_pos_as_xyz
  1  'x, y, z'
loop_
 _atom_site_type_symbol
 _atom_site_label
 _atom_site_symmetry_multiplicity
 _atom_site_fract_x
 _atom_site_fract_y
 _atom_site_fract_z
 _atom_site_occupancy
 _atom_site_charge
K  K1  1  0.35486000  0.85325000  0.55309000  1.0 0.8431172218
K  K2  1  0.64514000  0.14675000  0.44691000  1.0 0.8431172218
K  K3  1  0.10901000  0.86922000  0.59595000  1.0 0.7675156738
K  K4  1  0.89099000  0.13078000  0.40405000  1.0 0.7675156738
K  K5  1  0.50000000  0.50000000  0.00000000  1.0 0.8654962327
K  K6  1  0.09750000  0.80862000  0.19590000  1.0 0.8960252549
K  K7  1  0.90250000  0.19138000  0.80410000  1.0 0.8960252549
V  V1  1  0.61341000  0.83421000  0.66729000  1.0 1.5913604643
V  V2  1  0.38659000  0.16579000  0.33271000  1.0 1.5913604643
V  V3  1  0.55399000  0.69093000  0.64202000  1.0 1.6202006008
V  V4  1  0.44601000  0.30907000  0.35798000  1.0 1.6202006008
V  V5  1  0.79080000  0.73211000  0.66985000  1.0 1.5793469892
V  V6  1  0.20920000  0.26789000  0.33015000  1.0 1.5793469892
V  V7  1  0.72933000  0.58666000  0.64922000  1.0 1.6202006008
V  V8  1  0.27067000  0.41334000  0.35078000  1.0 1.6202006008
V  V9  1  0.64357000  0.74512000  0.79712000  1.0 1.6023484614
V  V10  1  0.35643000  0.25488000  0.20288000  1.0 1.6023484614
V  V11  1  0.57595000  0.60422000  0.77418000  1.0 1.6202006008
V  V12  1  0.42405000  0.39578000  0.22582000  1.0 1.6202006008
V  V13  1  0.82314000  0.85749000  0.40149000  1.0 1.3905049112
V  V14  1  0.17686000  0.14251000  0.59851000  1.0 1.3905049112
V  V15  1  0.78158000  0.71249000  0.38029000  1.0 1.37889488
V  V16  1  0.21842000  0.28751000  0.61971000  1.0 1.37889488
V  V17  1  0.92623000  0.52632000  0.86724000  1.0 1.4079256203
V  V18  1  0.07377000  0.47368000  0.13276000  1.0 1.4079256203
V  V19  1  0.22795000  0.77621000  0.82820000  1.0 1.3397221711
V  V20  1  0.77205000  0.22379000  0.17180000  1.0 1.3397221711
V  V21  1  0.29015000  0.90078000  0.86210000  1.0 1.37889488
V  V22  1  0.70985000  0.09922000  0.13790000  1.0 1.37889488
V  V23  1  0.56545000  0.50079000  0.66593000  1.0 1.6202006008
V  V24  1  0.43455000  0.49921000  0.33407000  1.0 1.6202006008
V  V25  1  0.84636000  0.39611000  0.86169000  1.0 1.6202006008
V  V26  1  0.15364000  0.60389000  0.13831000  1.0 1.6202006008
V  V27  1  0.73655000  0.89799000  0.73164000  1.0 1.5711830999
V  V28  1  0.26345000  0.10201000  0.26836000  1.0 1.5793469892
H  H1  1  0.43045000  0.91342000  0.67931000  1.0 0.3372490253
H  H2  1  0.56955000  0.08658000  0.32069000  1.0 0.3372490253
H  H3  1  0.35322000  0.92152000  0.72950000  1.0 0.3122549575
H  H4  1  0.64678000  0.07848000  0.27050000  1.0 0.3122549575
H  H5  1  0.89280000  0.48737000  0.67671000  1.0 0.3339440868
H  H6  1  0.10720000  0.51263000  0.32329000  1.0 0.3339440868
H  H7  1  0.91679000  0.44687000  0.73199000  1.0 0.3194019493
H  H8  1  0.08321000  0.55313000  0.26801000  1.0 0.3194019493
H  H9  1  0.91166000  0.71301000  0.53660000  1.0 0.3472586494
H  H10  1  0.08834000  0.28699000  0.46340000  1.0 0.3472586494
H  H11  1  0.91357000  0.74460000  0.47226000  1.0 0.3194019493
H  H12  1  0.08643000  0.25540000  0.52774000  1.0 0.3194019493
H  H13  1  0.56080000  0.78309000  0.50780000  1.0 0.3339440868
H  H14  1  0.43920000  0.21691000  0.49220000  1.0 0.3339440868
H  H15  1  0.62238000  0.78686000  0.44695000  1.0 0.3194019493
H  H16  1  0.37762000  0.21314000  0.55305000  1.0 0.3194019493
H  H17  1  0.81683000  0.61136000  0.50066000  1.0 0.1312454918
H  H18  1  0.18317000  0.38864000  0.49934000  1.0 0.1312454918
H  H19  1  0.42433000  0.64485000  0.88707000  1.0 0.3339440868
H  H20  1  0.57567000  0.35515000  0.11293000  1.0 0.3339440868
H  H21  1  0.34124000  0.68988000  0.89640000  1.0 0.3122549575
H  H22  1  0.65876000  0.31012000  0.10360000  1.0 0.3122549575
H  H23  1  0.67082000  0.89426000  0.52051000  1.0 0.1312454918
H  H24  1  0.32918000  0.10574000  0.47949000  1.0 0.1312454918
H  H25  1  0.92318000  0.61974000  0.73416000  1.0 0.1312454918
H  H26  1  0.07682000  0.38026000  0.26584000  1.0 0.1312454918
H  H27  1  0.68412000  0.63443000  0.91157000  1.0 0.3472586494
H  H28  1  0.31588000  0.36557000  0.08843000  1.0 0.3472586494
H  H29  1  0.75585000  0.58060000  0.92295000  1.0 0.3194019493
H  H30  1  0.24415000  0.41940000  0.07705000  1.0 0.3194019493
H  H31  1  0.66940000  0.49092000  0.86442000  1.0 0.1205440259
H  H32  1  0.33060000  0.50908000  0.13558000  1.0 0.1205440259
H  H33  1  0.46072000  0.80525000  0.88149000  1.0 0.1205440259
H  H34  1  0.53928000  0.19475000  0.11851000  1.0 0.1205440259
H  H35  1  0.36074000  0.76160000  0.69850000  1.0 0.1205440259
H  H36  1  0.63926000  0.23840000  0.30150000  1.0 0.1205440259
H  H37  1  0.68586000  0.83347000  0.31801000  1.0 0.0980359684
H  H38  1  0.31414000  0.16653000  0.68199000  1.0 0.0980359684
H  H39  1  0.03194000  0.64975000  0.33016000  1.0 0.1503684715
H  H40  1  0.96806000  0.35025000  0.66984000  1.0 0.1503684715
H  H41  1  0.00392000  0.66218000  0.39854000  1.0 0.1604840953
H  H42  1  0.99608000  0.33782000  0.60146000  1.0 0.1604840953
H  H43  1  0.02111000  0.35429000  0.80184000  1.0 0.1072115714
H  H44  1  0.97889000  0.64571000  0.19816000  1.0 0.1072115714
H  H45  1  0.97888000  0.77129000  0.34026000  1.0 0.081216718
H  H46  1  0.02112000  0.22871000  0.65974000  1.0 0.081216718
H  H47  1  0.84424000  0.47484000  0.99556000  1.0 0.0980359684
H  H48  1  0.15576000  0.52516000  0.00444000  1.0 0.0980359684
H  H49  1  0.17638000  0.76169000  0.96330000  1.0 0.0980359684
H  H50  1  0.82362000  0.23831000  0.03670000  1.0 0.0980359684
H  H51  1  0.71877000  0.43190000  0.58715000  1.0 0.1072115714
H  H52  1  0.28123000  0.56810000  0.41285000  1.0 0.1072115714
H  H53  1  0.63994000  0.95563000  0.32228000  1.0 0.1397853744
H  H54  1  0.36006000  0.04437000  0.67772000  1.0 0.1397853744
H  H55  1  0.60433000  0.91014000  0.38436000  1.0 0.1604840953
H  H56  1  0.39567000  0.08986000  0.61564000  1.0 0.1604840953
H  H57  1  0.44400000  0.57951000  0.60277000  1.0 0.1205440259
H  H58  1  0.55600000  0.42049000  0.39723000  1.0 0.1205440259
H  H59  1  0.18342000  0.97504000  0.78415000  1.0 0.1072115714
H  H60  1  0.81658000  0.02496000  0.21585000  1.0 0.1072115714
H  H61  1  0.12869000  0.41242000  0.75747000  1.0 0.1604840953
H  H62  1  0.87131000  0.58758000  0.24253000  1.0 0.1604840953
H  H63  1  0.06303000  0.43760000  0.72224000  1.0 0.1503684715
H  H64  1  0.93697000  0.56240000  0.27776000  1.0 0.1503684715
H  H65  1  0.58191000  0.61349000  0.51451000  1.0 0.1397853744
H  H66  1  0.41809000  0.38651000  0.48549000  1.0 0.1397853744
H  H67  1  0.50924000  0.59430000  0.50057000  1.0 0.1604840953
H  H68  1  0.49076000  0.40570000  0.49943000  1.0 0.1604840953
H  H69  1  0.23038000  0.94103000  0.69160000  1.0 0.1604840953
H  H70  1  0.76962000  0.05897000  0.30840000  1.0 0.1604840953
H  H71  1  0.13778000  0.94015000  0.71248000  1.0 0.1397853744
H  H72  1  0.86222000  0.05985000  0.28752000  1.0 0.1397853744
H  H73  1  0.65358000  0.01113000  0.65565000  1.0 0.1072115714
H  H74  1  0.34642000  0.98887000  0.34435000  1.0 0.1072115714
H  H75  1  0.21813000  0.79646000  0.03746000  1.0 0.1312454918
H  H76  1  0.78187000  0.20354000  0.96254000  1.0 0.1397853744
H  H77  1  0.28519000  0.74026000  0.00020000  1.0 0.1503684715
H  H78  1  0.71481000  0.25974000  0.99980000  1.0 0.1503684715
H  H79  1  0.36975000  0.48435000  0.82435000  1.0 0.1604840953
H  H80  1  0.63025000  0.51565000  0.17565000  1.0 0.1604840953
H  H81  1  0.38574000  0.56344000  0.80169000  1.0 0.1397853744
H  H82  1  0.61426000  0.43656000  0.19831000  1.0 0.1397853744
H  H83  1  0.73910000  0.41040000  0.04383000  1.0 0.1604840953
H  H84  1  0.26090000  0.58960000  0.95617000  1.0 0.1604840953
H  H85  1  0.71092000  0.48645000  0.01020000  1.0 0.1604840953
H  H86  1  0.28908000  0.51355000  0.98980000  1.0 0.1604840953
H  H87  1  0.50614000  0.43693000  0.79165000  1.0 0.0980359684
H  H88  1  0.49386000  0.56307000  0.20835000  1.0 0.0980359684
H  H89  1  0.90992000  0.85696000  0.67687000  1.0 0.0703318748
H  H90  1  0.09008000  0.14304000  0.32313000  1.0 0.0703318748
H  H91  1  0.78275000  0.34623000  0.65053000  1.0 0.1397853744
H  H92  1  0.21725000  0.65377000  0.34947000  1.0 0.1397853744
H  H93  1  0.76198000  0.40164000  0.69651000  1.0 0.1397853744
H  H94  1  0.23802000  0.59836000  0.30349000  1.0 0.1312454918
H  H95  1  0.93323000  0.90723000  0.57447000  1.0 0.1503684715
H  H96  1  0.06677000  0.09277000  0.42553000  1.0 0.1503684715
H  H97  1  0.85968000  0.87923000  0.56985000  1.0 0.1503684715
H  H98  1  0.14032000  0.12077000  0.43015000  1.0 0.1503684715
H  H99  1  0.68241000  0.88251000  0.86302000  1.0 0.1072115714
H  H100  1  0.31759000  0.11749000  0.13698000  1.0 0.1072115714
H  H101  1  0.80224000  0.75876000  0.85359000  1.0 0.1397853744
H  H102  1  0.19776000  0.24124000  0.14641000  1.0 0.1397853744
H  H103  1  0.78473000  0.81286000  0.90028000  1.0 0.1397853744
H  H104  1  0.21527000  0.18714000  0.09972000  1.0 0.1503684715
H  H105  1  0.51144000  0.98152000  0.74168000  1.0 0.1397853744
H  H106  1  0.48856000  0.01848000  0.25832000  1.0 0.1397853744
H  H107  1  0.53265000  0.05838000  0.71609000  1.0 0.1604840953
H  H108  1  0.46735000  0.94162000  0.28391000  1.0 0.1503684715
C  C1  1  0.44350000  0.86920000  0.75690000  1.0 0.5084017064
C  C2  1  0.55650000  0.13080000  0.24310000  1.0 0.5084017064
C  C3  1  0.76520000  0.63960000  0.51130000  1.0 0.1934657689
C  C4  1  0.23480000  0.36040000  0.48870000  1.0 0.1934657689
C  C5  1  0.80550000  0.49150000  0.74940000  1.0 0.5188081261
C  C6  1  0.19450000  0.50850000  0.25060000  1.0 0.5188081261
C  C7  1  0.71050000  0.85840000  0.53280000  1.0 0.1976621346
C  C8  1  0.28950000  0.14160000  0.46720000  1.0 0.1976621346
C  C9  1  0.81710000  0.78220000  0.53010000  1.0 0.5396221326
C  C10  1  0.18290000  0.21780000  0.46990000  1.0 0.5396221326
C  C11  1  0.87280000  0.63070000  0.76220000  1.0 0.1976621346
C  C12  1  0.12720000  0.36930000  0.23780000  1.0 0.1976621346
C  C13  1  0.70300000  0.49680000  0.82470000  1.0 0.1819505017
C  C14  1  0.29700000  0.50320000  0.17530000  1.0 0.1819505017
C  C15  1  0.40110000  0.69120000  0.81260000  1.0 0.5084017064
C  C16  1  0.59890000  0.30880000  0.18740000  1.0 0.5084017064
C  C17  1  0.66130000  0.71600000  0.50790000  1.0 0.5188081261
C  C18  1  0.33870000  0.28400000  0.49210000  1.0 0.5188081261
C  C19  1  0.46700000  0.82150000  0.84020000  1.0 0.1819505017
C  C20  1  0.53300000  0.17850000  0.15980000  1.0 0.1819505017
C  C21  1  0.67870000  0.97040000  0.39000000  1.0 0.658196136
C  C22  1  0.32130000  0.02960000  0.61000000  1.0 0.658196136
C  C23  1  0.77560000  0.62990000  0.84200000  1.0 0.5294294502
C  C24  1  0.22440000  0.37010000  0.15800000  1.0 0.5294294502
C  C25  1  0.38410000  0.73570000  0.72900000  1.0 0.1976621346
C  C26  1  0.61590000  0.26430000  0.27100000  1.0 0.1976621346
C  C27  1  0.81980000  0.46690000  0.58760000  1.0 0.5396221326
C  C28  1  0.18020000  0.53310000  0.41240000  1.0 0.5396221326
C  C29  1  0.78540000  0.88090000  0.28900000  1.0 0.5587808734
C  C30  1  0.21460000  0.11910000  0.71100000  1.0 0.5587808734
C  C31  1  0.71170000  0.85930000  0.33630000  1.0 0.081216718
C  C32  1  0.28830000  0.14070000  0.66370000  1.0 0.081216718
C  C33  1  0.98480000  0.66230000  0.36390000  1.0 -0.4200956452
C  C34  1  0.01520000  0.33770000  0.63610000  1.0 -0.4200956452
C  C35  1  0.01800000  0.40290000  0.81020000  1.0 0.0980359684
C  C36  1  0.98200000  0.59710000  0.18980000  1.0 0.0980359684
C  C37  1  0.94250000  0.73770000  0.34670000  1.0 0.081216718
C  C38  1  0.05750000  0.26230000  0.65330000  1.0 0.081216718
C  C39  1  0.82850000  0.44500000  0.97360000  1.0 0.081216718
C  C40  1  0.17150000  0.55500000  0.02640000  1.0 0.0703318748
C  C41  1  0.20810000  0.80000000  0.95290000  1.0 0.1072115714
C  C42  1  0.79190000  0.20000000  0.04710000  1.0 0.1072115714
C  C43  1  0.93650000  0.60620000  0.37930000  1.0 0.6678482215
C  C44  1  0.06350000  0.39380000  0.62070000  1.0 0.6678482215
C  C45  1  0.49470000  0.49890000  0.85660000  1.0 0.5493126657
C  C46  1  0.50530000  0.50110000  0.14340000  1.0 0.5493126657
C  C47  1  0.44910000  0.68710000  0.57560000  1.0 0.5587808734
C  C48  1  0.55090000  0.31290000  0.42440000  1.0 0.5587808734
C  C49  1  0.73700000  0.44680000  0.61750000  1.0 0.081216718
C  C50  1  0.26300000  0.55320000  0.38250000  1.0 0.081216718
C  C51  1  0.65350000  0.92520000  0.35760000  1.0 -0.4111617907
C  C52  1  0.34650000  0.07480000  0.64240000  1.0 -0.4111617907
C  C53  1  0.91850000  0.74360000  0.28930000  1.0 0.5804250981
C  C54  1  0.08150000  0.25640000  0.71070000  1.0 0.5804250981
C  C55  1  0.94120000  0.77140000  0.62850000  1.0 0.5725118365
C  C56  1  0.05880000  0.22860000  0.37150000  1.0 0.5725118365
C  C57  1  0.48670000  0.60820000  0.58640000  1.0 0.0899351593
C  C58  1  0.51330000  0.39180000  0.41360000  1.0 0.0899351593
C  C59  1  0.18520000  0.92430000  0.78220000  1.0 0.0899351593
C  C60  1  0.81480000  0.07570000  0.21780000  1.0 0.0899351593
C  C61  1  0.07440000  0.43960000  0.75980000  1.0 -0.4013395735
C  C62  1  0.92560000  0.56040000  0.24020000  1.0 -0.4013395735
C  C63  1  0.53980000  0.58490000  0.53010000  1.0 -0.390110503
C  C64  1  0.46020000  0.41510000  0.46990000  1.0 -0.390110503
C  C65  1  0.57900000  0.50550000  0.53590000  1.0 0.6535418775
C  C66  1  0.42100000  0.49450000  0.46410000  1.0 0.6535418775
C  C67  1  0.18910000  0.91610000  0.72000000  1.0 -0.4111617907
C  C68  1  0.81090000  0.08390000  0.28000000  1.0 -0.4111617907
C  C69  1  0.11150000  0.90070000  0.82670000  1.0 0.5725118365
C  C70  1  0.88850000  0.09930000  0.17330000  1.0 0.5725118365
C  C71  1  0.88310000  0.37370000  0.97300000  1.0 0.5493126657
C  C72  1  0.11690000  0.62630000  0.02700000  1.0 0.5493126657
C  C73  1  0.07350000  0.51370000  0.76260000  1.0 0.6678482215
C  C74  1  0.92650000  0.48630000  0.23740000  1.0 0.6678482215
C  C75  1  0.15160000  0.87340000  0.95280000  1.0 0.5725118365
C  C76  1  0.84840000  0.12660000  0.04720000  1.0 0.5725118365
C  C77  1  0.04040000  0.39750000  0.86850000  1.0 0.5725118365
C  C78  1  0.95960000  0.60250000  0.13150000  1.0 0.5725118365
C  C79  1  0.20670000  0.84090000  0.70640000  1.0 0.6678482215
C  C80  1  0.79330000  0.15910000  0.29360000  1.0 0.6678482215
C  C81  1  0.61320000  0.98000000  0.67310000  1.0 0.081216718
C  C82  1  0.38680000  0.02000000  0.32690000  1.0 0.081216718
C  C83  1  0.57140000  0.98060000  0.62510000  1.0 0.5396221326
C  C84  1  0.42860000  0.01940000  0.37490000  1.0 0.5396221326
C  C85  1  0.25560000  0.78970000  0.99760000  1.0 -0.4013395735
C  C86  1  0.74440000  0.21030000  0.00240000  1.0 -0.4013395735
C  C87  1  0.70180000  0.40550000  0.97280000  1.0 0.6535418775
C  C88  1  0.29820000  0.59450000  0.02720000  1.0 0.6535418775
C  C89  1  0.40420000  0.51390000  0.79330000  1.0 -0.4013395735
C  C90  1  0.59580000  0.48610000  0.20670000  1.0 -0.4013395735
C  C91  1  0.74210000  0.43840000  0.00380000  1.0 -0.4013395735
C  C92  1  0.25790000  0.56160000  0.99620000  1.0 -0.4013395735
C  C93  1  0.48950000  0.48840000  0.79600000  1.0 0.081216718
C  C94  1  0.51050000  0.51160000  0.20400000  1.0 0.081216718
C  C95  1  0.88680000  0.83980000  0.65060000  1.0 0.081216718
C  C96  1  0.11320000  0.16020000  0.34940000  1.0 0.081216718
C  C97  1  0.39740000  0.50950000  0.73280000  1.0 0.6678482215
C  C98  1  0.60260000  0.49050000  0.26720000  1.0 0.6678482215
C  C99  1  0.74270000  0.38650000  0.66730000  1.0 -0.4013395735
C  C100  1  0.25730000  0.61350000  0.33270000  1.0 -0.4013395735
C  C101  1  0.64080000  0.79140000  0.90490000  1.0 0.5587808734
C  C102  1  0.35920000  0.20860000  0.09510000  1.0 0.5587808734
C  C103  1  0.87990000  0.89720000  0.59690000  1.0 -0.4013395735
C  C104  1  0.12010000  0.10280000  0.40310000  1.0 -0.4013395735
C  C105  1  0.82510000  0.96520000  0.61620000  1.0 0.658196136
C  C106  1  0.17490000  0.03480000  0.38380000  1.0 0.658196136
C  C107  1  0.31310000  0.83830000  0.98310000  1.0 0.5294294502
C  C108  1  0.68690000  0.16170000  0.01690000  1.0 0.5294294502
C  C109  1  0.69940000  0.83170000  0.85660000  1.0 0.081216718
C  C110  1  0.30060000  0.16830000  0.14340000  1.0 0.0899351593
C  C111  1  0.66666667  0.36130000  0.69980000  1.0 0.5084017064
C  C112  1  0.33333333  0.63870000  0.30020000  1.0 0.5084017064
C  C113  1  0.78320000  0.80910000  0.85980000  1.0 -0.3717319969
C  C114  1  0.21680000  0.19090000  0.14020000  1.0 -0.3717319969
C  C115  1  0.55540000  0.00810000  0.72720000  1.0 -0.3785196199
C  C116  1  0.44460000  0.99190000  0.27280000  1.0 -0.3785196199
C  C117  1  0.84020000  0.85490000  0.81220000  1.0 0.5084017064
C  C118  1  0.15980000  0.14510000  0.18780000  1.0 0.5084017064
C  C119  1  0.59290000  0.00280000  0.77940000  1.0 0.658196136
C  C120  1  0.40710000  0.99720000  0.22060000  1.0 0.658196136
N  N1  1  0.52000000  0.84250000  0.74480000  1.0 -0.3717319969
N  N2  1  0.48000000  0.15750000  0.25520000  1.0 -0.3717319969
N  N3  1  0.71580000  0.63490000  0.56540000  1.0 -0.2501762811
N  N4  1  0.28420000  0.36510000  0.43460000  1.0 -0.2501762811
N  N5  1  0.64740000  0.68450000  0.56330000  1.0 -0.3785196199
N  N6  1  0.35260000  0.31550000  0.43670000  1.0 -0.3785196199
N  N7  1  0.73380000  0.68950000  0.47270000  1.0 -0.5090777729
N  N8  1  0.26620000  0.31050000  0.52730000  1.0 -0.5090777729
N  N9  1  0.77900000  0.82970000  0.49370000  1.0 -0.5305907383
N  N10  1  0.22100000  0.17030000  0.50630000  1.0 -0.5305907383
N  N11  1  0.70480000  0.83200000  0.58820000  1.0 -0.2573152114
N  N12  1  0.29520000  0.16800000  0.41180000  1.0 -0.2573152114
N  N13  1  0.74490000  0.53080000  0.73030000  1.0 -0.3717319969
N  N14  1  0.25510000  0.46920000  0.26970000  1.0 -0.3717319969
N  N15  1  0.77460000  0.78230000  0.58770000  1.0 -0.390110503
N  N16  1  0.22540000  0.21770000  0.41230000  1.0 -0.390110503
N  N17  1  0.45690000  0.69840000  0.71750000  1.0 -0.2501762811
N  N18  1  0.54310000  0.30160000  0.28250000  1.0 -0.2501762811
N  N19  1  0.53470000  0.81140000  0.79850000  1.0 -0.2422081534
N  N20  1  0.46530000  0.18860000  0.20150000  1.0 -0.2422081534
N  N21  1  0.78130000  0.46800000  0.80860000  1.0 -0.5090777729
N  N22  1  0.21870000  0.53200000  0.19140000  1.0 -0.5090777729
N  N23  1  0.40630000  0.85850000  0.81680000  1.0 -0.5413865749
N  N24  1  0.59370000  0.14150000  0.18320000  1.0 -0.5413865749
N  N25  1  0.75100000  0.67700000  0.80070000  1.0 -0.3785196199
N  N26  1  0.24900000  0.32300000  0.19930000  1.0 -0.3785196199
N  N27  1  0.46790000  0.66920000  0.77280000  1.0 -0.3638105247
N  N28  1  0.53210000  0.33080000  0.22720000  1.0 -0.3638105247
N  N29  1  0.85410000  0.59840000  0.81940000  1.0 -0.5305907383
N  N30  1  0.14590000  0.40160000  0.18060000  1.0 -0.5305907383
N  N31  1  0.81430000  0.67820000  0.74990000  1.0 -0.2573152114
N  N32  1  0.18570000  0.32180000  0.25010000  1.0 -0.2573152114
N  N33  1  0.67940000  0.53360000  0.77920000  1.0 -0.2422081534
N  N34  1  0.32060000  0.46640000  0.22080000  1.0 -0.2422081534
N  N35  1  0.34610000  0.73390000  0.78700000  1.0 -0.5004770611
N  N36  1  0.65390000  0.26610000  0.21300000  1.0 -0.5004770611
N  N37  1  0.40460000  0.90550000  0.71740000  1.0 -0.6070675506
N  N38  1  0.59540000  0.09450000  0.28260000  1.0 -0.5994224449
N  N39  1  0.88030000  0.47310000  0.71550000  1.0 -0.5916902725
N  N40  1  0.11970000  0.52690000  0.28450000  1.0 -0.5916902725
N  N41  1  0.88910000  0.74200000  0.51080000  1.0 -0.5994224449
N  N42  1  0.11090000  0.25800000  0.48920000  1.0 -0.5994224449
N  N43  1  0.60840000  0.76830000  0.48480000  1.0 -0.619583026
N  N44  1  0.39160000  0.23170000  0.51520000  1.0 -0.619583026
N  N45  1  0.38730000  0.67320000  0.87230000  1.0 -0.6070675506
N  N46  1  0.61270000  0.32680000  0.12770000  1.0 -0.6070675506
N  N47  1  0.73370000  0.61310000  0.89870000  1.0 -0.5994224449
N  N48  1  0.26630000  0.38690000  0.10130000  1.0 -0.5994224449
O  O1  1  0.62150000  0.62940000  0.68850000  1.0 -0.9577654654
O  O2  1  0.37850000  0.37060000  0.31150000  1.0 -0.9577654654
O  O3  1  0.68090000  0.76670000  0.71063000  1.0 -0.9577654654
O  O4  1  0.31910000  0.23330000  0.28937000  1.0 -0.9544994686
O  O5  1  0.47530000  0.72950000  0.59460000  1.0 -0.6467598978
O  O6  1  0.52470000  0.27050000  0.40540000  1.0 -0.6467598978
O  O7  1  0.59960000  0.66760000  0.80450000  1.0 -0.8733663265
O  O8  1  0.40040000  0.33240000  0.19550000  1.0 -0.8733663265
O  O9  1  0.73290000  0.81420000  0.38630000  1.0 -0.7193766943
O  O10  1  0.26710000  0.18580000  0.61370000  1.0 -0.7193766943
O  O11  1  0.73840000  0.94550000  0.41070000  1.0 -0.5787029171
O  O12  1  0.26160000  0.05450000  0.58930000  1.0 -0.5787029171
O  O13  1  0.56940000  0.77690000  0.64471000  1.0 -0.8607627306
O  O14  1  0.43060000  0.22310000  0.35529000  1.0 -0.8607627306
O  O15  1  0.52510000  0.55280000  0.85440000  1.0 -0.6268859957
O  O16  1  0.47490000  0.44720000  0.14560000  1.0 -0.6268859957
O  O17  1  0.82550000  0.52320000  0.60370000  1.0 -0.5994224449
O  O18  1  0.17450000  0.47680000  0.39630000  1.0 -0.5994224449
O  O19  1  0.78330000  0.64900000  0.65070000  1.0 -0.8733663265
O  O20  1  0.21670000  0.35100000  0.34930000  1.0 -0.8733663265
O  O21  1  0.54090000  0.52730000  0.74890000  1.0 -0.6994487413
O  O22  1  0.45910000  0.47270000  0.25110000  1.0 -0.6994487413
O  O23  1  0.87220000  0.75690000  0.39440000  1.0 -0.7193766943
O  O24  1  0.12780000  0.24310000  0.60560000  1.0 -0.7193766943
O  O25  1  0.55860000  0.92200000  0.62510000  1.0 -0.5413865749
O  O26  1  0.44140000  0.07800000  0.37490000  1.0 -0.5413865749
O  O27  1  0.90880000  0.71970000  0.63500000  1.0 -0.573406801
O  O28  1  0.09120000  0.28030000  0.36500000  1.0 -0.573406801
O  O29  1  0.53070000  0.59980000  0.62940000  1.0 -0.7103547011
O  O30  1  0.46930000  0.40020000  0.37060000  1.0 -0.7103547011
O  O31  1  0.26110000  0.79670000  0.89410000  1.0 -0.7193766943
O  O32  1  0.73890000  0.20330000  0.10590000  1.0 -0.7193766943
O  O33  1  0.67920000  0.50600000  0.64310000  1.0 -0.7103547011
O  O34  1  0.32080000  0.49400000  0.35690000  1.0 -0.7103547011
O  O35  1  0.93890000  0.44210000  0.81710000  1.0 -0.6880505735
O  O36  1  0.06110000  0.55790000  0.18290000  1.0 -0.6880505735
O  O37  1  0.85960000  0.62130000  0.38590000  1.0 -0.6467598978
O  O38  1  0.14040000  0.37870000  0.61410000  1.0 -0.6467598978
O  O39  1  0.84240000  0.88280000  0.31150000  1.0 -0.6409453307
O  O40  1  0.15760000  0.11720000  0.68850000  1.0 -0.6409453307
O  O41  1  0.57900000  0.46990000  0.58650000  1.0 -0.5994224449
O  O42  1  0.42100000  0.53010000  0.41350000  1.0 -0.5994224449
O  O43  1  0.61410000  0.74710000  0.88530000  1.0 -0.6409453307
O  O44  1  0.38590000  0.25290000  0.11470000  1.0 -0.6409453307
O  O45  1  0.84890000  0.73530000  0.29580000  1.0 -0.5787029171
O  O46  1  0.15110000  0.26470000  0.70420000  1.0 -0.5787029171
O  O47  1  0.83410000  0.47960000  0.91370000  1.0 -0.7103547011
O  O48  1  0.16590000  0.52040000  0.08630000  1.0 -0.7103547011
O  O49  1  0.65300000  0.91000000  0.69000000  1.0 -0.6994487413
O  O50  1  0.34700000  0.09000000  0.31000000  1.0 -0.6994487413
O  O51  1  0.81100000  0.82500000  0.68410000  1.0 -0.7103547011
O  O52  1  0.18900000  0.17500000  0.31590000  1.0 -0.7103547011
O  O53  1  0.25330000  0.88210000  0.79690000  1.0 -0.6994487413
O  O54  1  0.74670000  0.11790000  0.20310000  1.0 -0.6994487413
O  O55  1  0.11990000  0.83830000  0.85510000  1.0 -0.5787029171
O  O56  1  0.88010000  0.16170000  0.14490000  1.0 -0.5787029171
O  O57  1  0.45450000  0.48340000  0.69160000  1.0 -0.5916902725
O  O58  1  0.54550000  0.51660000  0.30840000  1.0 -0.5916902725
O  O59  1  0.01880000  0.55060000  0.79990000  1.0 -0.619583026
O  O60  1  0.98120000  0.44940000  0.20010000  1.0 -0.619583026
O  O61  1  0.74060000  0.38430000  0.92120000  1.0 -0.619583026
O  O62  1  0.25940000  0.61570000  0.07880000  1.0 -0.619583026
O  O63  1  0.21000000  0.78840000  0.74740000  1.0 -0.5916902725
O  O64  1  0.79000000  0.21160000  0.25260000  1.0 -0.5916902725
O  O65  1  0.69120000  0.82840000  0.79910000  1.0 -0.7193766943
O  O66  1  0.30880000  0.17160000  0.20090000  1.0 -0.7257916186
O  O67  1  0.32550000  0.88170000  0.93650000  1.0 -0.5606834147
O  O68  1  0.67450000  0.11830000  0.06350000  1.0 -0.5606834147
O  O69  1  0.00270000  0.44700000  0.90000000  1.0 -0.5994224449
O  O70  1  0.99730000  0.55300000  0.10000000  1.0 -0.5994224449
O  O71  1  0.78910000  0.89760000  0.23700000  1.0 -0.4283547405
O  O72  1  0.21090000  0.10240000  0.76300000  1.0 -0.4283547405
O  O73  1  0.63930000  0.03090000  0.39660000  1.0 -0.573406801
O  O74  1  0.36070000  0.96910000  0.60340000  1.0 -0.573406801
O  O75  1  0.89920000  0.34370000  0.92530000  1.0 -0.5994224449
O  O76  1  0.10080000  0.65630000  0.07470000  1.0 -0.5994224449
O  O77  1  0.17730000  0.92260000  0.91440000  1.0 -0.5787029171
O  O78  1  0.82270000  0.07740000  0.08560000  1.0 -0.5787029171
O  O79  1  0.78880000  0.97080000  0.66920000  1.0 -0.5787029171
O  O80  1  0.21120000  0.02920000  0.33080000  1.0 -0.573406801
O  O81  1  0.59970000  0.39700000  0.69540000  1.0 -0.5488964323
O  O82  1  0.40030000  0.60300000  0.30460000  1.0 -0.5488964323
O  O83  1  0.96780000  0.75460000  0.24000000  1.0 -0.5305907383
O  O84  1  0.03220000  0.24540000  0.76000000  1.0 -0.5305907383
O  O85  1  0.86160000  0.32990000  0.82700000  1.0 -0.6994487413
O  O86  1  0.13840000  0.67010000  0.17300000  1.0 -0.6880505735
O  O87  1  0.90700000  0.34470000  0.01650000  1.0 -0.448355161
O  O88  1  0.09300000  0.65530000  0.98350000  1.0 -0.448355161
O  O89  1  0.87310000  0.43210000  0.55420000  1.0 -0.4618374739
O  O90  1  0.12690000  0.56790000  0.44580000  1.0 -0.4618374739
O  O91  1  0.04610000  0.94480000  0.83340000  1.0 -0.4664070163
O  O92  1  0.95390000  0.05520000  0.16660000  1.0 -0.4618374739
O  O93  1  0.09370000  0.34980000  0.88030000  1.0 -0.3390234862
O  O94  1  0.90630000  0.65020000  0.11970000  1.0 -0.3390234862
O  O95  1  0.66460000  0.97980000  0.77380000  1.0 -0.5787029171
O  O96  1  0.33540000  0.02020000  0.22620000  1.0 -0.573406801
O  O97  1  0.97080000  0.54190000  0.38460000  1.0 -0.5004770611
O  O98  1  0.02920000  0.45810000  0.61540000  1.0 -0.5004770611
O  O99  1  0.81520000  0.89770000  0.77510000  1.0 -0.4897304678
O  O100  1  0.18480000  0.10230000  0.22490000  1.0 -0.4897304678
O  O101  1  0.39960000  0.70500000  0.54840000  1.0 -0.4897304678
O  O102  1  0.60040000  0.29500000  0.45160000  1.0 -0.4897304678
O  O103  1  0.08680000  0.87950000  0.99270000  1.0 -0.4200956452
O  O104  1  0.91320000  0.12050000  0.00730000  1.0 -0.4200956452
O  O105  1  0.61000000  0.47950000  0.48840000  1.0 -0.448355161
O  O106  1  0.39000000  0.52050000  0.51160000  1.0 -0.448355161
O  O107  1  0.55010000  0.03410000  0.59220000  1.0 -0.5090777729
O  O108  1  0.44990000  0.96590000  0.40780000  1.0 -0.5090777729
O  O109  1  0.63420000  0.39840000  0.99600000  1.0 -0.5488964323
O  O110  1  0.36580000  0.60160000  0.00400000  1.0 -0.5488964323
O  O111  1  0.01390000  0.77140000  0.60290000  1.0 -0.5787029171
O  O112  1  0.98610000  0.22860000  0.39710000  1.0 -0.5787029171
O  O113  1  0.82020000  0.01770000  0.57550000  1.0 -0.4897304678
O  O114  1  0.17980000  0.98230000  0.42450000  1.0 -0.4897304678
O  O115  1  0.46950000  0.46340000  0.90330000  1.0 -0.5211761747
O  O116  1  0.53050000  0.53660000  0.09670000  1.0 -0.5211761747
O  O117  1  0.22690000  0.82840000  0.65300000  1.0 -0.5916902725
O  O118  1  0.77310000  0.17160000  0.34700000  1.0 -0.5916902725
O  O119  1  0.13040000  0.54020000  0.72870000  1.0 -0.390110503
O  O120  1  0.86960000  0.45980000  0.27130000  1.0 -0.390110503
O  O121  1  0.62880000  0.79450000  0.95670000  1.0 -0.4111617907
O  O122  1  0.37120000  0.20550000  0.04330000  1.0 -0.4111617907
O  O123  1  0.32820000  0.53230000  0.72380000  1.0 -0.4618374739
O  O124  1  0.67180000  0.46770000  0.27620000  1.0 -0.4618374739
O  O125  1  0.54810000  0.02900000  0.82510000  1.0 -0.4664070163
O  O126  1  0.45190000  0.97100000  0.17490000  1.0 -0.4664070163
O  O127  1  0.91000000  0.82270000  0.81600000  1.0 -0.0521623459
O  O128  1  0.09000000  0.17730000  0.18400000  1.0 -0.0563931916
O  O129  1  0.36650000  0.81630000  0.01320000  1.0 -0.0071268885
O  O130  1  0.63350000  0.18370000  0.98680000  1.0 -0.0071268885
O  O131  1  0.68490000  0.29620000  0.72000000  1.0 0.0321002549
O  O132  1  0.31510000  0.70380000  0.28000000  1.0 0.0321002549
O  O133  1  0.77430000  0.04460000  0.46500000  1.0 -0.2501762811
O  O134  1  0.22570000  0.95540000  0.53500000  1.0 -0.2501762811
O  O135  1  0.03300000  0.83180000  0.71990000  1.0 0.1205440259
O  O136  1  0.96700000  0.16820000  0.28010000  1.0 0.1312454918
O  O137  1  0.66340000  0.31790000  0.74910000  1.0 -0.0323522281
O  O138  1  0.33660000  0.68210000  0.25090000  1.0 -0.0359839764
O  O139  1  0.31840000  0.85590000  0.03190000  1.0 0.0703318748
O  O140  1  0.68160000  0.14410000  0.96810000  1.0 0.0703318748
O  O141  1  0.01470000  0.89000000  0.71470000  1.0 0.081216718
O  O142  1  0.98530000  0.11000000  0.28530000  1.0 0.0703318748
O  O143  1  0.89850000  0.86820000  0.82470000  1.0 0.0321002549
O  O144  1  0.10150000  0.13180000  0.17530000  1.0 0.0377357673
