# DDEC6 charges by PACMAN v1.1 (https://github.com/mtap-research/PACMAN-charge/)
data_RIQQOB_FSR_pacman
_symmetry_space_group_name_H-M   'P 1'
_cell_length_a   10.98290000
_cell_length_b   11.88250000
_cell_length_c   13.08270000
_cell_angle_alpha   87.51000000
_cell_angle_beta   103.28400000
_cell_angle_gamma   101.32200000
_symmetry_Int_Tables_number   1
_chemical_formula_structural   Ca3P4H20(C7O10)2
_chemical_formula_sum   'Ca6 P8 H40 C28 O40'
_cell_volume   1629.32575612
_cell_formula_units_Z   2
loop_
 _symmetry_equiv_pos_site_id
 _symmetry_equiv_pos_as_xyz
  1  'x, y, z'
loop_
 _atom_site_type_symbol
 _atom_site_label
 _atom_site_symmetry_multiplicity
 _atom_site_fract_x
 _atom_site_fract_y
 _atom_site_fract_z
 _atom_site_occupancy
 _atom_site_charge
Ca  Ca1  1  0.32505000  0.96712000  0.14151000  1.0 1.4202904877
Ca  Ca2  1  0.67495000  0.03288000  0.85849000  1.0 1.4202904877
Ca  Ca3  1  0.97315000  0.96882000  0.28375000  1.0 1.4802836355
Ca  Ca4  1  0.02685000  0.03118000  0.71625000  1.0 1.4802836355
Ca  Ca5  1  0.65715000  0.04821000  0.35095000  1.0 1.4138094362
Ca  Ca6  1  0.34285000  0.95179000  0.64905000  1.0 1.4138094362
P  P1  1  0.65765000  0.98676000  0.12456000  1.0 1.2689495461
P  P2  1  0.34235000  0.01324000  0.87544000  1.0 1.2689495461
P  P3  1  0.80116000  0.83453000  0.03176000  1.0 1.2579764303
P  P4  1  0.19884000  0.16547000  0.96824000  1.0 1.2579764303
P  P5  1  0.17572000  0.14151000  0.49046000  1.0 1.2689495461
P  P6  1  0.82428000  0.85849000  0.50954000  1.0 1.2689495461
P  P7  1  0.32100000  0.00301000  0.37978000  1.0 1.2689495461
P  P8  1  0.67900000  0.99699000  0.62022000  1.0 1.2689495461
H  H1  1  0.93930000  0.74864000  0.38580000  1.0 0.3576389826
H  H2  1  0.06070000  0.25136000  0.61420000  1.0 0.3576389826
H  H3  1  0.05718000  0.76173000  0.36760000  1.0 0.3457493063
H  H4  1  0.94282000  0.23827000  0.63240000  1.0 0.3446195003
H  H5  1  0.06586000  0.11033000  0.12611000  1.0 0.3576389826
H  H6  1  0.93414000  0.88967000  0.87389000  1.0 0.3576389826
H  H7  1  0.94057000  0.11275000  0.10359000  1.0 0.3682446854
H  H8  1  0.05943000  0.88725000  0.89641000  1.0 0.3682446854
H  H9  1  0.32401000  0.72475000  0.16723000  1.0 0.3197499689
H  H10  1  0.67599000  0.27525000  0.83277000  1.0 0.3197499689
H  H11  1  0.28782000  0.75269000  0.25293000  1.0 0.3334353741
H  H12  1  0.71218000  0.24731000  0.74707000  1.0 0.3334353741
H  H13  1  0.06913000  0.84456000  0.10529000  1.0 0.3682446854
H  H14  1  0.93087000  0.15544000  0.89471000  1.0 0.3682446854
H  H15  1  0.13481000  0.76626000  0.08596000  1.0 0.3098838951
H  H16  1  0.86519000  0.23374000  0.91404000  1.0 0.3098838951
H  H17  1  0.91713000  0.17040000  0.40562000  1.0 0.3880564149
H  H18  1  0.08287000  0.82960000  0.59438000  1.0 0.3880564149
H  H19  1  0.84937000  0.25222000  0.35077000  1.0 0.3682446854
H  H20  1  0.15063000  0.74778000  0.64923000  1.0 0.3682446854
H  H21  1  0.52899000  0.21861000  0.23147000  1.0 0.3880564149
H  H22  1  0.47101000  0.78139000  0.76853000  1.0 0.3880564149
H  H23  1  0.62967000  0.28330000  0.30610000  1.0 0.3576389826
H  H24  1  0.37033000  0.71670000  0.69390000  1.0 0.3576389826
H  H25  1  0.47500000  0.65600000  0.99100000  1.0 0.1393066708
H  H26  1  0.52500000  0.34400000  0.00900000  1.0 0.1393066708
H  H27  1  0.69700000  0.78600000  0.26000000  1.0 0.1492199626
H  H28  1  0.30300000  0.21400000  0.74000000  1.0 0.1492199626
H  H29  1  0.61800000  0.64400000  0.35600000  1.0 0.1393066708
H  H30  1  0.38200000  0.35600000  0.64400000  1.0 0.1393066708
H  H31  1  0.40600000  0.49700000  0.07900000  1.0 0.1393066708
H  H32  1  0.59400000  0.50300000  0.92100000  1.0 0.1393066708
H  H33  1  0.29600000  0.36900000  0.17200000  1.0 0.1492199626
H  H34  1  0.70400000  0.63100000  0.82800000  1.0 0.1492199626
H  H35  1  0.59400000  0.47900000  0.42400000  1.0 0.1301664587
H  H36  1  0.40600000  0.52100000  0.57600000  1.0 0.1301664587
H  H37  1  0.52000000  0.31800000  0.51300000  1.0 0.1393066708
H  H38  1  0.48000000  0.68200000  0.48700000  1.0 0.1393066708
H  H39  1  0.23900000  0.20600000  0.25900000  1.0 0.1492199626
H  H40  1  0.76100000  0.79400000  0.74100000  1.0 0.1492199626
C  C1  1  0.64690000  0.84730000  0.05860000  1.0 -0.1989935908
C  C2  1  0.35310000  0.15270000  0.94140000  1.0 -0.1989935908
C  C3  1  0.59700000  0.74340000  0.11890000  1.0 0.1036776032
C  C4  1  0.40300000  0.25660000  0.88110000  1.0 0.1036776032
C  C5  1  0.50940000  0.65110000  0.06530000  1.0 -0.0919673417
C  C6  1  0.49060000  0.34890000  0.93470000  1.0 -0.0919673417
C  C7  1  0.63700000  0.73560000  0.22680000  1.0 -0.0836335916
C  C8  1  0.36300000  0.26440000  0.77320000  1.0 -0.0836335916
C  C9  1  0.59050000  0.63990000  0.28120000  1.0 -0.1010188136
C  C10  1  0.40950000  0.36010000  0.71880000  1.0 -0.1010188136
C  C11  1  0.46480000  0.55470000  0.11990000  1.0 -0.1350649271
C  C12  1  0.53520000  0.44530000  0.88010000  1.0 -0.1348605428
C  C13  1  0.50300000  0.54690000  0.22840000  1.0 0.0656172324
C  C14  1  0.49700000  0.45310000  0.77160000  1.0 0.0656172324
C  C15  1  0.45570000  0.44450000  0.28760000  1.0 0.0763682302
C  C16  1  0.54430000  0.55550000  0.71240000  1.0 0.0763682302
C  C17  1  0.35050000  0.36200000  0.24110000  1.0 -0.1231590632
C  C18  1  0.64950000  0.63800000  0.75890000  1.0 -0.1231590632
C  C19  1  0.51700000  0.42460000  0.39070000  1.0 -0.1652755413
C  C20  1  0.48300000  0.57540000  0.60930000  1.0 -0.1652755413
C  C21  1  0.47540000  0.32740000  0.44520000  1.0 -0.0919673417
C  C22  1  0.52460000  0.67260000  0.55480000  1.0 -0.0919673417
C  C23  1  0.30950000  0.26340000  0.29430000  1.0 -0.1131334726
C  C24  1  0.69050000  0.73660000  0.70570000  1.0 -0.1131334726
C  C25  1  0.37180000  0.24490000  0.39710000  1.0 0.1119324591
C  C26  1  0.62820000  0.75510000  0.60290000  1.0 0.1119324591
C  C27  1  0.32890000  0.13670000  0.45530000  1.0 -0.1989935908
C  C28  1  0.67110000  0.86330000  0.54470000  1.0 -0.1989935908
O  O1  1  0.56580000  0.85240000  0.95466000  1.0 -0.354461116
O  O2  1  0.43420000  0.14760000  0.04534000  1.0 -0.3554667953
O  O3  1  0.54190000  0.97160000  0.17255000  1.0 -0.7811112129
O  O4  1  0.45810000  0.02840000  0.82745000  1.0 -0.7811112129
O  O5  1  0.65700000  0.07480000  0.03624000  1.0 -0.6882545078
O  O6  1  0.34300000  0.92520000  0.96376000  1.0 -0.6882545078
O  O7  1  0.77480000  0.01330000  0.21350000  1.0 -0.8288816634
O  O8  1  0.22520000  0.98670000  0.78650000  1.0 -0.8288816634
O  O9  1  0.78710000  0.70600000  0.99780000  1.0 -0.6793921812
O  O10  1  0.21290000  0.29400000  0.00220000  1.0 -0.6793921812
O  O11  1  0.81410000  0.90940000  0.93820000  1.0 -0.7443634096
O  O12  1  0.18590000  0.09060000  0.06180000  1.0 -0.7443634096
O  O13  1  0.90480000  0.85720000  0.12890000  1.0 -0.7597672168
O  O14  1  0.09520000  0.14280000  0.87110000  1.0 -0.7597672168
O  O15  1  0.98070000  0.76710000  0.33790000  1.0 -0.6711810652
O  O16  1  0.01930000  0.23290000  0.66210000  1.0 -0.6711810652
O  O17  1  0.00610000  0.12020000  0.15410000  1.0 -0.6793921812
O  O18  1  0.99390000  0.87980000  0.84590000  1.0 -0.6793921812
O  O19  1  0.34380000  0.77390000  0.21670000  1.0 -0.6369391207
O  O20  1  0.65620000  0.22610000  0.78330000  1.0 -0.6369391207
O  O21  1  0.12490000  0.83520000  0.07220000  1.0 -0.6882545078
O  O22  1  0.87510000  0.16480000  0.92780000  1.0 -0.6882545078
O  O23  1  0.41630000  0.12980000  0.55557000  1.0 -0.373472539
O  O24  1  0.58370000  0.87020000  0.44443000  1.0 -0.373472539
O  O25  1  0.19090000  0.26840000  0.53200000  1.0 -0.6882545078
O  O26  1  0.80910000  0.73160000  0.46800000  1.0 -0.6882545078
O  O27  1  0.06910000  0.12370000  0.39480000  1.0 -0.7706782643
O  O28  1  0.93090000  0.87630000  0.60520000  1.0 -0.7706782643
O  O29  1  0.16590000  0.06140000  0.58120000  1.0 -0.7811112129
O  O30  1  0.83410000  0.93860000  0.41880000  1.0 -0.7811112129
O  O31  1  0.34280000  0.91330000  0.46695000  1.0 -0.7007601682
O  O32  1  0.65720000  0.08670000  0.53305000  1.0 -0.7007601682
O  O33  1  0.19630000  0.97360000  0.29920000  1.0 -0.8288816634
O  O34  1  0.80370000  0.02640000  0.70080000  1.0 -0.8288816634
O  O35  1  0.43030000  0.03030000  0.32385000  1.0 -0.7811112129
O  O36  1  0.56970000  0.96970000  0.67615000  1.0 -0.7811112129
O  O37  1  0.84890000  0.19940000  0.39890000  1.0 -0.714606804
O  O38  1  0.15110000  0.80060000  0.60110000  1.0 -0.714606804
O  O39  1  0.60990000  0.22670000  0.26120000  1.0 -0.6793921812
O  O40  1  0.39010000  0.77330000  0.73880000  1.0 -0.6793921812
