# DDEC6 charges by PACMAN v1.1 (https://github.com/mtap-research/PACMAN-charge/)
data_RIQRAO_FSR_pacman
_symmetry_space_group_name_H-M   'P 1'
_cell_length_a   10.97820000
_cell_length_b   11.57900000
_cell_length_c   12.94170000
_cell_angle_alpha   90.35700000
_cell_angle_beta   103.81400000
_cell_angle_gamma   104.68600000
_symmetry_Int_Tables_number   1
_chemical_formula_structural   Mg3P4H20(C7O10)2
_chemical_formula_sum   'Mg6 P8 H40 C28 O40'
_cell_volume   1541.42191398
_cell_formula_units_Z   2
loop_
 _symmetry_equiv_pos_site_id
 _symmetry_equiv_pos_as_xyz
  1  'x, y, z'
loop_
 _atom_site_type_symbol
 _atom_site_label
 _atom_site_symmetry_multiplicity
 _atom_site_fract_x
 _atom_site_fract_y
 _atom_site_fract_z
 _atom_site_occupancy
 _atom_site_charge
Mg  Mg1  1  0.32112000  0.94957000  0.14200000  1.0 1.4212989267
Mg  Mg2  1  0.67888000  0.05043000  0.85800000  1.0 1.4212989267
Mg  Mg3  1  0.97485000  0.97053000  0.28830000  1.0 1.4813954886
Mg  Mg4  1  0.02515000  0.02947000  0.71170000  1.0 1.4813954886
Mg  Mg5  1  0.33627000  0.94787000  0.64570000  1.0 1.4212989267
Mg  Mg6  1  0.66373000  0.05213000  0.35430000  1.0 1.4212989267
P  P1  1  0.79480000  0.83912000  0.01890000  1.0 1.2493241783
P  P2  1  0.20520000  0.16088000  0.98110000  1.0 1.2493241783
P  P3  1  0.65800000  0.99066000  0.12140000  1.0 1.2613346036
P  P4  1  0.34200000  0.00934000  0.87860000  1.0 1.2613346036
P  P5  1  0.32390000  0.00468000  0.38130000  1.0 1.2493241783
P  P6  1  0.67610000  0.99532000  0.61870000  1.0 1.2493241783
P  P7  1  0.19740000  0.15762000  0.50420000  1.0 1.2674421723
P  P8  1  0.80260000  0.84238000  0.49580000  1.0 1.2674421723
H  H1  1  0.05328000  0.75126000  0.34843000  1.0 0.40750367
H  H2  1  0.94672000  0.24874000  0.65157000  1.0 0.40750367
H  H3  1  0.91771000  0.70728000  0.28268000  1.0 0.399284875
H  H4  1  0.08229000  0.29272000  0.71732000  1.0 0.399284875
H  H5  1  0.30359000  0.73220000  0.75053000  1.0 0.3254267182
H  H6  1  0.69641000  0.26780000  0.24947000  1.0 0.3254267182
H  H7  1  0.43261000  0.78727000  0.78667000  1.0 0.3566297199
H  H8  1  0.56739000  0.21273000  0.21333000  1.0 0.3566297199
H  H9  1  0.70984000  0.80023000  0.24653000  1.0 0.138013813
H  H10  1  0.29016000  0.19977000  0.75347000  1.0 0.138013813
H  H11  1  0.44802000  0.64129000  0.98356000  1.0 0.138013813
H  H12  1  0.55198000  0.35871000  0.01644000  1.0 0.138013813
H  H13  1  0.37923000  0.48145000  0.08038000  1.0 0.138013813
H  H14  1  0.62077000  0.51855000  0.91962000  1.0 0.138013813
H  H15  1  0.64147000  0.64111000  0.33637000  1.0 0.1868280265
H  H16  1  0.35853000  0.35889000  0.66363000  1.0 0.1868280265
H  H17  1  0.60898000  0.50645000  0.42090000  1.0 0.1248175408
H  H18  1  0.39102000  0.49355000  0.57910000  1.0 0.1248175408
H  H19  1  0.32316000  0.35396000  0.17040000  1.0 0.1868280265
H  H20  1  0.67684000  0.64604000  0.82960000  1.0 0.1868280265
H  H21  1  0.25659000  0.19782000  0.26790000  1.0 0.1305112373
H  H22  1  0.74341000  0.80218000  0.73210000  1.0 0.1305112373
H  H23  1  0.54282000  0.34682000  0.51887000  1.0 0.1305112373
H  H24  1  0.45718000  0.65318000  0.48113000  1.0 0.1305112373
H  H25  1  0.28064000  0.72828000  0.25397000  1.0 0.370309418
H  H26  1  0.71936000  0.27172000  0.74603000  1.0 0.370309418
H  H27  1  0.42009000  0.77828000  0.28352000  1.0 0.399284875
H  H28  1  0.57991000  0.22172000  0.71648000  1.0 0.399284875
H  H29  1  0.05689000  0.81364000  0.10601000  1.0 0.370309418
H  H30  1  0.94311000  0.18636000  0.89399000  1.0 0.370309418
H  H31  1  0.12370000  0.72871000  0.10132000  1.0 0.3238846417
H  H32  1  0.87630000  0.27129000  0.89868000  1.0 0.3238846417
H  H33  1  0.09747000  0.12910000  0.13981000  1.0 0.3907317575
H  H34  1  0.90253000  0.87090000  0.86019000  1.0 0.3907317575
H  H35  1  0.03276000  0.20398000  0.18718000  1.0 0.3907317575
H  H36  1  0.96724000  0.79602000  0.81282000  1.0 0.3907317575
H  H37  1  0.07215000  0.81139000  0.60771000  1.0 0.3566297199
H  H38  1  0.92785000  0.18861000  0.39229000  1.0 0.3566297199
H  H39  1  0.14048000  0.72690000  0.61924000  1.0 0.3238846417
H  H40  1  0.85952000  0.27310000  0.38076000  1.0 0.3238846417
C  C1  1  0.64020000  0.84610000  0.04540000  1.0 -0.1986784768
C  C2  1  0.35980000  0.15390000  0.95460000  1.0 -0.1986784768
C  C3  1  0.58800000  0.73950000  0.10470000  1.0 0.1003919225
C  C4  1  0.41200000  0.26050000  0.89530000  1.0 0.1003919225
C  C5  1  0.64290000  0.73590000  0.21080000  1.0 -0.1147127618
C  C6  1  0.35710000  0.26410000  0.78920000  1.0 -0.1147127618
C  C7  1  0.48810000  0.64230000  0.05560000  1.0 -0.0829609056
C  C8  1  0.51190000  0.35770000  0.94440000  1.0 -0.0829609056
C  C9  1  0.44740000  0.54620000  0.11370000  1.0 -0.1262093131
C  C10  1  0.55260000  0.45380000  0.88630000  1.0 -0.1262093131
C  C11  1  0.50560000  0.54530000  0.21850000  1.0 0.0650203209
C  C12  1  0.49440000  0.45470000  0.78150000  1.0 0.0634825471
C  C13  1  0.60150000  0.64060000  0.26430000  1.0 -0.118361562
C  C14  1  0.39850000  0.35940000  0.73570000  1.0 -0.118361562
C  C15  1  0.46820000  0.44410000  0.28690000  1.0 0.0634825471
C  C16  1  0.53180000  0.55590000  0.71310000  1.0 0.0634825471
C  C17  1  0.53720000  0.44350000  0.39050000  1.0 -0.118361562
C  C18  1  0.46280000  0.55650000  0.60950000  1.0 -0.118361562
C  C19  1  0.36710000  0.35340000  0.24130000  1.0 -0.1002812181
C  C20  1  0.63290000  0.64660000  0.75870000  1.0 -0.1002812181
C  C21  1  0.32890000  0.25980000  0.29960000  1.0 -0.118361562
C  C22  1  0.67110000  0.74020000  0.70040000  1.0 -0.118361562
C  C23  1  0.49790000  0.34790000  0.44830000  1.0 -0.086369643
C  C24  1  0.50210000  0.65210000  0.55170000  1.0 -0.086369643
C  C25  1  0.39220000  0.25330000  0.40260000  1.0 0.1054902691
C  C26  1  0.60780000  0.74670000  0.59740000  1.0 0.1054902691
C  C27  1  0.34390000  0.14660000  0.46290000  1.0 -0.1986784768
C  C28  1  0.65610000  0.85340000  0.53710000  1.0 -0.1986784768
O  O1  1  0.55470000  0.84300000  0.94060000  1.0 -0.3477325235
O  O2  1  0.44530000  0.15700000  0.05940000  1.0 -0.3477325235
O  O3  1  0.43890000  0.14520000  0.56400000  1.0 -0.3854210321
O  O4  1  0.56110000  0.85480000  0.43600000  1.0 -0.3854210321
O  O5  1  0.89600000  0.84810000  0.12100000  1.0 -0.7482613866
O  O6  1  0.10400000  0.15190000  0.87900000  1.0 -0.7482613866
O  O7  1  0.76890000  0.70900000  0.96380000  1.0 -0.7095371131
O  O8  1  0.23110000  0.29100000  0.03620000  1.0 -0.7095371131
O  O9  1  0.81890000  0.93310000  0.94120000  1.0 -0.7190867086
O  O10  1  0.18110000  0.06690000  0.05880000  1.0 -0.7190867086
O  O11  1  0.78180000  0.01940000  0.20880000  1.0 -0.8154513185
O  O12  1  0.21820000  0.98060000  0.79120000  1.0 -0.8143730108
O  O13  1  0.65610000  0.08280000  0.03740000  1.0 -0.6889646892
O  O14  1  0.34390000  0.91720000  0.96260000  1.0 -0.6889646892
O  O15  1  0.54360000  0.96790000  0.17080000  1.0 -0.7824511473
O  O16  1  0.45640000  0.03210000  0.82920000  1.0 -0.7824511473
O  O17  1  0.43420000  0.03030000  0.32600000  1.0 -0.7721364443
O  O18  1  0.56580000  0.96970000  0.67400000  1.0 -0.7721364443
O  O19  1  0.33950000  0.91260000  0.46370000  1.0 -0.7190867086
O  O20  1  0.66050000  0.08740000  0.53630000  1.0 -0.7190867086
O  O21  1  0.19530000  0.97310000  0.29880000  1.0 -0.82694822
O  O22  1  0.80470000  0.02690000  0.70120000  1.0 -0.82694822
O  O23  1  0.23110000  0.28850000  0.55140000  1.0 -0.6889646892
O  O24  1  0.76890000  0.71150000  0.44860000  1.0 -0.6889646892
O  O25  1  0.08600000  0.13600000  0.40850000  1.0 -0.7617921774
O  O26  1  0.91400000  0.86400000  0.59150000  1.0 -0.7617921774
O  O27  1  0.18290000  0.06830000  0.58830000  1.0 -0.7824511473
O  O28  1  0.81710000  0.93170000  0.41170000  1.0 -0.7824511473
O  O29  1  0.96980000  0.77050000  0.33740000  1.0 -0.7329547052
O  O30  1  0.03020000  0.22950000  0.66260000  1.0 -0.7329547052
O  O31  1  0.37100000  0.76870000  0.72870000  1.0 -0.6797036771
O  O32  1  0.62900000  0.23130000  0.27130000  1.0 -0.6797036771
O  O33  1  0.34880000  0.76600000  0.22350000  1.0 -0.7190867086
O  O34  1  0.65120000  0.23400000  0.77650000  1.0 -0.7190867086
O  O35  1  0.11740000  0.79860000  0.07830000  1.0 -0.7095371131
O  O36  1  0.88260000  0.20140000  0.92170000  1.0 -0.7095371131
O  O37  1  0.01750000  0.12290000  0.15980000  1.0 -0.7190867086
O  O38  1  0.98250000  0.87710000  0.84020000  1.0 -0.7190867086
O  O39  1  0.13440000  0.79160000  0.58730000  1.0 -0.7020928208
O  O40  1  0.86560000  0.20840000  0.41270000  1.0 -0.7020928208
