# DDEC6 charges by PACMAN v1.1 (https://github.com/mtap-research/PACMAN-charge/)
data_RIRCEE_ASR_pacman
_symmetry_space_group_name_H-M   'P 1'
_cell_length_a   39.58260000
_cell_length_b   39.58260000
_cell_length_c   39.58260000
_cell_angle_alpha   154.02200000
_cell_angle_beta   154.02200000
_cell_angle_gamma   37.06750000
_symmetry_Int_Tables_number   1
_chemical_formula_structural   Ho7H32C84(O19F4)2
_chemical_formula_sum   'Ho28 H128 C336 O152 F32'
_cell_volume   11882.21190003
_cell_formula_units_Z   4
loop_
 _symmetry_equiv_pos_site_id
 _symmetry_equiv_pos_as_xyz
  1  'x, y, z'
loop_
 _atom_site_type_symbol
 _atom_site_label
 _atom_site_symmetry_multiplicity
 _atom_site_fract_x
 _atom_site_fract_y
 _atom_site_fract_z
 _atom_site_occupancy
 _atom_site_charge
Ho  Ho1  1  0.29817000  0.79817000  0.50000000  1.0 1.8263006277
Ho  Ho2  1  0.54817000  0.54817000  0.00000000  1.0 1.8263006277
Ho  Ho3  1  0.45183000  0.45183000  0.00000000  1.0 1.8246771164
Ho  Ho4  1  0.20183000  0.70183000  0.50000000  1.0 1.8263006277
Ho  Ho5  1  0.15051000  0.82643000  0.32408000  1.0 1.7346561022
Ho  Ho6  1  0.50235000  0.82643000  0.67592000  1.0 1.7346561022
Ho  Ho7  1  0.57643000  0.75235000  0.17592000  1.0 1.7346561022
Ho  Ho8  1  0.57643000  0.40051000  0.82408000  1.0 1.7358865209
Ho  Ho9  1  0.24765000  0.42357000  0.82408000  1.0 1.7358865209
Ho  Ho10  1  0.59949000  0.42357000  0.17592000  1.0 1.7358865209
Ho  Ho11  1  0.17357000  0.49765000  0.32408000  1.0 1.7358865209
Ho  Ho12  1  0.17357000  0.84949000  0.67592000  1.0 1.7346561022
Ho  Ho13  1  0.34378000  0.93788000  0.59410000  1.0 1.1911088693
Ho  Ho14  1  0.34378000  0.74968000  0.40590000  1.0 1.1981522389
Ho  Ho15  1  0.68788000  0.59378000  0.09410000  1.0 1.1911088693
Ho  Ho16  1  0.49968000  0.59378000  0.90590000  1.0 1.1981522389
Ho  Ho17  1  0.40622000  0.31212000  0.90590000  1.0 1.1981522389
Ho  Ho18  1  0.40622000  0.50032000  0.09410000  1.0 1.1981522389
Ho  Ho19  1  0.25032000  0.65622000  0.59410000  1.0 1.1911088693
Ho  Ho20  1  0.06212000  0.65622000  0.40590000  1.0 1.1981522389
Ho  Ho21  1  0.34042000  0.95492000  0.61450000  1.0 1.2423188754
Ho  Ho22  1  0.34042000  0.72592000  0.38550000  1.0 1.2490096841
Ho  Ho23  1  0.70492000  0.59042000  0.11450000  1.0 1.2490096841
Ho  Ho24  1  0.47592000  0.59042000  0.88550000  1.0 1.2490096841
Ho  Ho25  1  0.40958000  0.29508000  0.88550000  1.0 1.2490096841
Ho  Ho26  1  0.40958000  0.52408000  0.11450000  1.0 1.2490096841
Ho  Ho27  1  0.27408000  0.65958000  0.61450000  1.0 1.2490096841
Ho  Ho28  1  0.04508000  0.65958000  0.38550000  1.0 1.2490096841
H  H1  1  0.19703000  0.16652000  0.90315000  1.0 0.0810161859
H  H2  1  0.26337000  0.29388000  0.09685000  1.0 0.0810161859
H  H3  1  0.91652000  0.51337000  0.46949000  1.0 0.0810161859
H  H4  1  0.04388000  0.44703000  0.53051000  1.0 0.0810161859
H  H5  1  0.48663000  0.08348000  0.53051000  1.0 0.0810161859
H  H6  1  0.55297000  0.95612000  0.46949000  1.0 0.0810161859
H  H7  1  0.70612000  0.73663000  0.90315000  1.0 0.0810161859
H  H8  1  0.83348000  0.80297000  0.09685000  1.0 0.0810161859
H  H9  1  0.55297000  0.08348000  0.59685000  1.0 0.0810161859
H  H10  1  0.48663000  0.95612000  0.40315000  1.0 0.0810161859
H  H11  1  0.83348000  0.73663000  0.03051000  1.0 0.0810161859
H  H12  1  0.70612000  0.80297000  0.96949000  1.0 0.0810161859
H  H13  1  0.26337000  0.16652000  0.96949000  1.0 0.0810161859
H  H14  1  0.19703000  0.29388000  0.03051000  1.0 0.0810161859
H  H15  1  0.04388000  0.51337000  0.59685000  1.0 0.0810161859
H  H16  1  0.91652000  0.44703000  0.40315000  1.0 0.0810161859
H  H17  1  0.23238000  0.13789000  0.63059000  1.0 0.0734405119
H  H18  1  0.50730000  0.60179000  0.36941000  1.0 0.0734405119
H  H19  1  0.88789000  0.75730000  0.40551000  1.0 0.0734405119
H  H20  1  0.35179000  0.48238000  0.59449000  1.0 0.0734405119
H  H21  1  0.24270000  0.11211000  0.59449000  1.0 0.0734405119
H  H22  1  0.51762000  0.64821000  0.40551000  1.0 0.0734405119
H  H23  1  0.39821000  0.49270000  0.63059000  1.0 0.0734405119
H  H24  1  0.86211000  0.76762000  0.36941000  1.0 0.0734405119
H  H25  1  0.51762000  0.11211000  0.86941000  1.0 0.0734405119
H  H26  1  0.24270000  0.64821000  0.13059000  1.0 0.0734405119
H  H27  1  0.86211000  0.49270000  0.09449000  1.0 0.0734405119
H  H28  1  0.39821000  0.76762000  0.90551000  1.0 0.0734405119
H  H29  1  0.50730000  0.13789000  0.90551000  1.0 0.0734405119
H  H30  1  0.23238000  0.60179000  0.09449000  1.0 0.0734405119
H  H31  1  0.35179000  0.75730000  0.86941000  1.0 0.0734405119
H  H32  1  0.88789000  0.48238000  0.13059000  1.0 0.0734405119
H  H33  1  0.26712000  0.04428000  0.86648000  1.0 0.1004040308
H  H34  1  0.17780000  0.40063000  0.13351000  1.0 0.1004040308
H  H35  1  0.79429000  0.42780000  0.27716000  1.0 0.1004040308
H  H36  1  0.15064000  0.51712000  0.72283000  1.0 0.1004040308
H  H37  1  0.57220000  0.20571000  0.72283000  1.0 0.1004040308
H  H38  1  0.48288000  0.84937000  0.27716000  1.0 0.1004040308
H  H39  1  0.59937000  0.82220000  0.86648000  1.0 0.1004040308
H  H40  1  0.95571000  0.73288000  0.13351000  1.0 0.1004040308
H  H41  1  0.48288000  0.20571000  0.63351000  1.0 0.1004040308
H  H42  1  0.57220000  0.84937000  0.36648000  1.0 0.1004040308
H  H43  1  0.95571000  0.82220000  0.22284000  1.0 0.1004040308
H  H44  1  0.59937000  0.73288000  0.77716000  1.0 0.1004040308
H  H45  1  0.17780000  0.04429000  0.77716000  1.0 0.1004040308
H  H46  1  0.26712000  0.40063000  0.22284000  1.0 0.1004040308
H  H47  1  0.15063000  0.42780000  0.63351000  1.0 0.1004040308
H  H48  1  0.79428000  0.51712000  0.36648000  1.0 0.1004040308
H  H49  1  0.27431000  0.87831000  0.65312000  1.0 0.0810161859
H  H50  1  0.22519000  0.62119000  0.34688000  1.0 0.0810161859
H  H51  1  0.62831000  0.47519000  0.10400000  1.0 0.0810161859
H  H52  1  0.37119000  0.52431000  0.89600000  1.0 0.0810161859
H  H53  1  0.52481000  0.37169000  0.89600000  1.0 0.0810161859
H  H54  1  0.47569000  0.62881000  0.10400000  1.0 0.0810161859
H  H55  1  0.37881000  0.77481000  0.65312000  1.0 0.0810161859
H  H56  1  0.12169000  0.72569000  0.34688000  1.0 0.0810161859
H  H57  1  0.47569000  0.37169000  0.84688000  1.0 0.0810161859
H  H58  1  0.52481000  0.62881000  0.15312000  1.0 0.0810161859
H  H59  1  0.12169000  0.77481000  0.39600000  1.0 0.0810161859
H  H60  1  0.37881000  0.72569000  0.60400000  1.0 0.0810161859
H  H61  1  0.22519000  0.87831000  0.60400000  1.0 0.0810161859
H  H62  1  0.27431000  0.62119000  0.39600000  1.0 0.0810161859
H  H63  1  0.37119000  0.47519000  0.84688000  1.0 0.0810161859
H  H64  1  0.62831000  0.52431000  0.15312000  1.0 0.0810161859
H  H65  1  0.33506000  0.09847000  0.88175000  1.0 0.1081693352
H  H66  1  0.21672000  0.45331000  0.11825000  1.0 0.1081693352
H  H67  1  0.84847000  0.46672000  0.26341000  1.0 0.1081693352
H  H68  1  0.20331000  0.58506000  0.73659000  1.0 0.1081693352
H  H69  1  0.53328000  0.15153000  0.73659000  1.0 0.1081693352
H  H70  1  0.41494000  0.79669000  0.26341000  1.0 0.1081693352
H  H71  1  0.54669000  0.78328000  0.88175000  1.0 0.1081693352
H  H72  1  0.90153000  0.66494000  0.11825000  1.0 0.1081693352
H  H73  1  0.41494000  0.15153000  0.61825000  1.0 0.1081693352
H  H74  1  0.53328000  0.79669000  0.38175000  1.0 0.1081693352
H  H75  1  0.90153000  0.78328000  0.23659000  1.0 0.1081693352
H  H76  1  0.54669000  0.66494000  0.76341000  1.0 0.1081693352
H  H77  1  0.21672000  0.09847000  0.76341000  1.0 0.1081693352
H  H78  1  0.33506000  0.45331000  0.23659000  1.0 0.1081693352
H  H79  1  0.20331000  0.46672000  0.61825000  1.0 0.1081693352
H  H80  1  0.84847000  0.58506000  0.38175000  1.0 0.1081693352
H  H81  1  0.03739000  0.00329000  0.31703000  1.0 0.0901286178
H  H82  1  0.68625000  0.72037000  0.68297000  1.0 0.0901286178
H  H83  1  0.75328000  0.93625000  0.46589000  1.0 0.0901286178
H  H84  1  0.47036000  0.28740000  0.53411000  1.0 0.0901286178
H  H85  1  0.06374000  0.24671000  0.53411000  1.0 0.0901286178
H  H86  1  0.71260000  0.52963000  0.46589000  1.0 0.0901286178
H  H87  1  0.27964000  0.31374000  0.31703000  1.0 0.0901286178
H  H88  1  0.99672000  0.96260000  0.68297000  1.0 0.0901286178
H  H89  1  0.71261000  0.24671000  0.18297000  1.0 0.0901286178
H  H90  1  0.06374000  0.52963000  0.81703000  1.0 0.0901286178
H  H91  1  0.99671000  0.31374000  0.03411000  1.0 0.0901286178
H  H92  1  0.27964000  0.96260000  0.96589000  1.0 0.0901286178
H  H93  1  0.68625000  0.00329000  0.96589000  1.0 0.0901286178
H  H94  1  0.03739000  0.72037000  0.03411000  1.0 0.0901286178
H  H95  1  0.47036000  0.93625000  0.18297000  1.0 0.0901286178
H  H96  1  0.75328000  0.28740000  0.81703000  1.0 0.0901286178
H  H97  1  0.07410000  0.21442000  0.49670000  1.0 0.0901286178
H  H98  1  0.71772000  0.57740000  0.50330000  1.0 0.0901286178
H  H99  1  0.96442000  0.96772000  0.64032000  1.0 0.0901286178
H  H100  1  0.32740000  0.32410000  0.35968000  1.0 0.0901286178
H  H101  1  0.03228000  0.03558000  0.35968000  1.0 0.0901286178
H  H102  1  0.67590000  0.67260000  0.64032000  1.0 0.0901286178
H  H103  1  0.42260000  0.28228000  0.49670000  1.0 0.0901286178
H  H104  1  0.78558000  0.92590000  0.50330000  1.0 0.0901286178
H  H105  1  0.67590000  0.03558000  0.00330000  1.0 0.0901286178
H  H106  1  0.03228000  0.67260000  0.99670000  1.0 0.0901286178
H  H107  1  0.78558000  0.28228000  0.85968000  1.0 0.0901286178
H  H108  1  0.42260000  0.92590000  0.14032000  1.0 0.0901286178
H  H109  1  0.71772000  0.21442000  0.14032000  1.0 0.0901286178
H  H110  1  0.07410000  0.57740000  0.85968000  1.0 0.0901286178
H  H111  1  0.32740000  0.96772000  0.00330000  1.0 0.0901286178
H  H112  1  0.96442000  0.32410000  0.99670000  1.0 0.0901286178
H  H113  1  0.97227000  0.13944000  0.29701000  1.0 0.2243686274
H  H114  1  0.84243000  0.67526000  0.70299000  1.0 0.2243686274
H  H115  1  0.88944000  0.09243000  0.66717000  1.0 0.2243686274
H  H116  1  0.42526000  0.22227000  0.33283000  1.0 0.2243686274
H  H117  1  0.90757000  0.11056000  0.33283000  1.0 0.2243686274
H  H118  1  0.77773000  0.57474000  0.66717000  1.0 0.2243686274
H  H119  1  0.32474000  0.15757000  0.29701000  1.0 0.2243686274
H  H120  1  0.86056000  0.02773000  0.70299000  1.0 0.2243686274
H  H121  1  0.77773000  0.11056000  0.20299000  1.0 0.2243686274
H  H122  1  0.90757000  0.57474000  0.79701000  1.0 0.2243686274
H  H123  1  0.86056000  0.15757000  0.83283000  1.0 0.2243686274
H  H124  1  0.32474000  0.02773000  0.16717000  1.0 0.2243686274
H  H125  1  0.84243000  0.13944000  0.16717000  1.0 0.2243686274
H  H126  1  0.97227000  0.67526000  0.83283000  1.0 0.2243686274
H  H127  1  0.42526000  0.09243000  0.20299000  1.0 0.2243686274
H  H128  1  0.88944000  0.22227000  0.79701000  1.0 0.2243686274
C  C1  1  0.23740000  0.20040000  0.96300000  1.0 -0.1205361269
C  C2  1  0.23740000  0.27440000  0.03700000  1.0 -0.1205361269
C  C3  1  0.95040000  0.48740000  0.46300000  1.0 -0.1205361269
C  C4  1  0.02440000  0.48740000  0.53700000  1.0 -0.1205361269
C  C5  1  0.51260000  0.04960000  0.53700000  1.0 -0.1205361269
C  C6  1  0.51260000  0.97560000  0.46300000  1.0 -0.1205361269
C  C7  1  0.72560000  0.76260000  0.96300000  1.0 -0.1205361269
C  C8  1  0.79960000  0.76260000  0.03700000  1.0 -0.1205361269
C  C9  1  0.19360000  0.12500000  0.56860000  1.0 -0.1386809785
C  C10  1  0.55640000  0.62500000  0.43140000  1.0 -0.1386809785
C  C11  1  0.87500000  0.80640000  0.43140000  1.0 -0.1386809785
C  C12  1  0.37500000  0.44360000  0.56860000  1.0 -0.1386809785
C  C13  1  0.55640000  0.12500000  0.93140000  1.0 -0.1386809785
C  C14  1  0.19360000  0.62500000  0.06860000  1.0 -0.1386809785
C  C15  1  0.87500000  0.44360000  0.06860000  1.0 -0.1386809785
C  C16  1  0.37500000  0.80640000  0.93140000  1.0 -0.1386809785
C  C17  1  0.32070000  0.95900000  0.71430000  1.0 0.2879745059
C  C18  1  0.24470000  0.60640000  0.28570000  1.0 0.2879745059
C  C19  1  0.70900000  0.49470000  0.13830000  1.0 0.2879745059
C  C20  1  0.35640000  0.57070000  0.86170000  1.0 0.2879745059
C  C21  1  0.50530000  0.29100000  0.86170000  1.0 0.2879745059
C  C22  1  0.42930000  0.64360000  0.13830000  1.0 0.2879745059
C  C23  1  0.39360000  0.75530000  0.71430000  1.0 0.2879745059
C  C24  1  0.04100000  0.67930000  0.28570000  1.0 0.2879745059
C  C25  1  0.42930000  0.29100000  0.78570000  1.0 0.2879745059
C  C26  1  0.50530000  0.64360000  0.21430000  1.0 0.2879745059
C  C27  1  0.04100000  0.75530000  0.36170000  1.0 0.2879745059
C  C28  1  0.39360000  0.67930000  0.63830000  1.0 0.2879745059
C  C29  1  0.24470000  0.95900000  0.63830000  1.0 0.2879745059
C  C30  1  0.32070000  0.60640000  0.36170000  1.0 0.2879745059
C  C31  1  0.35640000  0.49470000  0.78570000  1.0 0.2879745059
C  C32  1  0.70900000  0.57070000  0.21430000  1.0 0.2879745059
C  C33  1  0.04200000  0.11030000  0.39310000  1.0 0.0361619964
C  C34  1  0.71720000  0.64890000  0.60690000  1.0 0.0361619964
C  C35  1  0.86030000  0.96720000  0.56830000  1.0 0.0361619964
C  C36  1  0.39890000  0.29200000  0.43170000  1.0 0.0361619964
C  C37  1  0.03280000  0.13970000  0.43170000  1.0 0.0361619964
C  C38  1  0.70800000  0.60110000  0.56830000  1.0 0.0361619964
C  C39  1  0.35110000  0.28280000  0.39310000  1.0 0.0361619964
C  C40  1  0.88970000  0.95800000  0.60690000  1.0 0.0361619964
C  C41  1  0.70800000  0.13970000  0.10690000  1.0 0.0361619964
C  C42  1  0.03280000  0.60110000  0.89310000  1.0 0.0361619964
C  C43  1  0.88970000  0.28280000  0.93170000  1.0 0.0361619964
C  C44  1  0.35110000  0.95800000  0.06830000  1.0 0.0361619964
C  C45  1  0.71720000  0.11030000  0.06830000  1.0 0.0361619964
C  C46  1  0.04200000  0.64890000  0.93170000  1.0 0.0361619964
C  C47  1  0.39890000  0.96720000  0.10690000  1.0 0.0361619964
C  C48  1  0.86030000  0.29200000  0.89310000  1.0 0.0361619964
C  C49  1  0.22430000  0.24120000  0.66450000  1.0 0.3021458821
C  C50  1  0.57670000  0.55980000  0.33550000  1.0 0.3021458821
C  C51  1  0.99120000  0.82670000  0.51690000  1.0 0.3021458821
C  C52  1  0.30980000  0.47430000  0.48310000  1.0 0.3021458821
C  C53  1  0.17330000  0.00880000  0.48310000  1.0 0.3021458821
C  C54  1  0.52570000  0.69020000  0.51690000  1.0 0.3021458821
C  C55  1  0.44020000  0.42330000  0.66450000  1.0 0.3021458821
C  C56  1  0.75880000  0.77570000  0.33550000  1.0 0.3021458821
C  C57  1  0.52570000  0.00880000  0.83550000  1.0 0.3021458821
C  C58  1  0.17330000  0.69020000  0.16450000  1.0 0.3021458821
C  C59  1  0.75880000  0.42330000  0.98310000  1.0 0.3021458821
C  C60  1  0.44020000  0.77570000  0.01690000  1.0 0.3021458821
C  C61  1  0.57670000  0.24120000  0.01690000  1.0 0.3021458821
C  C62  1  0.22430000  0.55980000  0.98310000  1.0 0.3021458821
C  C63  1  0.30980000  0.82670000  0.83550000  1.0 0.3021458821
C  C64  1  0.99120000  0.47430000  0.16450000  1.0 0.3021458821
C  C65  1  0.27715000  0.02935000  0.84000000  1.0 -0.0998823594
C  C66  1  0.18935000  0.43715000  0.16000000  1.0 -0.0998823594
C  C67  1  0.77935000  0.43935000  0.25220000  1.0 -0.0998823594
C  C68  1  0.18715000  0.52715000  0.74780000  1.0 -0.0998823594
C  C69  1  0.56065000  0.22065000  0.74780000  1.0 -0.0998823594
C  C70  1  0.47285000  0.81285000  0.25220000  1.0 -0.0998823594
C  C71  1  0.56285000  0.81065000  0.84000000  1.0 -0.0998823594
C  C72  1  0.97065000  0.72285000  0.16000000  1.0 -0.0998823594
C  C73  1  0.47285000  0.22065000  0.66000000  1.0 -0.0998823594
C  C74  1  0.56065000  0.81285000  0.34000000  1.0 -0.0998823594
C  C75  1  0.97065000  0.81065000  0.24780000  1.0 -0.0998823594
C  C76  1  0.56285000  0.72285000  0.75220000  1.0 -0.0998823594
C  C77  1  0.18935000  0.02935000  0.75220000  1.0 -0.0998823594
C  C78  1  0.27715000  0.43715000  0.24780000  1.0 -0.0998823594
C  C79  1  0.18715000  0.43935000  0.66000000  1.0 -0.0998823594
C  C80  1  0.77935000  0.52715000  0.34000000  1.0 -0.0998823594
C  C81  1  0.26648000  0.95228000  0.75180000  1.0 0.0101936918
C  C82  1  0.20048000  0.51468000  0.24820000  1.0 0.0101936918
C  C83  1  0.70228000  0.45048000  0.18580000  1.0 0.0101936918
C  C84  1  0.26468000  0.51648000  0.81420000  1.0 0.0101936918
C  C85  1  0.54952000  0.29772000  0.81420000  1.0 0.0101936918
C  C86  1  0.48352000  0.73532000  0.18580000  1.0 0.0101936918
C  C87  1  0.48532000  0.79952000  0.75180000  1.0 0.0101936918
C  C88  1  0.04772000  0.73352000  0.24820000  1.0 0.0101936918
C  C89  1  0.48352000  0.29772000  0.74820000  1.0 0.0101936918
C  C90  1  0.54952000  0.73532000  0.25180000  1.0 0.0101936918
C  C91  1  0.04772000  0.79952000  0.31420000  1.0 0.0101936918
C  C92  1  0.48532000  0.73352000  0.68580000  1.0 0.0101936918
C  C93  1  0.20048000  0.95228000  0.68580000  1.0 0.0101936918
C  C94  1  0.26648000  0.51468000  0.31420000  1.0 0.0101936918
C  C95  1  0.26468000  0.45048000  0.74820000  1.0 0.0101936918
C  C96  1  0.70228000  0.51648000  0.25180000  1.0 0.0101936918
C  C97  1  0.28149000  0.92989000  0.71220000  1.0 -0.082859592
C  C98  1  0.21769000  0.56929000  0.28780000  1.0 -0.082859592
C  C99  1  0.67989000  0.46769000  0.14840000  1.0 -0.082859592
C  C100  1  0.31929000  0.53149000  0.85160000  1.0 -0.082859592
C  C101  1  0.53231000  0.32011000  0.85160000  1.0 -0.082859592
C  C102  1  0.46851000  0.68071000  0.14840000  1.0 -0.082859592
C  C103  1  0.43071000  0.78231000  0.71220000  1.0 -0.082859592
C  C104  1  0.07011000  0.71851000  0.28780000  1.0 -0.082859592
C  C105  1  0.46851000  0.32011000  0.78780000  1.0 -0.082859592
C  C106  1  0.53231000  0.68071000  0.21220000  1.0 -0.082859592
C  C107  1  0.07011000  0.78231000  0.35160000  1.0 -0.082859592
C  C108  1  0.43071000  0.71851000  0.64840000  1.0 -0.082859592
C  C109  1  0.21769000  0.92989000  0.64840000  1.0 -0.082859592
C  C110  1  0.28149000  0.56929000  0.35160000  1.0 -0.082859592
C  C111  1  0.31929000  0.46769000  0.78780000  1.0 -0.082859592
C  C112  1  0.67989000  0.53149000  0.21220000  1.0 -0.082859592
C  C113  1  0.30718000  0.98468000  0.76090000  1.0 -0.0012017828
C  C114  1  0.22378000  0.54628000  0.23910000  1.0 -0.0012017828
C  C115  1  0.73468000  0.47378000  0.17750000  1.0 -0.0012017828
C  C116  1  0.29628000  0.55718000  0.82250000  1.0 -0.0012017828
C  C117  1  0.52622000  0.26532000  0.82250000  1.0 -0.0012017828
C  C118  1  0.44282000  0.70372000  0.17750000  1.0 -0.0012017828
C  C119  1  0.45372000  0.77622000  0.76090000  1.0 -0.0012017828
C  C120  1  0.01532000  0.69282000  0.23910000  1.0 -0.0012017828
C  C121  1  0.44282000  0.26532000  0.73910000  1.0 -0.0012017828
C  C122  1  0.52622000  0.70372000  0.26090000  1.0 -0.0012017828
C  C123  1  0.01532000  0.77622000  0.32250000  1.0 -0.0012017828
C  C124  1  0.45372000  0.69282000  0.67750000  1.0 -0.0012017828
C  C125  1  0.22378000  0.98468000  0.67750000  1.0 -0.0012017828
C  C126  1  0.30718000  0.54628000  0.32250000  1.0 -0.0012017828
C  C127  1  0.29628000  0.47378000  0.73910000  1.0 -0.0012017828
C  C128  1  0.73468000  0.55718000  0.26090000  1.0 -0.0012017828
C  C129  1  0.31786000  0.06186000  0.84920000  1.0 -0.1639732254
C  C130  1  0.21266000  0.46866000  0.15080000  1.0 -0.1639732254
C  C131  1  0.81186000  0.46266000  0.24400000  1.0 -0.1639732254
C  C132  1  0.21866000  0.56786000  0.75600000  1.0 -0.1639732254
C  C133  1  0.53734000  0.18814000  0.75600000  1.0 -0.1639732254
C  C134  1  0.43214000  0.78134000  0.24400000  1.0 -0.165270739
C  C135  1  0.53134000  0.78734000  0.84920000  1.0 -0.1639732254
C  C136  1  0.93814000  0.68214000  0.15080000  1.0 -0.1639732254
C  C137  1  0.43214000  0.18814000  0.65080000  1.0 -0.1639732254
C  C138  1  0.53734000  0.78134000  0.34920000  1.0 -0.1639732254
C  C139  1  0.93814000  0.78734000  0.25600000  1.0 -0.1639732254
C  C140  1  0.53134000  0.68214000  0.74400000  1.0 -0.1639732254
C  C141  1  0.21266000  0.06186000  0.74400000  1.0 -0.1639732254
C  C142  1  0.31786000  0.46866000  0.25600000  1.0 -0.1639732254
C  C143  1  0.21866000  0.46266000  0.65080000  1.0 -0.1639732254
C  C144  1  0.81186000  0.56786000  0.34920000  1.0 -0.1639732254
C  C145  1  0.30284000  0.08414000  0.88870000  1.0 0.020571482
C  C146  1  0.19544000  0.41414000  0.11130000  1.0 0.020571482
C  C147  1  0.83414000  0.44544000  0.28130000  1.0 0.020571482
C  C148  1  0.16414000  0.55284000  0.71870000  1.0 0.020571482
C  C149  1  0.55456000  0.16586000  0.71870000  1.0 0.020571482
C  C150  1  0.44716000  0.83586000  0.28130000  1.0 0.020571482
C  C151  1  0.58586000  0.80456000  0.88870000  1.0 0.020571482
C  C152  1  0.91586000  0.69716000  0.11130000  1.0 0.020571482
C  C153  1  0.44716000  0.16586000  0.61130000  1.0 0.020571482
C  C154  1  0.55456000  0.83586000  0.38870000  1.0 0.020571482
C  C155  1  0.91586000  0.80456000  0.21870000  1.0 0.020571482
C  C156  1  0.58586000  0.69716000  0.78130000  1.0 0.020571482
C  C157  1  0.19544000  0.08414000  0.78130000  1.0 0.020571482
C  C158  1  0.30284000  0.41414000  0.21870000  1.0 0.020571482
C  C159  1  0.16414000  0.44544000  0.61130000  1.0 0.020571482
C  C160  1  0.83414000  0.55284000  0.38870000  1.0 0.020571482
C  C161  1  0.07030000  0.04490000  0.37760000  1.0 -0.1071054864
C  C162  1  0.66730000  0.69270000  0.62240000  1.0 -0.1071054864
C  C163  1  0.79490000  0.91730000  0.47460000  1.0 -0.1071054864
C  C164  1  0.44270000  0.32030000  0.52540000  1.0 -0.1071054864
C  C165  1  0.08270000  0.20510000  0.52540000  1.0 -0.1071054864
C  C166  1  0.67970000  0.55730000  0.47460000  1.0 -0.1071054864
C  C167  1  0.30730000  0.33270000  0.37760000  1.0 -0.1071054864
C  C168  1  0.95510000  0.92970000  0.62240000  1.0 -0.1071054864
C  C169  1  0.67970000  0.20510000  0.12240000  1.0 -0.1071054864
C  C170  1  0.08270000  0.55730000  0.87760000  1.0 -0.1071054864
C  C171  1  0.95510000  0.33270000  0.02540000  1.0 -0.1071054864
C  C172  1  0.30730000  0.92970000  0.97460000  1.0 -0.1071054864
C  C173  1  0.66730000  0.04490000  0.97460000  1.0 -0.1071054864
C  C174  1  0.07030000  0.69270000  0.02540000  1.0 -0.1071054864
C  C175  1  0.44270000  0.91730000  0.12240000  1.0 -0.1071054864
C  C176  1  0.79490000  0.32030000  0.87760000  1.0 -0.1071054864
C  C177  1  0.96013000  0.10783000  0.30650000  1.0 -0.0157563902
C  C178  1  0.80133000  0.65363000  0.69350000  1.0 -0.0157563902
C  C179  1  0.85783000  0.05133000  0.64770000  1.0 -0.0132593995
C  C180  1  0.40363000  0.21013000  0.35230000  1.0 -0.0157563902
C  C181  1  0.94867000  0.14217000  0.35230000  1.0 -0.0157563902
C  C182  1  0.78987000  0.59637000  0.64770000  1.0 -0.0132593995
C  C183  1  0.34637000  0.19867000  0.30650000  1.0 -0.0157563902
C  C184  1  0.89217000  0.03987000  0.69350000  1.0 -0.0157563902
C  C185  1  0.78987000  0.14217000  0.19350000  1.0 -0.0132593995
C  C186  1  0.94867000  0.59637000  0.80650000  1.0 -0.0132593995
C  C187  1  0.89217000  0.19867000  0.85230000  1.0 -0.0132593995
C  C188  1  0.34637000  0.03987000  0.14770000  1.0 -0.0157563902
C  C189  1  0.80133000  0.10783000  0.14770000  1.0 -0.0157563902
C  C190  1  0.96013000  0.65363000  0.85230000  1.0 -0.0132593995
C  C191  1  0.40363000  0.05133000  0.19350000  1.0 -0.0157563902
C  C192  1  0.85783000  0.21013000  0.80650000  1.0 -0.0157563902
C  C193  1  0.90421000  0.08201000  0.25600000  1.0 0.0101936918
C  C194  1  0.82601000  0.64821000  0.74400000  1.0 0.0101936918
C  C195  1  0.83201000  0.07601000  0.67780000  1.0 0.0101936918
C  C196  1  0.39821000  0.15421000  0.32220000  1.0 0.0101936918
C  C197  1  0.92399000  0.16799000  0.32220000  1.0 0.0101936918
C  C198  1  0.84579000  0.60179000  0.67780000  1.0 0.0101936918
C  C199  1  0.35179000  0.17399000  0.25600000  1.0 0.0101936918
C  C200  1  0.91799000  0.09579000  0.74400000  1.0 0.0101936918
C  C201  1  0.84579000  0.16799000  0.24400000  1.0 0.0101936918
C  C202  1  0.92399000  0.60179000  0.75600000  1.0 0.0101936918
C  C203  1  0.91799000  0.17399000  0.82220000  1.0 0.0101936918
C  C204  1  0.35179000  0.09579000  0.17780000  1.0 0.0101936918
C  C205  1  0.82601000  0.08201000  0.17780000  1.0 0.0101936918
C  C206  1  0.90421000  0.64821000  0.82220000  1.0 0.0101936918
C  C207  1  0.39821000  0.07601000  0.24400000  1.0 0.0101936918
C  C208  1  0.83201000  0.15421000  0.75600000  1.0 0.0101936918
C  C209  1  0.17030000  0.17310000  0.56560000  1.0 0.0101936918
C  C210  1  0.60750000  0.60470000  0.43440000  1.0 0.0101936918
C  C211  1  0.92310000  0.85750000  0.50280000  1.0 0.0101936918
C  C212  1  0.35470000  0.42030000  0.49720000  1.0 0.0101936918
C  C213  1  0.14250000  0.07690000  0.49720000  1.0 0.0101936918
C  C214  1  0.57970000  0.64530000  0.50280000  1.0 0.0101936918
C  C215  1  0.39530000  0.39250000  0.56560000  1.0 0.0101936918
C  C216  1  0.82690000  0.82970000  0.43440000  1.0 0.0101936918
C  C217  1  0.57970000  0.07690000  0.93440000  1.0 0.0101936918
C  C218  1  0.14250000  0.64530000  0.06560000  1.0 0.0101936918
C  C219  1  0.82690000  0.39250000  0.99720000  1.0 0.0101936918
C  C220  1  0.39530000  0.82970000  0.00280000  1.0 0.0101936918
C  C221  1  0.60750000  0.17310000  0.00280000  1.0 0.0101936918
C  C222  1  0.17030000  0.60470000  0.99720000  1.0 0.0101936918
C  C223  1  0.35470000  0.85750000  0.93440000  1.0 0.0101936918
C  C224  1  0.92310000  0.42030000  0.06560000  1.0 0.0101936918
C  C225  1  0.14690000  0.04700000  0.45550000  1.0 0.0304660743
C  C226  1  0.59150000  0.69140000  0.54450000  1.0 0.0304660743
C  C227  1  0.79700000  0.84150000  0.40010000  1.0 0.0304660743
C  C228  1  0.44140000  0.39690000  0.59990000  1.0 0.0304660743
C  C229  1  0.15850000  0.20300000  0.59990000  1.0 0.0304660743
C  C230  1  0.60310000  0.55860000  0.40010000  1.0 0.0304660743
C  C231  1  0.30860000  0.40850000  0.45550000  1.0 0.0304660743
C  C232  1  0.95300000  0.85310000  0.54450000  1.0 0.0304660743
C  C233  1  0.60310000  0.20300000  0.04450000  1.0 0.0304660743
C  C234  1  0.15850000  0.55860000  0.95550000  1.0 0.0304660743
C  C235  1  0.95300000  0.40850000  0.09990000  1.0 0.0304660743
C  C236  1  0.30860000  0.85310000  0.90010000  1.0 0.0304660743
C  C237  1  0.59150000  0.04700000  0.90010000  1.0 0.0304660743
C  C238  1  0.14690000  0.69140000  0.09990000  1.0 0.0304660743
C  C239  1  0.44140000  0.84150000  0.04450000  1.0 0.0304660743
C  C240  1  0.79700000  0.39690000  0.95550000  1.0 0.0304660743
C  C241  1  0.30470000  0.17130000  0.97720000  1.0 -0.0630347323
C  C242  1  0.19410000  0.32750000  0.02280000  1.0 -0.0630347323
C  C243  1  0.92130000  0.44410000  0.36660000  1.0 -0.0630347323
C  C244  1  0.07750000  0.55470000  0.63340000  1.0 -0.0630347323
C  C245  1  0.55590000  0.07870000  0.63340000  1.0 -0.0630347323
C  C246  1  0.44530000  0.92250000  0.36660000  1.0 -0.0651057742
C  C247  1  0.67250000  0.80590000  0.97720000  1.0 -0.0630347323
C  C248  1  0.82870000  0.69530000  0.02280000  1.0 -0.0651057742
C  C249  1  0.44530000  0.07870000  0.52280000  1.0 -0.0630347323
C  C250  1  0.55590000  0.92250000  0.47720000  1.0 -0.0651057742
C  C251  1  0.82870000  0.80590000  0.13340000  1.0 -0.0651057742
C  C252  1  0.67250000  0.69530000  0.86660000  1.0 -0.0630347323
C  C253  1  0.19410000  0.17130000  0.86660000  1.0 -0.0630347323
C  C254  1  0.30470000  0.32750000  0.13340000  1.0 -0.0630347323
C  C255  1  0.07750000  0.44410000  0.52280000  1.0 -0.0630347323
C  C256  1  0.92130000  0.55470000  0.47720000  1.0 -0.0630347323
C  C257  1  0.09270000  0.17200000  0.48650000  1.0 -0.082859592
C  C258  1  0.68550000  0.60620000  0.51350000  1.0 -0.082859592
C  C259  1  0.92200000  0.93550000  0.57930000  1.0 -0.082859592
C  C260  1  0.35620000  0.34270000  0.42070000  1.0 -0.082859592
C  C261  1  0.06450000  0.07800000  0.42070000  1.0 -0.082859592
C  C262  1  0.65730000  0.64380000  0.57930000  1.0 -0.082859592
C  C263  1  0.39380000  0.31450000  0.48650000  1.0 -0.082859592
C  C264  1  0.82800000  0.90730000  0.51350000  1.0 -0.082859592
C  C265  1  0.65730000  0.07800000  0.01350000  1.0 -0.082859592
C  C266  1  0.06450000  0.64380000  0.98650000  1.0 -0.082859592
C  C267  1  0.82800000  0.31450000  0.92070000  1.0 -0.082859592
C  C268  1  0.39380000  0.90730000  0.07930000  1.0 -0.082859592
C  C269  1  0.68550000  0.17200000  0.07930000  1.0 -0.082859592
C  C270  1  0.09270000  0.60620000  0.92070000  1.0 -0.082859592
C  C271  1  0.35620000  0.93550000  0.01350000  1.0 -0.082859592
C  C272  1  0.92200000  0.34270000  0.98650000  1.0 -0.082859592
C  C273  1  0.24094000  0.89134000  0.69880000  1.0 0.3021458821
C  C274  1  0.19254000  0.54214000  0.30120000  1.0 0.3021458821
C  C275  1  0.64134000  0.44254000  0.15040000  1.0 0.3021458821
C  C276  1  0.29214000  0.49094000  0.84960000  1.0 0.3021458821
C  C277  1  0.55746000  0.35866000  0.84960000  1.0 0.3021458821
C  C278  1  0.50906000  0.70786000  0.15040000  1.0 0.3021458821
C  C279  1  0.45786000  0.80746000  0.69880000  1.0 0.3021458821
C  C280  1  0.10866000  0.75906000  0.30120000  1.0 0.3021458821
C  C281  1  0.50906000  0.35866000  0.80120000  1.0 0.3021458821
C  C282  1  0.55746000  0.70786000  0.19880000  1.0 0.3021458821
C  C283  1  0.10866000  0.80746000  0.34960000  1.0 0.3021458821
C  C284  1  0.45786000  0.75906000  0.65040000  1.0 0.3021458821
C  C285  1  0.19254000  0.89134000  0.65040000  1.0 0.3021458821
C  C286  1  0.24094000  0.54214000  0.34960000  1.0 0.3021458821
C  C287  1  0.29214000  0.44254000  0.80120000  1.0 0.3021458821
C  C288  1  0.64134000  0.49094000  0.19880000  1.0 0.3021458821
C  C289  1  0.17860000  0.98620000  0.45220000  1.0 0.3021458821
C  C290  1  0.53400000  0.72640000  0.54780000  1.0 0.3021458821
C  C291  1  0.73620000  0.78400000  0.30760000  1.0 0.3021458821
C  C292  1  0.47640000  0.42860000  0.69240000  1.0 0.3021458821
C  C293  1  0.21600000  0.26380000  0.69240000  1.0 0.3021458821
C  C294  1  0.57140000  0.52360000  0.30760000  1.0 0.3021458821
C  C295  1  0.27360000  0.46600000  0.45220000  1.0 0.3021458821
C  C296  1  0.01380000  0.82140000  0.54780000  1.0 0.3021458821
C  C297  1  0.57140000  0.26380000  0.04780000  1.0 0.3021458821
C  C298  1  0.21600000  0.52360000  0.95220000  1.0 0.3021458821
C  C299  1  0.01380000  0.46600000  0.19240000  1.0 0.3021458821
C  C300  1  0.27360000  0.82140000  0.80760000  1.0 0.3021458821
C  C301  1  0.53400000  0.98620000  0.80760000  1.0 0.3021458821
C  C302  1  0.17860000  0.72640000  0.19240000  1.0 0.3021458821
C  C303  1  0.47640000  0.78400000  0.04780000  1.0 0.3021458821
C  C304  1  0.73620000  0.42860000  0.95220000  1.0 0.3021458821
C  C305  1  0.93580000  0.12080000  0.26320000  1.0 -0.04375524
C  C306  1  0.85760000  0.67260000  0.73680000  1.0 -0.04375524
C  C307  1  0.87080000  0.10760000  0.68500000  1.0 -0.04375524
C  C308  1  0.42260000  0.18580000  0.31500000  1.0 -0.04375524
C  C309  1  0.89240000  0.12920000  0.31500000  1.0 -0.04375524
C  C310  1  0.81420000  0.57740000  0.68500000  1.0 -0.04375524
C  C311  1  0.32740000  0.14240000  0.26320000  1.0 -0.04375524
C  C312  1  0.87920000  0.06420000  0.73680000  1.0 -0.04375524
C  C313  1  0.81420000  0.12920000  0.23680000  1.0 -0.04375524
C  C314  1  0.89240000  0.57740000  0.76320000  1.0 -0.04375524
C  C315  1  0.87920000  0.14240000  0.81500000  1.0 -0.04375524
C  C316  1  0.32740000  0.06420000  0.18500000  1.0 -0.04375524
C  C317  1  0.85760000  0.12080000  0.18500000  1.0 -0.04375524
C  C318  1  0.93580000  0.67260000  0.81500000  1.0 -0.04375524
C  C319  1  0.42260000  0.10760000  0.23680000  1.0 -0.04375524
C  C320  1  0.87080000  0.18580000  0.76320000  1.0 -0.04375524
C  C321  1  0.35670000  0.21790000  0.05520000  1.0 0.1330264874
C  C322  1  0.16270000  0.30150000  0.94480000  1.0 0.1330264874
C  C323  1  0.96790000  0.41270000  0.36120000  1.0 0.1330264874
C  C324  1  0.05150000  0.60670000  0.63880000  1.0 0.1330264874
C  C325  1  0.58730000  0.03210000  0.63880000  1.0 0.1330264874
C  C326  1  0.39330000  0.94850000  0.36120000  1.0 0.1330264874
C  C327  1  0.69850000  0.83730000  0.05520000  1.0 0.1330264874
C  C328  1  0.78210000  0.64330000  0.94480000  1.0 0.1330264874
C  C329  1  0.39330000  0.03210000  0.44480000  1.0 0.1330264874
C  C330  1  0.58730000  0.94850000  0.55520000  1.0 0.1330264874
C  C331  1  0.78210000  0.83730000  0.13880000  1.0 0.1330264874
C  C332  1  0.69850000  0.64330000  0.86120000  1.0 0.1330264874
C  C333  1  0.16270000  0.21790000  0.86120000  1.0 0.1330264874
C  C334  1  0.35670000  0.30150000  0.13880000  1.0 0.1330264874
C  C335  1  0.05150000  0.41270000  0.44480000  1.0 0.1330264874
C  C336  1  0.96790000  0.60670000  0.55520000  1.0 0.1330264874
O  O1  1  0.24225000  0.89225000  0.49980000  1.0 -0.7890558772
O  O2  1  0.39245000  0.74245000  0.50020000  1.0 -0.7890558772
O  O3  1  0.64225000  0.64245000  0.15000000  1.0 -0.7890558772
O  O4  1  0.49245000  0.49225000  0.85000000  1.0 -0.7834480695
O  O5  1  0.35755000  0.35775000  0.85000000  1.0 -0.7834480695
O  O6  1  0.50775000  0.50755000  0.15000000  1.0 -0.7890558772
O  O7  1  0.25755000  0.60755000  0.49980000  1.0 -0.7834480695
O  O8  1  0.10775000  0.75775000  0.50020000  1.0 -0.7834480695
O  O9  1  0.50775000  0.35775000  0.00020000  1.0 -0.7890558772
O  O10  1  0.35755000  0.50755000  0.99980000  1.0 -0.7834480695
O  O11  1  0.10775000  0.60755000  0.35000000  1.0 -0.7834480695
O  O12  1  0.25755000  0.75775000  0.65000000  1.0 -0.7834480695
O  O13  1  0.39245000  0.89225000  0.65000000  1.0 -0.7834480695
O  O14  1  0.24225000  0.74245000  0.35000000  1.0 -0.7834480695
O  O15  1  0.49245000  0.64245000  0.00020000  1.0 -0.7890558772
O  O16  1  0.64225000  0.49225000  0.99980000  1.0 -0.7834480695
O  O17  1  0.26915000  0.84695000  0.42220000  1.0 -0.9977481298
O  O18  1  0.42475000  0.84695000  0.57780000  1.0 -0.9977481298
O  O19  1  0.59695000  0.67475000  0.07780000  1.0 -0.9977481298
O  O20  1  0.59695000  0.51915000  0.92220000  1.0 -0.9977481298
O  O21  1  0.32525000  0.40305000  0.92220000  1.0 -0.9977481298
O  O22  1  0.48085000  0.40305000  0.07780000  1.0 -0.9977481298
O  O23  1  0.15305000  0.57525000  0.42220000  1.0 -0.9977481298
O  O24  1  0.15305000  0.73085000  0.57780000  1.0 -0.9977481298
O  O25  1  0.21747000  0.82787000  0.61040000  1.0 -0.3941283755
O  O26  1  0.21747000  0.60707000  0.38960000  1.0 -0.3941283755
O  O27  1  0.57787000  0.46747000  0.11040000  1.0 -0.3941283755
O  O28  1  0.35707000  0.46747000  0.88960000  1.0 -0.3941283755
O  O29  1  0.53253000  0.42213000  0.88960000  1.0 -0.3941283755
O  O30  1  0.53253000  0.64293000  0.11040000  1.0 -0.3941283755
O  O31  1  0.39293000  0.78253000  0.61040000  1.0 -0.3941283755
O  O32  1  0.17213000  0.78253000  0.38960000  1.0 -0.3941283755
O  O33  1  0.28301000  0.89661000  0.61360000  1.0 -0.4483323366
O  O34  1  0.28301000  0.66941000  0.38640000  1.0 -0.4483323366
O  O35  1  0.64661000  0.53301000  0.11360000  1.0 -0.4483323366
O  O36  1  0.41941000  0.53301000  0.88640000  1.0 -0.4483323366
O  O37  1  0.46699000  0.35339000  0.88640000  1.0 -0.4483323366
O  O38  1  0.46699000  0.58059000  0.11360000  1.0 -0.4483323366
O  O39  1  0.33059000  0.71699000  0.61360000  1.0 -0.4483323366
O  O40  1  0.10339000  0.71699000  0.38640000  1.0 -0.4483323366
O  O41  1  0.29248000  0.22508000  0.71360000  1.0 -0.2024287738
O  O42  1  0.51148000  0.57888000  0.28640000  1.0 -0.2024287738
O  O43  1  0.97508000  0.76148000  0.43260000  1.0 -0.2024287738
O  O44  1  0.32888000  0.54248000  0.56740000  1.0 -0.2024287738
O  O45  1  0.23852000  0.02492000  0.56740000  1.0 -0.2024287738
O  O46  1  0.45752000  0.67112000  0.43260000  1.0 -0.2024287738
O  O47  1  0.42112000  0.48852000  0.71360000  1.0 -0.2024287738
O  O48  1  0.77492000  0.70752000  0.28640000  1.0 -0.2024287738
O  O49  1  0.45752000  0.02492000  0.78640000  1.0 -0.2024287738
O  O50  1  0.23852000  0.67112000  0.21360000  1.0 -0.2024287738
O  O51  1  0.77492000  0.48852000  0.06740000  1.0 -0.2024287738
O  O52  1  0.42112000  0.70752000  0.93260000  1.0 -0.2024287738
O  O53  1  0.51148000  0.22508000  0.93260000  1.0 -0.2024287738
O  O54  1  0.29248000  0.57888000  0.06740000  1.0 -0.2024287738
O  O55  1  0.32888000  0.76148000  0.78640000  1.0 -0.2024287738
O  O56  1  0.97508000  0.54248000  0.21360000  1.0 -0.2024287738
O  O57  1  0.24320000  0.99970000  0.53590000  1.0 -0.2388625483
O  O58  1  0.46380000  0.70730000  0.46410000  1.0 -0.2388625483
O  O59  1  0.74970000  0.71380000  0.25650000  1.0 -0.2388625483
O  O60  1  0.45730000  0.49320000  0.74350000  1.0 -0.2388625483
O  O61  1  0.28620000  0.25030000  0.74350000  1.0 -0.2388625483
O  O62  1  0.50680000  0.54270000  0.25650000  1.0 -0.2388625483
O  O63  1  0.29270000  0.53620000  0.53590000  1.0 -0.2388625483
O  O64  1  0.00030000  0.75680000  0.46410000  1.0 -0.2388625483
O  O65  1  0.50680000  0.25030000  0.96410000  1.0 -0.2388625483
O  O66  1  0.28620000  0.54270000  0.03590000  1.0 -0.2388625483
O  O67  1  0.00030000  0.53620000  0.24350000  1.0 -0.2388625483
O  O68  1  0.29270000  0.75680000  0.75650000  1.0 -0.2388625483
O  O69  1  0.46380000  0.99970000  0.75650000  1.0 -0.2388625483
O  O70  1  0.24320000  0.70730000  0.24350000  1.0 -0.2388625483
O  O71  1  0.45730000  0.71380000  0.96410000  1.0 -0.2388625483
O  O72  1  0.74970000  0.49320000  0.03590000  1.0 -0.2388625483
O  O73  1  0.24215000  0.91295000  0.75120000  1.0 -0.3311740895
O  O74  1  0.16175000  0.49095000  0.24880000  1.0 -0.3311740895
O  O75  1  0.66295000  0.41175000  0.17080000  1.0 -0.3311740895
O  O76  1  0.24095000  0.49215000  0.82920000  1.0 -0.3311740895
O  O77  1  0.58825000  0.33705000  0.82920000  1.0 -0.3311740895
O  O78  1  0.50785000  0.75905000  0.17080000  1.0 -0.3311740895
O  O79  1  0.50905000  0.83825000  0.75120000  1.0 -0.3311740895
O  O80  1  0.08705000  0.75785000  0.24880000  1.0 -0.3311740895
O  O81  1  0.50785000  0.33705000  0.74880000  1.0 -0.3311740895
O  O82  1  0.58825000  0.75905000  0.25120000  1.0 -0.3311740895
O  O83  1  0.08705000  0.83825000  0.32920000  1.0 -0.3311740895
O  O84  1  0.50905000  0.75785000  0.67080000  1.0 -0.3311740895
O  O85  1  0.16175000  0.91295000  0.67080000  1.0 -0.3311740895
O  O86  1  0.24215000  0.49095000  0.32920000  1.0 -0.3311740895
O  O87  1  0.24095000  0.41175000  0.74880000  1.0 -0.3311740895
O  O88  1  0.66295000  0.49215000  0.25120000  1.0 -0.3311740895
O  O89  1  0.19905000  0.29485000  0.67600000  1.0 -0.2388625483
O  O90  1  0.61885000  0.52305000  0.32400000  1.0 -0.2388625483
O  O91  1  0.04485000  0.86885000  0.59580000  1.0 -0.2388625483
O  O92  1  0.27305000  0.44905000  0.40420000  1.0 -0.2388625483
O  O93  1  0.13115000  0.95515000  0.40420000  1.0 -0.2388625483
O  O94  1  0.55095000  0.72695000  0.59580000  1.0 -0.2388625483
O  O95  1  0.47695000  0.38115000  0.67600000  1.0 -0.2388625483
O  O96  1  0.70515000  0.80095000  0.32400000  1.0 -0.2388625483
O  O97  1  0.55095000  0.95515000  0.82400000  1.0 -0.2388625483
O  O98  1  0.13115000  0.72695000  0.17600000  1.0 -0.2388625483
O  O99  1  0.70515000  0.38115000  0.90420000  1.0 -0.2388625483
O  O100  1  0.47695000  0.80095000  0.09580000  1.0 -0.2388625483
O  O101  1  0.61885000  0.29485000  0.09580000  1.0 -0.2388625483
O  O102  1  0.19905000  0.52305000  0.90420000  1.0 -0.2388625483
O  O103  1  0.27305000  0.86885000  0.82400000  1.0 -0.2388625483
O  O104  1  0.04485000  0.44905000  0.17600000  1.0 -0.2388625483
O  O105  1  0.36887000  0.00307000  0.78000000  1.0 -0.3311740895
O  O106  1  0.22307000  0.58887000  0.22000000  1.0 -0.3311740895
O  O107  1  0.75307000  0.47307000  0.13420000  1.0 -0.3311740895
O  O108  1  0.33887000  0.61887000  0.86580000  1.0 -0.3311740895
O  O109  1  0.52693000  0.24693000  0.86580000  1.0 -0.3311740895
O  O110  1  0.38113000  0.66113000  0.13420000  1.0 -0.3311740895
O  O111  1  0.41113000  0.77693000  0.78000000  1.0 -0.3352193467
O  O112  1  0.99693000  0.63113000  0.22000000  1.0 -0.3352193467
O  O113  1  0.38113000  0.24693000  0.72000000  1.0 -0.3311740895
O  O114  1  0.52693000  0.66113000  0.28000000  1.0 -0.3311740895
O  O115  1  0.99693000  0.77693000  0.36580000  1.0 -0.3311740895
O  O116  1  0.41113000  0.63113000  0.63420000  1.0 -0.3352193467
O  O117  1  0.22307000  0.00307000  0.63420000  1.0 -0.3311740895
O  O118  1  0.36887000  0.58887000  0.36580000  1.0 -0.3311740895
O  O119  1  0.33887000  0.47307000  0.72000000  1.0 -0.3311740895
O  O120  1  0.75307000  0.61887000  0.28000000  1.0 -0.3311740895
O  O121  1  0.13719000  0.92619000  0.36460000  1.0 -0.2511515634
O  O122  1  0.56159000  0.77259000  0.63540000  1.0 -0.2511515634
O  O123  1  0.67619000  0.81159000  0.28900000  1.0 -0.2511515634
O  O124  1  0.52259000  0.38719000  0.71100000  1.0 -0.2511515634
O  O125  1  0.18841000  0.32381000  0.71100000  1.0 -0.2511515634
O  O126  1  0.61281000  0.47741000  0.28900000  1.0 -0.2511515634
O  O127  1  0.22741000  0.43841000  0.36460000  1.0 -0.2511515634
O  O128  1  0.07381000  0.86281000  0.63540000  1.0 -0.2511515634
O  O129  1  0.61281000  0.32381000  0.13540000  1.0 -0.2511515634
O  O130  1  0.18841000  0.47741000  0.86460000  1.0 -0.2511515634
O  O131  1  0.07381000  0.43841000  0.21100000  1.0 -0.2511515634
O  O132  1  0.22741000  0.86281000  0.78900000  1.0 -0.2511515634
O  O133  1  0.56159000  0.92619000  0.78900000  1.0 -0.2511515634
O  O134  1  0.13719000  0.77259000  0.21100000  1.0 -0.2511515634
O  O135  1  0.52259000  0.81159000  0.13540000  1.0 -0.2511515634
O  O136  1  0.67619000  0.38719000  0.86460000  1.0 -0.2511515634
O  O137  1  0.37395000  0.97895000  0.60500000  1.0 -0.5198319686
O  O138  1  0.37395000  0.76895000  0.39500000  1.0 -0.5127119355
O  O139  1  0.72895000  0.62395000  0.10500000  1.0 -0.5127119355
O  O140  1  0.51895000  0.62395000  0.89500000  1.0 -0.5127119355
O  O141  1  0.37605000  0.27105000  0.89500000  1.0 -0.5127119355
O  O142  1  0.37605000  0.48105000  0.10500000  1.0 -0.5127119355
O  O143  1  0.23105000  0.62605000  0.60500000  1.0 -0.5198319686
O  O144  1  0.02105000  0.62605000  0.39500000  1.0 -0.5198319686
O  O145  1  0.32678000  0.04498000  0.71820000  1.0 -0.5636610223
O  O146  1  0.32678000  0.60858000  0.28180000  1.0 -0.5636610223
O  O147  1  0.79498000  0.57678000  0.21820000  1.0 -0.5636610223
O  O148  1  0.35858000  0.57678000  0.78180000  1.0 -0.5636610223
O  O149  1  0.42322000  0.20502000  0.78180000  1.0 -0.5636610223
O  O150  1  0.42322000  0.64142000  0.21820000  1.0 -0.569614195
O  O151  1  0.39142000  0.67322000  0.71820000  1.0 -0.569614195
O  O152  1  0.95502000  0.67322000  0.28180000  1.0 -0.5636610223
F  F1  1  0.42560000  0.19590000  0.08230000  1.0 -0.1269507005
F  F2  1  0.11360000  0.34330000  0.91770000  1.0 -0.1269507005
F  F3  1  0.94590000  0.36360000  0.27030000  1.0 -0.1269507005
F  F4  1  0.09330000  0.67560000  0.72970000  1.0 -0.1269507005
F  F5  1  0.63640000  0.05410000  0.72970000  1.0 -0.1269507005
F  F6  1  0.32440000  0.90670000  0.27030000  1.0 -0.1269507005
F  F7  1  0.65670000  0.88640000  0.08230000  1.0 -0.1269507005
F  F8  1  0.80410000  0.57440000  0.91770000  1.0 -0.1269507005
F  F9  1  0.32440000  0.05410000  0.41770000  1.0 -0.1269507005
F  F10  1  0.63640000  0.90670000  0.58230000  1.0 -0.1269507005
F  F11  1  0.80410000  0.88640000  0.22970000  1.0 -0.1269507005
F  F12  1  0.65670000  0.57440000  0.77030000  1.0 -0.1269507005
F  F13  1  0.11360000  0.19590000  0.77030000  1.0 -0.1269507005
F  F14  1  0.42560000  0.34330000  0.22970000  1.0 -0.1269507005
F  F15  1  0.09330000  0.36360000  0.41770000  1.0 -0.1269507005
F  F16  1  0.94590000  0.67560000  0.58230000  1.0 -0.1269507005
F  F17  1  0.92170000  0.06800000  0.29450000  1.0 -0.082859592
F  F18  1  0.77350000  0.62720000  0.70550000  1.0 -0.082859592
F  F19  1  0.81800000  0.02350000  0.64630000  1.0 -0.082859592
F  F20  1  0.37720000  0.17170000  0.35370000  1.0 -0.082859592
F  F21  1  0.97650000  0.18200000  0.35370000  1.0 -0.082859592
F  F22  1  0.82830000  0.62280000  0.64630000  1.0 -0.082859592
F  F23  1  0.37280000  0.22650000  0.29450000  1.0 -0.082859592
F  F24  1  0.93200000  0.07830000  0.70550000  1.0 -0.082859592
F  F25  1  0.82830000  0.18200000  0.20550000  1.0 -0.082859592
F  F26  1  0.97650000  0.62280000  0.79450000  1.0 -0.082859592
F  F27  1  0.93200000  0.22650000  0.85370000  1.0 -0.082859592
F  F28  1  0.37280000  0.07830000  0.14630000  1.0 -0.082859592
F  F29  1  0.77350000  0.06800000  0.14630000  1.0 -0.082859592
F  F30  1  0.92170000  0.62720000  0.85370000  1.0 -0.082859592
F  F31  1  0.37720000  0.02350000  0.20550000  1.0 -0.082859592
F  F32  1  0.81800000  0.17170000  0.79450000  1.0 -0.082859592
