# DDEC6 charges by PACMAN v1.1 (https://github.com/mtap-research/PACMAN-charge/)
data_RIRCON_FSR_pacman
_symmetry_space_group_name_H-M   'P 1'
_cell_length_a   9.94219000
_cell_length_b   9.94219000
_cell_length_c   19.13860000
_cell_angle_alpha   63.06900000
_cell_angle_beta   116.93100000
_cell_angle_gamma   139.34800000
_symmetry_Int_Tables_number   1
_chemical_formula_structural   SrZnH18C14(NO7)2
_chemical_formula_sum   'Sr2 Zn2 H36 C28 N4 O28'
_cell_volume   1079.15043129
_cell_formula_units_Z   2
loop_
 _symmetry_equiv_pos_site_id
 _symmetry_equiv_pos_as_xyz
  1  'x, y, z'
loop_
 _atom_site_type_symbol
 _atom_site_label
 _atom_site_symmetry_multiplicity
 _atom_site_fract_x
 _atom_site_fract_y
 _atom_site_fract_z
 _atom_site_occupancy
 _atom_site_charge
Sr  Sr1  1  0.51407000  0.51407000  0.75000000  1.0 1.430903981
Sr  Sr2  1  0.48593000  0.48593000  0.25000000  1.0 1.430903981
Zn  Zn1  1  0.00000000  0.00000000  0.50000000  1.0 0.8089018562
Zn  Zn2  1  0.00000000  0.00000000  0.00000000  1.0 0.8089018562
H  H1  1  0.08890000  0.20670000  0.80560000  1.0 0.3487202474
H  H2  1  0.02260000  0.19860000  0.72540000  1.0 0.3487202474
H  H3  1  0.54630000  0.84930000  0.74250000  1.0 0.3255060264
H  H4  1  0.61180000  0.79200000  0.82010000  1.0 0.3487202474
H  H5  1  0.28990000  0.86750000  0.42140000  1.0 0.1390790143
H  H6  1  0.18170000  0.56090000  0.64490000  1.0 0.1297635683
H  H7  1  0.41440000  0.29400000  0.54800000  1.0 0.355648505
H  H8  1  0.35220000  0.34500000  0.57330000  1.0 0.3487202474
H  H9  1  0.05730000  0.69450000  0.63360000  1.0 0.1167409145
H  H10  1  0.20670000  0.08890000  0.69440000  1.0 0.3487202474
H  H11  1  0.19860000  0.02260000  0.77460000  1.0 0.3487202474
H  H12  1  0.84930000  0.54630000  0.75750000  1.0 0.3255060264
H  H13  1  0.79200000  0.61180000  0.67990000  1.0 0.3487202474
H  H14  1  0.86750000  0.28990000  0.07860000  1.0 0.1390790143
H  H15  1  0.56090000  0.18170000  0.85510000  1.0 0.1297635683
H  H16  1  0.29400000  0.41440000  0.95200000  1.0 0.355648505
H  H17  1  0.34500000  0.35220000  0.92670000  1.0 0.3487202474
H  H18  1  0.69450000  0.05730000  0.86640000  1.0 0.1167409145
H  H19  1  0.91110000  0.79330000  0.19440000  1.0 0.3487202474
H  H20  1  0.97740000  0.80140000  0.27460000  1.0 0.3487202474
H  H21  1  0.45370000  0.15070000  0.25750000  1.0 0.3255060264
H  H22  1  0.38820000  0.20800000  0.17990000  1.0 0.3487202474
H  H23  1  0.71010000  0.13250000  0.57860000  1.0 0.1390790143
H  H24  1  0.81830000  0.43910000  0.35510000  1.0 0.1297635683
H  H25  1  0.58560000  0.70600000  0.45200000  1.0 0.355648505
H  H26  1  0.64780000  0.65500000  0.42670000  1.0 0.3487202474
H  H27  1  0.94270000  0.30550000  0.36640000  1.0 0.1167409145
H  H28  1  0.79330000  0.91110000  0.30560000  1.0 0.3487202474
H  H29  1  0.80140000  0.97740000  0.22540000  1.0 0.3487202474
H  H30  1  0.15070000  0.45370000  0.24250000  1.0 0.3255060264
H  H31  1  0.20800000  0.38820000  0.32010000  1.0 0.3487202474
H  H32  1  0.13250000  0.71010000  0.92140000  1.0 0.1390790143
H  H33  1  0.43910000  0.81830000  0.14490000  1.0 0.1297635683
H  H34  1  0.70600000  0.58560000  0.04800000  1.0 0.355648505
H  H35  1  0.65500000  0.64780000  0.07330000  1.0 0.3487202474
H  H36  1  0.30550000  0.94270000  0.13360000  1.0 0.1167409145
C  C1  1  0.16884000  0.90576000  0.46320000  1.0 0.1092729666
C  C2  1  0.24406000  0.83074000  0.46535000  1.0 -0.1447605542
C  C3  1  0.25027000  0.69933000  0.53418000  1.0 0.0260269758
C  C4  1  0.17941000  0.64819000  0.59794000  1.0 -0.1611704245
C  C5  1  0.10483000  0.72917000  0.59068000  1.0 0.1092729666
C  C6  1  0.16985000  0.05815000  0.39160000  1.0 0.5538769909
C  C7  1  0.33353000  0.61547000  0.53829000  1.0 0.5571799972
C  C8  1  0.90576000  0.16884000  0.03680000  1.0 0.1092729666
C  C9  1  0.83074000  0.24406000  0.03465000  1.0 -0.1447605542
C  C10  1  0.69933000  0.25027000  0.96582000  1.0 0.0260269758
C  C11  1  0.64819000  0.17941000  0.90206000  1.0 -0.1611704245
C  C12  1  0.72917000  0.10483000  0.90932000  1.0 0.1092729666
C  C13  1  0.05815000  0.16985000  0.10840000  1.0 0.5538769909
C  C14  1  0.61547000  0.33353000  0.96171000  1.0 0.5571799972
C  C15  1  0.83116000  0.09424000  0.53680000  1.0 0.1092729666
C  C16  1  0.75594000  0.16926000  0.53465000  1.0 -0.1447605542
C  C17  1  0.74973000  0.30067000  0.46582000  1.0 0.0260269758
C  C18  1  0.82059000  0.35181000  0.40206000  1.0 -0.1611704245
C  C19  1  0.89517000  0.27083000  0.40932000  1.0 0.1092729666
C  C20  1  0.83015000  0.94185000  0.60840000  1.0 0.5538769909
C  C21  1  0.66647000  0.38453000  0.46171000  1.0 0.5571799972
C  C22  1  0.09424000  0.83116000  0.96320000  1.0 0.1092729666
C  C23  1  0.16926000  0.75594000  0.96535000  1.0 -0.1447605542
C  C24  1  0.30067000  0.74973000  0.03418000  1.0 0.0260269758
C  C25  1  0.35181000  0.82059000  0.09794000  1.0 -0.1611704245
C  C26  1  0.27083000  0.89517000  0.09068000  1.0 0.1092729666
C  C27  1  0.94185000  0.83015000  0.89160000  1.0 0.5538769909
C  C28  1  0.38453000  0.66647000  0.03829000  1.0 0.5571799972
N  N1  1  0.09865000  0.85455000  0.52471000  1.0 -0.226752074
N  N2  1  0.85455000  0.09865000  0.97529000  1.0 -0.226752074
N  N3  1  0.90135000  0.14545000  0.47529000  1.0 -0.226752074
N  N4  1  0.14545000  0.90135000  0.02471000  1.0 -0.226752074
O  O1  1  0.12127000  0.27713000  0.75974000  1.0 -0.7203311525
O  O2  1  0.51161000  0.74459000  0.78016000  1.0 -0.7203311525
O  O3  1  0.10663000  0.12637000  0.39623000  1.0 -0.5486223898
O  O4  1  0.23553000  0.11007000  0.33426000  1.0 -0.58733434
O  O5  1  0.33920000  0.50080000  0.60232000  1.0 -0.6242928408
O  O6  1  0.38932000  0.66568000  0.47745000  1.0 -0.5355698667
O  O7  1  0.31056000  0.24424000  0.56121000  1.0 -0.6679870389
O  O8  1  0.27713000  0.12127000  0.74026000  1.0 -0.7203311525
O  O9  1  0.74459000  0.51161000  0.71984000  1.0 -0.7203311525
O  O10  1  0.12637000  0.10663000  0.10377000  1.0 -0.5486223898
O  O11  1  0.11007000  0.23553000  0.16574000  1.0 -0.58733434
O  O12  1  0.50080000  0.33920000  0.89768000  1.0 -0.6242928408
O  O13  1  0.66568000  0.38932000  0.02255000  1.0 -0.5355698667
O  O14  1  0.24424000  0.31056000  0.93879000  1.0 -0.6679870389
O  O15  1  0.87873000  0.72287000  0.24026000  1.0 -0.7203311525
O  O16  1  0.48839000  0.25541000  0.21984000  1.0 -0.7203311525
O  O17  1  0.89337000  0.87363000  0.60377000  1.0 -0.5486223898
O  O18  1  0.76447000  0.88993000  0.66574000  1.0 -0.58733434
O  O19  1  0.66080000  0.49920000  0.39768000  1.0 -0.6242928408
O  O20  1  0.61068000  0.33432000  0.52255000  1.0 -0.5355698667
O  O21  1  0.68944000  0.75576000  0.43879000  1.0 -0.6679870389
O  O22  1  0.72287000  0.87873000  0.25974000  1.0 -0.7203311525
O  O23  1  0.25541000  0.48839000  0.28016000  1.0 -0.7203311525
O  O24  1  0.87363000  0.89337000  0.89623000  1.0 -0.5486223898
O  O25  1  0.88993000  0.76447000  0.83426000  1.0 -0.58733434
O  O26  1  0.49920000  0.66080000  0.10232000  1.0 -0.6242928408
O  O27  1  0.33432000  0.61068000  0.97745000  1.0 -0.5355698667
O  O28  1  0.75576000  0.68944000  0.06121000  1.0 -0.6679870389
