# DDEC6 charges by PACMAN v1.1 (https://github.com/mtap-research/PACMAN-charge/)
data_RIRHIM_ASR_pacman
_symmetry_space_group_name_H-M   'P 1'
_cell_length_a   9.47640000
_cell_length_b   12.13350000
_cell_length_c   14.09560000
_cell_angle_alpha   63.55200000
_cell_angle_beta   71.71460000
_cell_angle_gamma   74.02000000
_symmetry_Int_Tables_number   1
_chemical_formula_structural   TbH9C26S2(N2O9)2
_chemical_formula_sum   'Tb2 H18 C52 S4 N8 O36'
_cell_volume   1360.20711652
_cell_formula_units_Z   2
loop_
 _symmetry_equiv_pos_site_id
 _symmetry_equiv_pos_as_xyz
  1  'x, y, z'
loop_
 _atom_site_type_symbol
 _atom_site_label
 _atom_site_symmetry_multiplicity
 _atom_site_fract_x
 _atom_site_fract_y
 _atom_site_fract_z
 _atom_site_occupancy
 _atom_site_charge
Tb  Tb1  1  0.22100000  0.01838000  0.52190000  1.0 2.0690430606
Tb  Tb2  1  0.77900000  0.98162000  0.47810000  1.0 2.0690430606
H  H1  1  0.62810000  0.14750000  0.65370000  1.0 0.1225088405
H  H2  1  0.87090000  0.93080000  0.87970000  1.0 0.1149593051
H  H3  1  0.69940000  0.76230000  0.76640000  1.0 0.1425261403
H  H4  1  0.25730000  0.86060000  0.87220000  1.0 0.1425261403
H  H5  1  0.84670000  0.36920000  0.16890000  1.0 0.1709758396
H  H6  1  0.44350000  0.38380000  0.37390000  1.0 0.1616864706
H  H7  1  0.95290000  0.92190000  0.85550000  1.0 0.1225088405
H  H8  1  0.58830000  0.10450000  0.72790000  1.0 0.1319634764
H  H9  1  0.45390000  0.07010000  0.89740000  1.0 0.1319634764
H  H10  1  0.37190000  0.85250000  0.34630000  1.0 0.1225088405
H  H11  1  0.12910000  0.06920000  0.12030000  1.0 0.1149593051
H  H12  1  0.30060000  0.23770000  0.23360000  1.0 0.1425261403
H  H13  1  0.74270000  0.13940000  0.12780000  1.0 0.1425261403
H  H14  1  0.15330000  0.63080000  0.83110000  1.0 0.1709758396
H  H15  1  0.55650000  0.61620000  0.62610000  1.0 0.1616864706
H  H16  1  0.04710000  0.07810000  0.14450000  1.0 0.1225088405
H  H17  1  0.41170000  0.89550000  0.27210000  1.0 0.1319634764
H  H18  1  0.54610000  0.92990000  0.10260000  1.0 0.1319634764
C  C1  1  0.89920000  0.03880000  0.66260000  1.0 0.4778969492
C  C2  1  0.77980000  0.02730000  0.76340000  1.0 0.0090981699
C  C3  1  0.63160000  0.10670000  0.72680000  1.0 -0.0121478065
C  C4  1  0.50570000  0.11370000  0.80800000  1.0 -0.0703099812
C  C5  1  0.78060000  0.97420000  0.85910000  1.0 -0.0121478065
C  C6  1  0.64860000  0.97630000  0.94030000  1.0 -0.0189041284
C  C7  1  0.51140000  0.04510000  0.91490000  1.0 -0.0399273542
C  C8  1  0.45970000  0.90950000  0.68830000  1.0 0.6608449722
C  C9  1  0.47460000  0.82530000  0.80230000  1.0 0.0090981699
C  C10  1  0.61340000  0.75550000  0.82210000  1.0 -0.1284331699
C  C11  1  0.34980000  0.81480000  0.88700000  1.0 -0.2108678614
C  C12  1  0.61760000  0.67560000  0.92830000  1.0 -0.1533728262
C  C13  1  0.35860000  0.73780000  0.99350000  1.0 -0.0189041284
C  C14  1  0.49480000  0.66270000  0.01640000  1.0 -0.0524700468
C  C15  1  0.53440000  0.56270000  0.11830000  1.0 -0.0121478065
C  C16  1  0.68420000  0.50420000  0.10300000  1.0 -0.1167535727
C  C17  1  0.44540000  0.51550000  0.22280000  1.0 0.0362857151
C  C18  1  0.74600000  0.40440000  0.18310000  1.0 -0.0524700468
C  C19  1  0.50470000  0.41430000  0.30480000  1.0 -0.1044090931
C  C20  1  0.65380000  0.35740000  0.28590000  1.0 0.029946881
C  C21  1  0.71070000  0.24150000  0.37280000  1.0 0.5925352777
C  C22  1  0.84960000  0.94910000  0.86500000  1.0 0.0362857151
C  C23  1  0.76030000  0.91920000  0.96950000  1.0 -0.0305236436
C  C24  1  0.63770000  0.06120000  0.78490000  1.0 -0.0121478065
C  C25  1  0.55540000  0.03570000  0.88930000  1.0 -0.0524700468
C  C26  1  0.60690000  0.96480000  0.98360000  1.0 -0.0121478065
C  C27  1  0.10080000  0.96120000  0.33740000  1.0 0.4778969492
C  C28  1  0.22020000  0.97270000  0.23660000  1.0 0.0090981699
C  C29  1  0.36840000  0.89330000  0.27320000  1.0 -0.0189041284
C  C30  1  0.49430000  0.88630000  0.19200000  1.0 -0.0703099812
C  C31  1  0.21940000  0.02580000  0.14090000  1.0 -0.0121478065
C  C32  1  0.35140000  0.02370000  0.05970000  1.0 -0.0189041284
C  C33  1  0.48860000  0.95490000  0.08510000  1.0 -0.0399273542
C  C34  1  0.54030000  0.09050000  0.31170000  1.0 0.6608449722
C  C35  1  0.52540000  0.17470000  0.19770000  1.0 0.0090981699
C  C36  1  0.38660000  0.24450000  0.17790000  1.0 -0.1284331699
C  C37  1  0.65020000  0.18520000  0.11300000  1.0 -0.2108678614
C  C38  1  0.38240000  0.32440000  0.07170000  1.0 -0.1533728262
C  C39  1  0.64140000  0.26220000  0.00650000  1.0 -0.0189041284
C  C40  1  0.50520000  0.33730000  0.98360000  1.0 -0.0524700468
C  C41  1  0.46560000  0.43730000  0.88170000  1.0 -0.0121478065
C  C42  1  0.31580000  0.49580000  0.89700000  1.0 -0.1167535727
C  C43  1  0.55460000  0.48450000  0.77720000  1.0 0.029946881
C  C44  1  0.25400000  0.59560000  0.81690000  1.0 -0.0599738342
C  C45  1  0.49530000  0.58570000  0.69520000  1.0 -0.1051733811
C  C46  1  0.34620000  0.64260000  0.71410000  1.0 0.029946881
C  C47  1  0.28930000  0.75850000  0.62720000  1.0 0.5925352777
C  C48  1  0.15040000  0.05090000  0.13500000  1.0 0.0362857151
C  C49  1  0.23970000  0.08080000  0.03050000  1.0 -0.0305236436
C  C50  1  0.36230000  0.93880000  0.21510000  1.0 -0.0121478065
C  C51  1  0.44460000  0.96430000  0.11070000  1.0 -0.0524700468
C  C52  1  0.39310000  0.03520000  0.01640000  1.0 -0.0121478065
S  S1  1  0.64140000  0.89949000  0.07980000  1.0 0.2912583257
S  S2  1  0.78033000  0.57202000  0.96617000  1.0 0.8946483935
S  S3  1  0.35860000  0.10051000  0.92020000  1.0 0.2912583257
S  S4  1  0.21967000  0.42798000  0.03383000  1.0 0.8946483935
N  N1  1  0.37940000  0.20870000  0.77210000  1.0 0.2185200806
N  N2  1  0.22500000  0.75760000  0.07430000  1.0 0.1709758396
N  N3  1  0.29920000  0.57200000  0.25490000  1.0 0.3519298638
N  N4  1  0.82600000  0.83370000  0.06130000  1.0 0.0836836751
N  N5  1  0.62060000  0.79130000  0.22790000  1.0 0.2185200806
N  N6  1  0.77500000  0.24240000  0.92570000  1.0 0.1709758396
N  N7  1  0.70080000  0.42800000  0.74510000  1.0 0.3617716338
N  N8  1  0.17400000  0.16630000  0.93870000  1.0 0.0871717985
O  O1  1  0.87100000  0.03150000  0.58580000  1.0 -0.6474762057
O  O2  1  0.02400000  0.05450000  0.66150000  1.0 -0.5546385442
O  O3  1  0.57710000  0.93400000  0.61660000  1.0 -0.692519406
O  O4  1  0.33060000  0.94670000  0.67130000  1.0 -0.6071057414
O  O5  1  0.84560000  0.19160000  0.35400000  1.0 -0.6012860929
O  O6  1  0.61890000  0.19030000  0.46000000  1.0 -0.6012860929
O  O7  1  0.73710000  0.94450000  0.11140000  1.0 -0.2192164977
O  O8  1  0.65460000  0.76510000  0.11670000  1.0 -0.0703099812
O  O9  1  0.40000000  0.29300000  0.67200000  1.0 -0.4064993059
O  O10  1  0.27700000  0.15100000  0.78000000  1.0 -0.1284331699
O  O11  1  0.89330000  0.63670000  0.95460000  1.0 -0.5025872981
O  O12  1  0.82300000  0.48570000  0.91470000  1.0 -0.4787533079
O  O13  1  0.10270000  0.78570000  0.05050000  1.0 -0.0936832969
O  O14  1  0.23890000  0.75020000  0.15840000  1.0 -0.0121478065
O  O15  1  0.20430000  0.50070000  0.31230000  1.0 -0.2108678614
O  O16  1  0.26340000  0.69000000  0.22150000  1.0 -0.0305236436
O  O17  1  0.76600000  0.73970000  0.13030000  1.0 -0.0305236436
O  O18  1  0.95500000  0.84200000  0.05200000  1.0 -0.1782582496
O  O19  1  0.12900000  0.96850000  0.41420000  1.0 -0.6474762057
O  O20  1  0.97600000  0.94550000  0.33850000  1.0 -0.5546385442
O  O21  1  0.42290000  0.06600000  0.38340000  1.0 -0.692519406
O  O22  1  0.66940000  0.05330000  0.32870000  1.0 -0.6071057414
O  O23  1  0.15440000  0.80840000  0.64600000  1.0 -0.6012860929
O  O24  1  0.38110000  0.80970000  0.54000000  1.0 -0.6012860929
O  O25  1  0.26290000  0.05550000  0.88860000  1.0 -0.2192164977
O  O26  1  0.34540000  0.23490000  0.88330000  1.0 -0.0599738342
O  O27  1  0.60000000  0.70700000  0.32800000  1.0 -0.4064993059
O  O28  1  0.72300000  0.84900000  0.22000000  1.0 -0.1284331699
O  O29  1  0.10670000  0.36330000  0.04540000  1.0 -0.5025872981
O  O30  1  0.17700000  0.51430000  0.08530000  1.0 -0.4787533079
O  O31  1  0.89730000  0.21430000  0.94950000  1.0 -0.0936832969
O  O32  1  0.76110000  0.24980000  0.84160000  1.0 -0.0121478065
O  O33  1  0.79570000  0.49930000  0.68770000  1.0 -0.2108678614
O  O34  1  0.73660000  0.31000000  0.77850000  1.0 -0.0305236436
O  O35  1  0.23400000  0.26030000  0.86970000  1.0 -0.0305236436
O  O36  1  0.04500000  0.15800000  0.94800000  1.0 -0.1745581423
