# DDEC6 charges by PACMAN v1.1 (https://github.com/mtap-research/PACMAN-charge/)
data_RITCUV_ASR_pacman
_symmetry_space_group_name_H-M   'P 1'
_cell_length_a   23.27820000
_cell_length_b   23.27820000
_cell_length_c   60.22010000
_cell_angle_alpha   90.00000000
_cell_angle_beta   90.00000000
_cell_angle_gamma   120.00000000
_symmetry_Int_Tables_number   1
_chemical_formula_structural   Zn3H52C84(NO2)6
_chemical_formula_sum   'Zn18 H312 C504 N36 O72'
_cell_volume   28259.91781264
_cell_formula_units_Z   6
loop_
 _symmetry_equiv_pos_site_id
 _symmetry_equiv_pos_as_xyz
  1  'x, y, z'
loop_
 _atom_site_type_symbol
 _atom_site_label
 _atom_site_symmetry_multiplicity
 _atom_site_fract_x
 _atom_site_fract_y
 _atom_site_fract_z
 _atom_site_occupancy
 _atom_site_charge
Zn  Zn1  1  0.86778000  0.72308000  0.19913000  1.0 0.947558215
Zn  Zn2  1  0.85530000  0.13222000  0.86579000  1.0 0.947558215
Zn  Zn3  1  0.27692000  0.14470000  0.53246000  1.0 0.947558215
Zn  Zn4  1  0.13222000  0.27692000  0.69913000  1.0 0.947558215
Zn  Zn5  1  0.14470000  0.86778000  0.36579000  1.0 0.947558215
Zn  Zn6  1  0.72308000  0.85530000  0.03246000  1.0 0.947558215
Zn  Zn7  1  0.14470000  0.27692000  0.80087000  1.0 0.947558215
Zn  Zn8  1  0.72308000  0.86778000  0.13421000  1.0 0.947558215
Zn  Zn9  1  0.13222000  0.85530000  0.46754000  1.0 0.947558215
Zn  Zn10  1  0.85530000  0.72308000  0.30087000  1.0 0.947558215
Zn  Zn11  1  0.27692000  0.13222000  0.63421000  1.0 0.947558215
Zn  Zn12  1  0.86778000  0.14470000  0.96754000  1.0 0.947558215
Zn  Zn13  1  0.78829000  0.78829000  0.16667000  1.0 0.9846509603
Zn  Zn14  1  0.00000000  0.21171000  0.83333000  1.0 0.9860147941
Zn  Zn15  1  0.21171000  0.00000000  0.50000000  1.0 0.9846509603
Zn  Zn16  1  0.21171000  0.21171000  0.66666667  1.0 0.9860147941
Zn  Zn17  1  0.00000000  0.78829000  0.33333333  1.0 0.9846509603
Zn  Zn18  1  0.78829000  0.00000000  0.00000000  1.0 0.9860147941
H  H1  1  0.95070000  0.12300000  0.92107000  1.0 0.1200692293
H  H2  1  0.94040000  0.90630000  0.14477000  1.0 0.128073161
H  H3  1  0.12110000  0.24490000  0.89007000  1.0 0.1200692293
H  H4  1  0.18200000  0.24090000  0.91807000  1.0 0.1200692293
H  H5  1  0.01040000  0.96510000  0.11407000  1.0 0.1099967088
H  H6  1  0.56310000  0.04760000  0.02817000  1.0 0.1200692293
H  H7  1  0.10670000  0.86390000  0.12387000  1.0 0.1200692293
H  H8  1  0.69740000  0.17530000  0.96887000  1.0 0.1200692293
H  H9  1  0.03170000  0.80370000  0.15097000  1.0 0.1200692293
H  H10  1  0.03440000  0.95900000  0.07787000  1.0 0.1099967088
H  H11  1  0.66190000  0.05250000  0.01957000  1.0 0.128073161
H  H12  1  0.38880000  0.12280000  0.98337000  1.0 0.1200692293
H  H13  1  0.18910000  0.96390000  0.10487000  1.0 0.1200692293
H  H14  1  0.58900000  0.15580000  0.97587000  1.0 0.1099967088
H  H15  1  0.27440000  0.15690000  0.96517000  1.0 0.1200692293
H  H16  1  0.22340000  0.18680000  0.93867000  1.0 0.1200692293
H  H17  1  0.01530000  0.13600000  0.95277000  1.0 0.1099967088
H  H18  1  0.24650000  0.99500000  0.07317000  1.0 0.128073161
H  H19  1  0.12820000  0.11180000  0.00607000  1.0 0.1099967088
H  H20  1  0.47650000  0.06890000  0.03997000  1.0 0.1200692293
H  H21  1  0.49200000  0.12670000  0.97487000  1.0 0.1200692293
H  H22  1  0.38080000  0.06520000  0.03977000  1.0 0.128073161
H  H23  1  0.06310000  0.12100000  0.97837000  1.0 0.1099967088
H  H24  1  0.10660000  0.02900000  0.05307000  1.0 0.1099967088
H  H25  1  0.09120000  0.95820000  0.04607000  1.0 0.10087448
H  H26  1  0.16120000  0.06880000  0.02567000  1.0 0.2627789187
H  H27  1  0.17230000  0.04930000  0.58773000  1.0 0.1200692293
H  H28  1  0.96590000  0.05960000  0.81143000  1.0 0.128073161
H  H29  1  0.12380000  0.87890000  0.55673000  1.0 0.1200692293
H  H30  1  0.05890000  0.81800000  0.58473000  1.0 0.1200692293
H  H31  1  0.95470000  0.98960000  0.78073000  1.0 0.1099967088
H  H32  1  0.48450000  0.43690000  0.69483000  1.0 0.1200692293
H  H33  1  0.75720000  0.89330000  0.79053000  1.0 0.1200692293
H  H34  1  0.47790000  0.30260000  0.63553000  1.0 0.1200692293
H  H35  1  0.77200000  0.96830000  0.81763000  1.0 0.1200692293
H  H36  1  0.92460000  0.96560000  0.74453000  1.0 0.1099967088
H  H37  1  0.39060000  0.33810000  0.68623000  1.0 0.128073161
H  H38  1  0.73400000  0.61120000  0.65003000  1.0 0.1200692293
H  H39  1  0.77480000  0.81090000  0.77153000  1.0 0.1200692293
H  H40  1  0.56680000  0.41100000  0.64253000  1.0 0.1099967088
H  H41  1  0.88250000  0.72560000  0.63183000  1.0 0.1200692293
H  H42  1  0.96340000  0.77660000  0.60533000  1.0 0.1200692293
H  H43  1  0.12070000  0.98470000  0.61943000  1.0 0.1099967088
H  H44  1  0.74850000  0.75350000  0.73983000  1.0 0.128073161
H  H45  1  0.98360000  0.87180000  0.67273000  1.0 0.1099967088
H  H46  1  0.59240000  0.52350000  0.70663000  1.0 0.1200692293
H  H47  1  0.63470000  0.50800000  0.64153000  1.0 0.1200692293
H  H48  1  0.68440000  0.61920000  0.70643000  1.0 0.128073161
H  H49  1  0.05790000  0.93690000  0.64503000  1.0 0.1099967088
H  H50  1  0.92240000  0.89340000  0.71973000  1.0 0.1099967088
H  H51  1  0.86700000  0.90880000  0.71273000  1.0 0.10087448
H  H52  1  0.90760000  0.83880000  0.69233000  1.0 0.2627789187
H  H53  1  0.87700000  0.82770000  0.25440000  1.0 0.1200692293
H  H54  1  0.09370000  0.03410000  0.47810000  1.0 0.128073161
H  H55  1  0.75510000  0.87620000  0.22340000  1.0 0.1200692293
H  H56  1  0.75910000  0.94110000  0.25140000  1.0 0.1200692293
H  H57  1  0.03490000  0.04530000  0.44740000  1.0 0.1099967088
H  H58  1  0.95240000  0.51550000  0.36150000  1.0 0.1200692293
H  H59  1  0.13610000  0.24280000  0.45720000  1.0 0.1200692293
H  H60  1  0.82470000  0.52210000  0.30220000  1.0 0.1200692293
H  H61  1  0.19630000  0.22800000  0.48430000  1.0 0.1200692293
H  H62  1  0.04100000  0.07540000  0.41120000  1.0 0.1099967088
H  H63  1  0.94750000  0.60940000  0.35290000  1.0 0.128073161
H  H64  1  0.87720000  0.26600000  0.31670000  1.0 0.1200692293
H  H65  1  0.03610000  0.22520000  0.43820000  1.0 0.1200692293
H  H66  1  0.84420000  0.43320000  0.30920000  1.0 0.1099967088
H  H67  1  0.84310000  0.11750000  0.29850000  1.0 0.1200692293
H  H68  1  0.81320000  0.03660000  0.27200000  1.0 0.1200692293
H  H69  1  0.86400000  0.87930000  0.28610000  1.0 0.1099967088
H  H70  1  0.00500000  0.25150000  0.40650000  1.0 0.128073161
H  H71  1  0.88820000  0.01640000  0.33940000  1.0 0.1099967088
H  H72  1  0.93110000  0.40760000  0.37330000  1.0 0.1200692293
H  H73  1  0.87330000  0.36530000  0.30820000  1.0 0.1200692293
H  H74  1  0.93480000  0.31560000  0.37310000  1.0 0.128073161
H  H75  1  0.87900000  0.94210000  0.31170000  1.0 0.1099967088
H  H76  1  0.97100000  0.07760000  0.38640000  1.0 0.1099967088
H  H77  1  0.04180000  0.13300000  0.37940000  1.0 0.10087448
H  H78  1  0.93120000  0.09240000  0.35900000  1.0 0.2627789187
H  H79  1  0.04930000  0.87700000  0.42107000  1.0 0.1200692293
H  H80  1  0.05960000  0.09370000  0.64477000  1.0 0.128073161
H  H81  1  0.87890000  0.75510000  0.39007000  1.0 0.1200692293
H  H82  1  0.81800000  0.75910000  0.41807000  1.0 0.1200692293
H  H83  1  0.98960000  0.03490000  0.61407000  1.0 0.1099967088
H  H84  1  0.43690000  0.95240000  0.52817000  1.0 0.1200692293
H  H85  1  0.89330000  0.13610000  0.62387000  1.0 0.1200692293
H  H86  1  0.30260000  0.82470000  0.46887000  1.0 0.1200692293
H  H87  1  0.96830000  0.19630000  0.65097000  1.0 0.1200692293
H  H88  1  0.96560000  0.04100000  0.57787000  1.0 0.1099967088
H  H89  1  0.33810000  0.94750000  0.51957000  1.0 0.128073161
H  H90  1  0.61120000  0.87720000  0.48337000  1.0 0.1200692293
H  H91  1  0.81090000  0.03610000  0.60487000  1.0 0.1200692293
H  H92  1  0.41100000  0.84420000  0.47587000  1.0 0.1099967088
H  H93  1  0.72560000  0.84310000  0.46517000  1.0 0.1200692293
H  H94  1  0.77660000  0.81320000  0.43867000  1.0 0.1200692293
H  H95  1  0.98470000  0.86400000  0.45277000  1.0 0.1099967088
H  H96  1  0.75350000  0.00500000  0.57317000  1.0 0.128073161
H  H97  1  0.87180000  0.88820000  0.50607000  1.0 0.1099967088
H  H98  1  0.52350000  0.93110000  0.53997000  1.0 0.1200692293
H  H99  1  0.50800000  0.87330000  0.47487000  1.0 0.1200692293
H  H100  1  0.61920000  0.93480000  0.53977000  1.0 0.128073161
H  H101  1  0.93690000  0.87900000  0.47837000  1.0 0.1099967088
H  H102  1  0.89340000  0.97100000  0.55307000  1.0 0.1099967088
H  H103  1  0.90880000  0.04180000  0.54607000  1.0 0.10087448
H  H104  1  0.83880000  0.93120000  0.52567000  1.0 0.2627789187
H  H105  1  0.82770000  0.95070000  0.08773000  1.0 0.1200692293
H  H106  1  0.03410000  0.94040000  0.31143000  1.0 0.128073161
H  H107  1  0.87620000  0.12110000  0.05673000  1.0 0.1200692293
H  H108  1  0.94110000  0.18200000  0.08473000  1.0 0.1200692293
H  H109  1  0.04530000  0.01040000  0.28073000  1.0 0.1099967088
H  H110  1  0.51550000  0.56310000  0.19483000  1.0 0.1200692293
H  H111  1  0.24280000  0.10670000  0.29053000  1.0 0.1200692293
H  H112  1  0.52210000  0.69740000  0.13553000  1.0 0.1200692293
H  H113  1  0.22800000  0.03170000  0.31763000  1.0 0.1200692293
H  H114  1  0.07540000  0.03440000  0.24453000  1.0 0.1099967088
H  H115  1  0.60940000  0.66190000  0.18623000  1.0 0.128073161
H  H116  1  0.26600000  0.38880000  0.15003000  1.0 0.1200692293
H  H117  1  0.22520000  0.18910000  0.27153000  1.0 0.1200692293
H  H118  1  0.43320000  0.58900000  0.14253000  1.0 0.1099967088
H  H119  1  0.11750000  0.27440000  0.13183000  1.0 0.1200692293
H  H120  1  0.03660000  0.22340000  0.10533000  1.0 0.1200692293
H  H121  1  0.87930000  0.01530000  0.11943000  1.0 0.1099967088
H  H122  1  0.25150000  0.24650000  0.23983000  1.0 0.128073161
H  H123  1  0.01640000  0.12820000  0.17273000  1.0 0.1099967088
H  H124  1  0.40760000  0.47650000  0.20663000  1.0 0.1200692293
H  H125  1  0.36530000  0.49200000  0.14153000  1.0 0.1200692293
H  H126  1  0.31560000  0.38080000  0.20643000  1.0 0.128073161
H  H127  1  0.94210000  0.06310000  0.14503000  1.0 0.1099967088
H  H128  1  0.07760000  0.10660000  0.21973000  1.0 0.1099967088
H  H129  1  0.13300000  0.09120000  0.21273000  1.0 0.10087448
H  H130  1  0.09240000  0.16120000  0.19233000  1.0 0.2627789187
H  H131  1  0.12300000  0.17230000  0.75440000  1.0 0.1200692293
H  H132  1  0.90630000  0.96590000  0.97810000  1.0 0.128073161
H  H133  1  0.24490000  0.12380000  0.72340000  1.0 0.1200692293
H  H134  1  0.24090000  0.05890000  0.75140000  1.0 0.1200692293
H  H135  1  0.96510000  0.95470000  0.94740000  1.0 0.1099967088
H  H136  1  0.04760000  0.48450000  0.86150000  1.0 0.1200692293
H  H137  1  0.86390000  0.75720000  0.95720000  1.0 0.1200692293
H  H138  1  0.17530000  0.47790000  0.80220000  1.0 0.1200692293
H  H139  1  0.80370000  0.77200000  0.98430000  1.0 0.1200692293
H  H140  1  0.95900000  0.92460000  0.91120000  1.0 0.1099967088
H  H141  1  0.05250000  0.39060000  0.85290000  1.0 0.128073161
H  H142  1  0.12280000  0.73400000  0.81670000  1.0 0.1200692293
H  H143  1  0.96390000  0.77480000  0.93820000  1.0 0.1200692293
H  H144  1  0.15580000  0.56680000  0.80920000  1.0 0.1099967088
H  H145  1  0.15690000  0.88250000  0.79850000  1.0 0.1200692293
H  H146  1  0.18680000  0.96340000  0.77200000  1.0 0.1200692293
H  H147  1  0.13600000  0.12070000  0.78610000  1.0 0.1099967088
H  H148  1  0.99500000  0.74850000  0.90650000  1.0 0.128073161
H  H149  1  0.11180000  0.98360000  0.83940000  1.0 0.1099967088
H  H150  1  0.06890000  0.59240000  0.87330000  1.0 0.1200692293
H  H151  1  0.12670000  0.63470000  0.80820000  1.0 0.1200692293
H  H152  1  0.06520000  0.68440000  0.87310000  1.0 0.128073161
H  H153  1  0.12100000  0.05790000  0.81170000  1.0 0.1099967088
H  H154  1  0.02900000  0.92240000  0.88640000  1.0 0.1099967088
H  H155  1  0.95820000  0.86700000  0.87940000  1.0 0.10087448
H  H156  1  0.06880000  0.90760000  0.85900000  1.0 0.2627789187
H  H157  1  0.82770000  0.87700000  0.07893000  1.0 0.1200692293
H  H158  1  0.03410000  0.09370000  0.85523000  1.0 0.128073161
H  H159  1  0.87620000  0.75510000  0.10993000  1.0 0.1200692293
H  H160  1  0.94110000  0.75910000  0.08193000  1.0 0.1200692293
H  H161  1  0.04530000  0.03490000  0.88593000  1.0 0.1099967088
H  H162  1  0.51550000  0.95240000  0.97183000  1.0 0.1200692293
H  H163  1  0.24280000  0.13610000  0.87613000  1.0 0.1200692293
H  H164  1  0.52210000  0.82470000  0.03113000  1.0 0.1200692293
H  H165  1  0.22800000  0.19630000  0.84903000  1.0 0.1200692293
H  H166  1  0.07540000  0.04100000  0.92213000  1.0 0.1099967088
H  H167  1  0.60940000  0.94750000  0.98043000  1.0 0.128073161
H  H168  1  0.26600000  0.87720000  0.01663000  1.0 0.1200692293
H  H169  1  0.22520000  0.03610000  0.89513000  1.0 0.1200692293
H  H170  1  0.43320000  0.84420000  0.02413000  1.0 0.1099967088
H  H171  1  0.11750000  0.84310000  0.03483000  1.0 0.1200692293
H  H172  1  0.03660000  0.81320000  0.06133000  1.0 0.1200692293
H  H173  1  0.87930000  0.86400000  0.04723000  1.0 0.1099967088
H  H174  1  0.25150000  0.00500000  0.92683000  1.0 0.128073161
H  H175  1  0.01640000  0.88820000  0.99393000  1.0 0.1099967088
H  H176  1  0.40760000  0.93110000  0.96003000  1.0 0.1200692293
H  H177  1  0.36530000  0.87330000  0.02513000  1.0 0.1200692293
H  H178  1  0.31560000  0.93480000  0.96023000  1.0 0.128073161
H  H179  1  0.94210000  0.87900000  0.02163000  1.0 0.1099967088
H  H180  1  0.07760000  0.97100000  0.94693000  1.0 0.1099967088
H  H181  1  0.13300000  0.04180000  0.95393000  1.0 0.10087448
H  H182  1  0.09240000  0.93120000  0.97433000  1.0 0.2627789187
H  H183  1  0.12300000  0.95070000  0.41227000  1.0 0.1200692293
H  H184  1  0.90630000  0.94040000  0.18857000  1.0 0.128073161
H  H185  1  0.24490000  0.12110000  0.44327000  1.0 0.1200692293
H  H186  1  0.24090000  0.18200000  0.41527000  1.0 0.1200692293
H  H187  1  0.96510000  0.01040000  0.21927000  1.0 0.1099967088
H  H188  1  0.04760000  0.56310000  0.30517000  1.0 0.1200692293
H  H189  1  0.86390000  0.10670000  0.20947000  1.0 0.1200692293
H  H190  1  0.17530000  0.69740000  0.36447000  1.0 0.1200692293
H  H191  1  0.80370000  0.03170000  0.18237000  1.0 0.1200692293
H  H192  1  0.95900000  0.03440000  0.25547000  1.0 0.1099967088
H  H193  1  0.05250000  0.66190000  0.31377000  1.0 0.128073161
H  H194  1  0.12280000  0.38880000  0.34997000  1.0 0.1200692293
H  H195  1  0.96390000  0.18910000  0.22847000  1.0 0.1200692293
H  H196  1  0.15580000  0.58900000  0.35747000  1.0 0.1099967088
H  H197  1  0.15690000  0.27440000  0.36817000  1.0 0.1200692293
H  H198  1  0.18680000  0.22340000  0.39467000  1.0 0.1200692293
H  H199  1  0.13600000  0.01530000  0.38057000  1.0 0.1099967088
H  H200  1  0.99500000  0.24650000  0.26017000  1.0 0.128073161
H  H201  1  0.11180000  0.12820000  0.32727000  1.0 0.1099967088
H  H202  1  0.06890000  0.47650000  0.29337000  1.0 0.1200692293
H  H203  1  0.12670000  0.49200000  0.35847000  1.0 0.1200692293
H  H204  1  0.06520000  0.38080000  0.29357000  1.0 0.128073161
H  H205  1  0.12100000  0.06310000  0.35497000  1.0 0.1099967088
H  H206  1  0.02900000  0.10660000  0.28027000  1.0 0.1099967088
H  H207  1  0.95820000  0.09120000  0.28727000  1.0 0.10087448
H  H208  1  0.06880000  0.16120000  0.30767000  1.0 0.2627789187
H  H209  1  0.04930000  0.17230000  0.74560000  1.0 0.1200692293
H  H210  1  0.05960000  0.96590000  0.52190000  1.0 0.128073161
H  H211  1  0.87890000  0.12380000  0.77660000  1.0 0.1200692293
H  H212  1  0.81800000  0.05890000  0.74860000  1.0 0.1200692293
H  H213  1  0.98960000  0.95470000  0.55260000  1.0 0.1099967088
H  H214  1  0.43690000  0.48450000  0.63850000  1.0 0.1200692293
H  H215  1  0.89330000  0.75720000  0.54280000  1.0 0.1200692293
H  H216  1  0.30260000  0.47790000  0.69780000  1.0 0.1200692293
H  H217  1  0.96830000  0.77200000  0.51570000  1.0 0.1200692293
H  H218  1  0.96560000  0.92460000  0.58880000  1.0 0.1099967088
H  H219  1  0.33810000  0.39060000  0.64710000  1.0 0.128073161
H  H220  1  0.61120000  0.73400000  0.68330000  1.0 0.1200692293
H  H221  1  0.81090000  0.77480000  0.56180000  1.0 0.1200692293
H  H222  1  0.41100000  0.56680000  0.69080000  1.0 0.1099967088
H  H223  1  0.72560000  0.88250000  0.70150000  1.0 0.1200692293
H  H224  1  0.77660000  0.96340000  0.72800000  1.0 0.1200692293
H  H225  1  0.98470000  0.12070000  0.71390000  1.0 0.1099967088
H  H226  1  0.75350000  0.74850000  0.59350000  1.0 0.128073161
H  H227  1  0.87180000  0.98360000  0.66060000  1.0 0.1099967088
H  H228  1  0.52350000  0.59240000  0.62670000  1.0 0.1200692293
H  H229  1  0.50800000  0.63470000  0.69180000  1.0 0.1200692293
H  H230  1  0.61920000  0.68440000  0.62690000  1.0 0.128073161
H  H231  1  0.93690000  0.05790000  0.68830000  1.0 0.1099967088
H  H232  1  0.89340000  0.92240000  0.61360000  1.0 0.1099967088
H  H233  1  0.90880000  0.86700000  0.62060000  1.0 0.10087448
H  H234  1  0.83880000  0.90760000  0.64100000  1.0 0.2627789187
H  H235  1  0.17230000  0.12300000  0.57893000  1.0 0.1200692293
H  H236  1  0.96590000  0.90630000  0.35523000  1.0 0.128073161
H  H237  1  0.12380000  0.24490000  0.60993000  1.0 0.1200692293
H  H238  1  0.05890000  0.24090000  0.58193000  1.0 0.1200692293
H  H239  1  0.95470000  0.96510000  0.38593000  1.0 0.1099967088
H  H240  1  0.48450000  0.04760000  0.47183000  1.0 0.1200692293
H  H241  1  0.75720000  0.86390000  0.37613000  1.0 0.1200692293
H  H242  1  0.47790000  0.17530000  0.53113000  1.0 0.1200692293
H  H243  1  0.77200000  0.80370000  0.34903000  1.0 0.1200692293
H  H244  1  0.92460000  0.95900000  0.42213000  1.0 0.1099967088
H  H245  1  0.39060000  0.05250000  0.48043000  1.0 0.128073161
H  H246  1  0.73400000  0.12280000  0.51663000  1.0 0.1200692293
H  H247  1  0.77480000  0.96390000  0.39513000  1.0 0.1200692293
H  H248  1  0.56680000  0.15580000  0.52413000  1.0 0.1099967088
H  H249  1  0.88250000  0.15690000  0.53483000  1.0 0.1200692293
H  H250  1  0.96340000  0.18680000  0.56133000  1.0 0.1200692293
H  H251  1  0.12070000  0.13600000  0.54723000  1.0 0.1099967088
H  H252  1  0.74850000  0.99500000  0.42683000  1.0 0.128073161
H  H253  1  0.98360000  0.11180000  0.49393000  1.0 0.1099967088
H  H254  1  0.59240000  0.06890000  0.46003000  1.0 0.1200692293
H  H255  1  0.63470000  0.12670000  0.52513000  1.0 0.1200692293
H  H256  1  0.68440000  0.06520000  0.46023000  1.0 0.128073161
H  H257  1  0.05790000  0.12100000  0.52163000  1.0 0.1099967088
H  H258  1  0.92240000  0.02900000  0.44693000  1.0 0.1099967088
H  H259  1  0.86700000  0.95820000  0.45393000  1.0 0.10087448
H  H260  1  0.90760000  0.06880000  0.47433000  1.0 0.2627789187
H  H261  1  0.87700000  0.04930000  0.91227000  1.0 0.1200692293
H  H262  1  0.09370000  0.05960000  0.68857000  1.0 0.128073161
H  H263  1  0.75510000  0.87890000  0.94327000  1.0 0.1200692293
H  H264  1  0.75910000  0.81800000  0.91527000  1.0 0.1200692293
H  H265  1  0.03490000  0.98960000  0.71927000  1.0 0.1099967088
H  H266  1  0.95240000  0.43690000  0.80517000  1.0 0.1200692293
H  H267  1  0.13610000  0.89330000  0.70947000  1.0 0.1200692293
H  H268  1  0.82470000  0.30260000  0.86447000  1.0 0.1200692293
H  H269  1  0.19630000  0.96830000  0.68237000  1.0 0.1200692293
H  H270  1  0.04100000  0.96560000  0.75547000  1.0 0.1099967088
H  H271  1  0.94750000  0.33810000  0.81377000  1.0 0.128073161
H  H272  1  0.87720000  0.61120000  0.84997000  1.0 0.1200692293
H  H273  1  0.03610000  0.81090000  0.72847000  1.0 0.1200692293
H  H274  1  0.84420000  0.41100000  0.85747000  1.0 0.1099967088
H  H275  1  0.84310000  0.72560000  0.86817000  1.0 0.1200692293
H  H276  1  0.81320000  0.77660000  0.89467000  1.0 0.1200692293
H  H277  1  0.86400000  0.98470000  0.88057000  1.0 0.1099967088
H  H278  1  0.00500000  0.75350000  0.76017000  1.0 0.128073161
H  H279  1  0.88820000  0.87180000  0.82727000  1.0 0.1099967088
H  H280  1  0.93110000  0.52350000  0.79337000  1.0 0.1200692293
H  H281  1  0.87330000  0.50800000  0.85847000  1.0 0.1200692293
H  H282  1  0.93480000  0.61920000  0.79357000  1.0 0.128073161
H  H283  1  0.87900000  0.93690000  0.85497000  1.0 0.1099967088
H  H284  1  0.97100000  0.89340000  0.78027000  1.0 0.1099967088
H  H285  1  0.04180000  0.90880000  0.78727000  1.0 0.10087448
H  H286  1  0.93120000  0.83880000  0.80767000  1.0 0.2627789187
H  H287  1  0.95070000  0.82770000  0.24560000  1.0 0.1200692293
H  H288  1  0.94040000  0.03410000  0.02190000  1.0 0.128073161
H  H289  1  0.12110000  0.87620000  0.27660000  1.0 0.1200692293
H  H290  1  0.18200000  0.94110000  0.24860000  1.0 0.1200692293
H  H291  1  0.01040000  0.04530000  0.05260000  1.0 0.1099967088
H  H292  1  0.56310000  0.51550000  0.13850000  1.0 0.1200692293
H  H293  1  0.10670000  0.24280000  0.04280000  1.0 0.1200692293
H  H294  1  0.69740000  0.52210000  0.19780000  1.0 0.1200692293
H  H295  1  0.03170000  0.22800000  0.01570000  1.0 0.1200692293
H  H296  1  0.03440000  0.07540000  0.08880000  1.0 0.1099967088
H  H297  1  0.66190000  0.60940000  0.14710000  1.0 0.128073161
H  H298  1  0.38880000  0.26600000  0.18330000  1.0 0.1200692293
H  H299  1  0.18910000  0.22520000  0.06180000  1.0 0.1200692293
H  H300  1  0.58900000  0.43320000  0.19080000  1.0 0.1099967088
H  H301  1  0.27440000  0.11750000  0.20150000  1.0 0.1200692293
H  H302  1  0.22340000  0.03660000  0.22800000  1.0 0.1200692293
H  H303  1  0.01530000  0.87930000  0.21390000  1.0 0.1099967088
H  H304  1  0.24650000  0.25150000  0.09350000  1.0 0.128073161
H  H305  1  0.12820000  0.01640000  0.16060000  1.0 0.1099967088
H  H306  1  0.47650000  0.40760000  0.12670000  1.0 0.1200692293
H  H307  1  0.49200000  0.36530000  0.19180000  1.0 0.1200692293
H  H308  1  0.38080000  0.31560000  0.12690000  1.0 0.128073161
H  H309  1  0.06310000  0.94210000  0.18830000  1.0 0.1099967088
H  H310  1  0.10660000  0.07760000  0.11360000  1.0 0.1099967088
H  H311  1  0.09120000  0.13300000  0.12060000  1.0 0.10087448
H  H312  1  0.16120000  0.09240000  0.14100000  1.0 0.2627789187
C  C1  1  0.99080000  0.18960000  0.88205000  1.0 0.5726194861
C  C2  1  0.02920000  0.18710000  0.90247000  1.0 -0.0164069036
C  C3  1  0.93420000  0.81060000  0.16675000  1.0 0.5726194861
C  C4  1  0.75470000  0.10970000  0.99020000  1.0 0.6082456169
C  C5  1  0.98020000  0.85010000  0.14929000  1.0 -0.0609428627
C  C6  1  0.99670000  0.14930000  0.92083000  1.0 -0.0990911951
C  C7  1  0.97250000  0.89670000  0.13978000  1.0 -0.0824889833
C  C8  1  0.09900000  0.21960000  0.90248000  1.0 -0.1097441249
C  C9  1  0.06590000  0.91640000  0.11464000  1.0 0.0785712036
C  C10  1  0.23540000  0.10230000  0.00417000  1.0 0.3158481824
C  C11  1  0.56850000  0.10350000  0.00322000  1.0 0.0581269163
C  C12  1  0.10620000  0.17850000  0.93700000  1.0 0.0694087432
C  C13  1  0.14070000  0.15930000  0.95460000  1.0 0.0694087432
C  C14  1  0.68400000  0.10920000  0.99410000  1.0 -0.0299137836
C  C15  1  0.31190000  0.08580000  0.01677000  1.0 0.2701379838
C  C16  1  0.13600000  0.21670000  0.91897000  1.0 -0.1368506829
C  C17  1  0.20180000  0.12300000  0.98832000  1.0 0.0030702851
C  C18  1  0.01500000  0.93250000  0.12144000  1.0 -0.1781944592
C  C19  1  0.10570000  0.95230000  0.09433000  1.0 0.0581269163
C  C20  1  0.58800000  0.07170000  0.01601000  1.0 -0.1470257021
C  C21  1  0.07190000  0.87160000  0.12679000  1.0 -0.1470257021
C  C22  1  0.66990000  0.14760000  0.98001000  1.0 -0.0824889833
C  C23  1  0.02810000  0.83670000  0.14355000  1.0 -0.0824889833
C  C24  1  0.07750000  0.96660000  0.07672000  1.0 -0.1781944592
C  C25  1  0.64730000  0.07540000  0.01073000  1.0 -0.0914273312
C  C26  1  0.49870000  0.09950000  0.00657000  1.0 0.10087448
C  C27  1  0.40580000  0.10750000  0.99440000  1.0 -0.0914273312
C  C28  1  0.16870000  0.96930000  0.09241000  1.0 -0.1600371039
C  C29  1  0.60670000  0.13730000  0.98550000  1.0 -0.1976580364
C  C30  1  0.11210000  0.99200000  0.05744000  1.0 -0.205072175
C  C31  1  0.23230000  0.15040000  0.96798000  1.0 -0.130535166
C  C32  1  0.20100000  0.16810000  0.95190000  1.0 -0.1368506829
C  C33  1  0.03550000  0.15180000  0.93905000  1.0 -0.1600371039
C  C34  1  0.20600000  0.99380000  0.07397000  1.0 -0.1097441249
C  C35  1  0.14490000  0.12100000  0.99163000  1.0 -0.1470257021
C  C36  1  0.36870000  0.08480000  0.01148000  1.0 -0.0609428627
C  C37  1  0.46100000  0.07900000  0.02716000  1.0 -0.1674194204
C  C38  1  0.47190000  0.11420000  0.98871000  1.0 -0.1781944592
C  C39  1  0.18710000  0.01590000  0.05720000  1.0 -0.0075031745
C  C40  1  0.23050000  0.04930000  0.03683000  1.0 0.3104250222
C  C41  1  0.40240000  0.07630000  0.02607000  1.0 -0.0914273312
C  C42  1  0.10660000  0.13130000  0.97575000  1.0 -0.1470257021
C  C43  1  0.19880000  0.00920000  0.54871000  1.0 0.5726194861
C  C44  1  0.15790000  0.97080000  0.56913000  1.0 -0.0164069036
C  C45  1  0.87640000  0.06580000  0.83341000  1.0 0.5726194861
C  C46  1  0.35500000  0.24530000  0.65686000  1.0 0.6082456169
C  C47  1  0.86990000  0.01980000  0.81595000  1.0 -0.0609428627
C  C48  1  0.15260000  0.00330000  0.58749000  1.0 -0.0990911951
C  C49  1  0.92420000  0.02750000  0.80644000  1.0 -0.0824889833
C  C50  1  0.12060000  0.90100000  0.56914000  1.0 -0.1097441249
C  C51  1  0.85050000  0.93410000  0.78130000  1.0 0.0785712036
C  C52  1  0.86690000  0.76460000  0.67083000  1.0 0.3158481824
C  C53  1  0.53500000  0.43150000  0.66988000  1.0 0.0581269163
C  C54  1  0.07230000  0.89380000  0.60366000  1.0 0.0694087432
C  C55  1  0.01860000  0.85930000  0.62126000  1.0 0.0694087432
C  C56  1  0.42520000  0.31600000  0.66076000  1.0 -0.0299137836
C  C57  1  0.77390000  0.68810000  0.68343000  1.0 0.2701379838
C  C58  1  0.08070000  0.86400000  0.58563000  1.0 -0.1368506829
C  C59  1  0.92120000  0.79820000  0.65498000  1.0 0.0030702851
C  C60  1  0.91750000  0.98500000  0.78810000  1.0 -0.1781944592
C  C61  1  0.84660000  0.89430000  0.76099000  1.0 0.0581269163
C  C62  1  0.48370000  0.41200000  0.68267000  1.0 -0.1470257021
C  C63  1  0.79970000  0.92810000  0.79345000  1.0 -0.1470257021
C  C64  1  0.47770000  0.33010000  0.64667000  1.0 -0.0824889833
C  C65  1  0.80860000  0.97190000  0.81021000  1.0 -0.0914273312
C  C66  1  0.88910000  0.92250000  0.74338000  1.0 -0.1781944592
C  C67  1  0.42810000  0.35270000  0.67739000  1.0 -0.0914273312
C  C68  1  0.60080000  0.50130000  0.67323000  1.0 0.10087448
C  C69  1  0.70170000  0.59420000  0.66106000  1.0 -0.0914273312
C  C70  1  0.80060000  0.83130000  0.75907000  1.0 -0.1600371039
C  C71  1  0.53060000  0.39330000  0.65216000  1.0 -0.1976580364
C  C72  1  0.87990000  0.88790000  0.72410000  1.0 -0.205072175
C  C73  1  0.91810000  0.76770000  0.63464000  1.0 -0.130535166
C  C74  1  0.96710000  0.79900000  0.61856000  1.0 -0.1368506829
C  C75  1  0.11630000  0.96450000  0.60571000  1.0 -0.1600371039
C  C76  1  0.78780000  0.79400000  0.74063000  1.0 -0.1097441249
C  C77  1  0.97610000  0.85510000  0.65829000  1.0 -0.1470257021
C  C78  1  0.71610000  0.63130000  0.67814000  1.0 -0.0609428627
C  C79  1  0.61800000  0.53900000  0.69382000  1.0 -0.1674194204
C  C80  1  0.64230000  0.52810000  0.65537000  1.0 -0.1781944592
C  C81  1  0.82880000  0.81290000  0.72386000  1.0 -0.0075031745
C  C82  1  0.81880000  0.76950000  0.70349000  1.0 0.3104250222
C  C83  1  0.67390000  0.59760000  0.69273000  1.0 -0.0914273312
C  C84  1  0.02470000  0.89340000  0.64241000  1.0 -0.1470257021
C  C85  1  0.81040000  0.80120000  0.21538000  1.0 0.5726194861
C  C86  1  0.81290000  0.84210000  0.23580000  1.0 -0.0164069036
C  C87  1  0.18940000  0.12360000  0.50008000  1.0 0.5726194861
C  C88  1  0.89030000  0.64500000  0.32353000  1.0 0.6082456169
C  C89  1  0.14990000  0.13010000  0.48262000  1.0 -0.0609428627
C  C90  1  0.85070000  0.84740000  0.25416000  1.0 -0.0990911951
C  C91  1  0.10330000  0.07580000  0.47311000  1.0 -0.0824889833
C  C92  1  0.78040000  0.87940000  0.23581000  1.0 -0.1097441249
C  C93  1  0.08360000  0.14950000  0.44797000  1.0 0.0785712036
C  C94  1  0.89770000  0.13310000  0.33750000  1.0 0.3104250222
C  C95  1  0.89650000  0.46500000  0.33655000  1.0 0.0581269163
C  C96  1  0.82150000  0.92770000  0.27033000  1.0 0.0694087432
C  C97  1  0.84070000  0.98140000  0.28793000  1.0 0.0694087432
C  C98  1  0.89080000  0.57480000  0.32743000  1.0 -0.0299137836
C  C99  1  0.91420000  0.22610000  0.35010000  1.0 0.2701379838
C  C100  1  0.78330000  0.91930000  0.25230000  1.0 -0.1368506829
C  C101  1  0.87700000  0.07880000  0.32165000  1.0 0.0030702851
C  C102  1  0.06750000  0.08250000  0.45477000  1.0 -0.1781944592
C  C103  1  0.04770000  0.15340000  0.42766000  1.0 0.0581269163
C  C104  1  0.92830000  0.51630000  0.34934000  1.0 -0.1470257021
C  C105  1  0.12840000  0.20030000  0.46012000  1.0 -0.1470257021
C  C106  1  0.85240000  0.52230000  0.31334000  1.0 -0.0824889833
C  C107  1  0.16330000  0.19140000  0.47688000  1.0 -0.0824889833
C  C108  1  0.03340000  0.11090000  0.41005000  1.0 -0.1781944592
C  C109  1  0.92460000  0.57190000  0.34406000  1.0 -0.0914273312
C  C110  1  0.90050000  0.39920000  0.33990000  1.0 0.10087448
C  C111  1  0.89250000  0.29830000  0.32773000  1.0 -0.0914273312
C  C112  1  0.03070000  0.19940000  0.42574000  1.0 -0.1600371039
C  C113  1  0.86270000  0.46940000  0.31883000  1.0 -0.1976580364
C  C114  1  0.00800000  0.12010000  0.39077000  1.0 -0.205072175
C  C115  1  0.84960000  0.08190000  0.30131000  1.0 -0.130535166
C  C116  1  0.83190000  0.03290000  0.28523000  1.0 -0.1368506829
C  C117  1  0.84820000  0.88370000  0.27238000  1.0 -0.1600371039
C  C118  1  0.00620000  0.21220000  0.40730000  1.0 -0.1097441249
C  C119  1  0.87900000  0.02390000  0.32496000  1.0 -0.1470257021
C  C120  1  0.91520000  0.28390000  0.34481000  1.0 -0.0609428627
C  C121  1  0.92100000  0.38200000  0.36049000  1.0 -0.1674194204
C  C122  1  0.88580000  0.35770000  0.32204000  1.0 -0.1781944592
C  C123  1  0.98410000  0.17120000  0.39053000  1.0 -0.0075031745
C  C124  1  0.95070000  0.18120000  0.37016000  1.0 0.3104250222
C  C125  1  0.92370000  0.32610000  0.35940000  1.0 -0.0914273312
C  C126  1  0.86870000  0.97530000  0.30908000  1.0 -0.1470257021
C  C127  1  0.00920000  0.81040000  0.38205000  1.0 0.5726194861
C  C128  1  0.97080000  0.81290000  0.40247000  1.0 -0.0164069036
C  C129  1  0.06580000  0.18940000  0.66675000  1.0 0.5726194861
C  C130  1  0.24530000  0.89030000  0.49020000  1.0 0.6082456169
C  C131  1  0.01980000  0.14990000  0.64929000  1.0 -0.0609428627
C  C132  1  0.00330000  0.85070000  0.42083000  1.0 -0.0990911951
C  C133  1  0.02750000  0.10330000  0.63978000  1.0 -0.0824889833
C  C134  1  0.90100000  0.78040000  0.40248000  1.0 -0.1097441249
C  C135  1  0.93410000  0.08360000  0.61464000  1.0 0.0785712036
C  C136  1  0.76460000  0.89770000  0.50417000  1.0 0.3158481824
C  C137  1  0.43150000  0.89650000  0.50322000  1.0 0.0581269163
C  C138  1  0.89380000  0.82150000  0.43700000  1.0 0.0694087432
C  C139  1  0.85930000  0.84070000  0.45460000  1.0 0.0694087432
C  C140  1  0.31600000  0.89080000  0.49410000  1.0 -0.0299137836
C  C141  1  0.68810000  0.91420000  0.51677000  1.0 0.2701379838
C  C142  1  0.86400000  0.78330000  0.41897000  1.0 -0.1368506829
C  C143  1  0.79820000  0.87700000  0.48832000  1.0 0.0030702851
C  C144  1  0.98500000  0.06750000  0.62144000  1.0 -0.1781944592
C  C145  1  0.89430000  0.04770000  0.59433000  1.0 0.0581269163
C  C146  1  0.41200000  0.92830000  0.51601000  1.0 -0.1470257021
C  C147  1  0.92810000  0.12840000  0.62679000  1.0 -0.1470257021
C  C148  1  0.33010000  0.85240000  0.48001000  1.0 -0.0824889833
C  C149  1  0.97190000  0.16330000  0.64355000  1.0 -0.0824889833
C  C150  1  0.92250000  0.03340000  0.57672000  1.0 -0.1781944592
C  C151  1  0.35270000  0.92460000  0.51073000  1.0 -0.0914273312
C  C152  1  0.50130000  0.90050000  0.50657000  1.0 0.10087448
C  C153  1  0.59420000  0.89250000  0.49440000  1.0 -0.0914273312
C  C154  1  0.83130000  0.03070000  0.59241000  1.0 -0.1600371039
C  C155  1  0.39330000  0.86270000  0.48550000  1.0 -0.1976580364
C  C156  1  0.88790000  0.00800000  0.55744000  1.0 -0.205072175
C  C157  1  0.76770000  0.84960000  0.46798000  1.0 -0.130535166
C  C158  1  0.79900000  0.83190000  0.45190000  1.0 -0.1368506829
C  C159  1  0.96450000  0.84820000  0.43905000  1.0 -0.1600371039
C  C160  1  0.79400000  0.00620000  0.57397000  1.0 -0.1097441249
C  C161  1  0.85510000  0.87900000  0.49163000  1.0 -0.1470257021
C  C162  1  0.63130000  0.91520000  0.51148000  1.0 -0.0609428627
C  C163  1  0.53900000  0.92100000  0.52716000  1.0 -0.1674194204
C  C164  1  0.52810000  0.88580000  0.48871000  1.0 -0.1781944592
C  C165  1  0.81290000  0.98410000  0.55720000  1.0 -0.0075031745
C  C166  1  0.76950000  0.95070000  0.53683000  1.0 0.3104250222
C  C167  1  0.59760000  0.92370000  0.52607000  1.0 -0.0914273312
C  C168  1  0.89340000  0.86870000  0.47575000  1.0 -0.1470257021
C  C169  1  0.80120000  0.99080000  0.04871000  1.0 0.5726194861
C  C170  1  0.84210000  0.02920000  0.06913000  1.0 -0.0164069036
C  C171  1  0.12360000  0.93420000  0.33341000  1.0 0.5726194861
C  C172  1  0.64500000  0.75470000  0.15686000  1.0 0.6082456169
C  C173  1  0.13010000  0.98020000  0.31595000  1.0 -0.0609428627
C  C174  1  0.84740000  0.99670000  0.08749000  1.0 -0.0990911951
C  C175  1  0.07580000  0.97250000  0.30644000  1.0 -0.0824889833
C  C176  1  0.87940000  0.09900000  0.06914000  1.0 -0.1097441249
C  C177  1  0.14950000  0.06590000  0.28130000  1.0 0.0785712036
C  C178  1  0.13310000  0.23540000  0.17083000  1.0 0.3104250222
C  C179  1  0.46500000  0.56850000  0.16988000  1.0 0.0581269163
C  C180  1  0.92770000  0.10620000  0.10366000  1.0 0.0694087432
C  C181  1  0.98140000  0.14070000  0.12126000  1.0 0.0694087432
C  C182  1  0.57480000  0.68400000  0.16076000  1.0 -0.0299137836
C  C183  1  0.22610000  0.31190000  0.18343000  1.0 0.2701379838
C  C184  1  0.91930000  0.13600000  0.08563000  1.0 -0.1368506829
C  C185  1  0.07880000  0.20180000  0.15498000  1.0 0.0030702851
C  C186  1  0.08250000  0.01500000  0.28810000  1.0 -0.1781944592
C  C187  1  0.15340000  0.10570000  0.26099000  1.0 0.0581269163
C  C188  1  0.51630000  0.58800000  0.18267000  1.0 -0.1470257021
C  C189  1  0.20030000  0.07190000  0.29345000  1.0 -0.1470257021
C  C190  1  0.52230000  0.66990000  0.14667000  1.0 -0.0824889833
C  C191  1  0.19140000  0.02810000  0.31021000  1.0 -0.0914273312
C  C192  1  0.11090000  0.07750000  0.24338000  1.0 -0.1781944592
C  C193  1  0.57190000  0.64730000  0.17739000  1.0 -0.0914273312
C  C194  1  0.39920000  0.49870000  0.17323000  1.0 0.10087448
C  C195  1  0.29830000  0.40580000  0.16106000  1.0 -0.0914273312
C  C196  1  0.19940000  0.16870000  0.25907000  1.0 -0.1600371039
C  C197  1  0.46940000  0.60670000  0.15216000  1.0 -0.1976580364
C  C198  1  0.12010000  0.11210000  0.22410000  1.0 -0.205072175
C  C199  1  0.08190000  0.23230000  0.13464000  1.0 -0.130535166
C  C200  1  0.03290000  0.20100000  0.11856000  1.0 -0.1368506829
C  C201  1  0.88370000  0.03550000  0.10571000  1.0 -0.1600371039
C  C202  1  0.21220000  0.20600000  0.24063000  1.0 -0.1097441249
C  C203  1  0.02390000  0.14490000  0.15829000  1.0 -0.1470257021
C  C204  1  0.28390000  0.36870000  0.17814000  1.0 -0.0609428627
C  C205  1  0.38200000  0.46100000  0.19382000  1.0 -0.1674194204
C  C206  1  0.35770000  0.47190000  0.15537000  1.0 -0.1781944592
C  C207  1  0.17120000  0.18710000  0.22386000  1.0 -0.0075031745
C  C208  1  0.18120000  0.23050000  0.20349000  1.0 0.3104250222
C  C209  1  0.32610000  0.40240000  0.19273000  1.0 -0.0914273312
C  C210  1  0.97530000  0.10660000  0.14241000  1.0 -0.1470257021
C  C211  1  0.18960000  0.19880000  0.71538000  1.0 0.5726194861
C  C212  1  0.18710000  0.15790000  0.73580000  1.0 -0.0164069036
C  C213  1  0.81060000  0.87640000  0.00008000  1.0 0.5726194861
C  C214  1  0.10970000  0.35500000  0.82353000  1.0 0.6082456169
C  C215  1  0.85010000  0.86990000  0.98262000  1.0 -0.0609428627
C  C216  1  0.14930000  0.15260000  0.75416000  1.0 -0.0990911951
C  C217  1  0.89670000  0.92420000  0.97311000  1.0 -0.0824889833
C  C218  1  0.21960000  0.12060000  0.73581000  1.0 -0.1097441249
C  C219  1  0.91640000  0.85050000  0.94797000  1.0 0.0785712036
C  C220  1  0.10230000  0.86690000  0.83750000  1.0 0.3158481824
C  C221  1  0.10350000  0.53500000  0.83655000  1.0 0.0581269163
C  C222  1  0.17850000  0.07230000  0.77033000  1.0 0.0694087432
C  C223  1  0.15930000  0.01860000  0.78793000  1.0 0.0694087432
C  C224  1  0.10920000  0.42520000  0.82743000  1.0 -0.0299137836
C  C225  1  0.08580000  0.77390000  0.85010000  1.0 0.2701379838
C  C226  1  0.21670000  0.08070000  0.75230000  1.0 -0.1368506829
C  C227  1  0.12300000  0.92120000  0.82165000  1.0 0.0030702851
C  C228  1  0.93250000  0.91750000  0.95477000  1.0 -0.1781944592
C  C229  1  0.95230000  0.84660000  0.92766000  1.0 0.0581269163
C  C230  1  0.07170000  0.48370000  0.84934000  1.0 -0.1470257021
C  C231  1  0.87160000  0.79970000  0.96012000  1.0 -0.1470257021
C  C232  1  0.14760000  0.47770000  0.81334000  1.0 -0.0824889833
C  C233  1  0.83670000  0.80860000  0.97688000  1.0 -0.0914273312
C  C234  1  0.96660000  0.88910000  0.91005000  1.0 -0.1781944592
C  C235  1  0.07540000  0.42810000  0.84406000  1.0 -0.0914273312
C  C236  1  0.09950000  0.60080000  0.83990000  1.0 0.10087448
C  C237  1  0.10750000  0.70170000  0.82773000  1.0 -0.0914273312
C  C238  1  0.96930000  0.80060000  0.92574000  1.0 -0.1600371039
C  C239  1  0.13730000  0.53060000  0.81883000  1.0 -0.1976580364
C  C240  1  0.99200000  0.87990000  0.89077000  1.0 -0.205072175
C  C241  1  0.15040000  0.91810000  0.80131000  1.0 -0.130535166
C  C242  1  0.16810000  0.96710000  0.78523000  1.0 -0.1368506829
C  C243  1  0.15180000  0.11630000  0.77238000  1.0 -0.1600371039
C  C244  1  0.99380000  0.78780000  0.90730000  1.0 -0.1097441249
C  C245  1  0.12100000  0.97610000  0.82496000  1.0 -0.1470257021
C  C246  1  0.08480000  0.71610000  0.84481000  1.0 -0.0609428627
C  C247  1  0.07900000  0.61800000  0.86049000  1.0 -0.1674194204
C  C248  1  0.11420000  0.64230000  0.82204000  1.0 -0.1781944592
C  C249  1  0.01590000  0.82880000  0.89053000  1.0 -0.0075031745
C  C250  1  0.04930000  0.81880000  0.87016000  1.0 0.3104250222
C  C251  1  0.07630000  0.67390000  0.85940000  1.0 -0.0914273312
C  C252  1  0.13130000  0.02470000  0.80908000  1.0 -0.1470257021
C  C253  1  0.80120000  0.81040000  0.11795000  1.0 0.5726194861
C  C254  1  0.84210000  0.81290000  0.09753000  1.0 -0.0164069036
C  C255  1  0.12360000  0.18940000  0.83325000  1.0 0.5726194861
C  C256  1  0.64500000  0.89030000  0.00980000  1.0 0.6082456169
C  C257  1  0.13010000  0.14990000  0.85071000  1.0 -0.0609428627
C  C258  1  0.84740000  0.85070000  0.07917000  1.0 -0.0990911951
C  C259  1  0.07580000  0.10330000  0.86022000  1.0 -0.0824889833
C  C260  1  0.87940000  0.78040000  0.09752000  1.0 -0.1097441249
C  C261  1  0.14950000  0.08360000  0.88536000  1.0 0.0785712036
C  C262  1  0.13310000  0.89770000  0.99583000  1.0 0.3104250222
C  C263  1  0.46500000  0.89650000  0.99678000  1.0 0.0581269163
C  C264  1  0.92770000  0.82150000  0.06300000  1.0 0.0694087432
C  C265  1  0.98140000  0.84070000  0.04540000  1.0 0.0694087432
C  C266  1  0.57480000  0.89080000  0.00590000  1.0 -0.0299137836
C  C267  1  0.22610000  0.91420000  0.98323000  1.0 0.2701379838
C  C268  1  0.91930000  0.78330000  0.08103000  1.0 -0.1368506829
C  C269  1  0.07880000  0.87700000  0.01168000  1.0 0.0030702851
C  C270  1  0.08250000  0.06750000  0.87856000  1.0 -0.1781944592
C  C271  1  0.15340000  0.04770000  0.90567000  1.0 0.0581269163
C  C272  1  0.51630000  0.92830000  0.98399000  1.0 -0.1470257021
C  C273  1  0.20030000  0.12840000  0.87321000  1.0 -0.1470257021
C  C274  1  0.52230000  0.85240000  0.01999000  1.0 -0.0824889833
C  C275  1  0.19140000  0.16330000  0.85645000  1.0 -0.0914273312
C  C276  1  0.11090000  0.03340000  0.92328000  1.0 -0.1781944592
C  C277  1  0.57190000  0.92460000  0.98927000  1.0 -0.0914273312
C  C278  1  0.39920000  0.90050000  0.99343000  1.0 0.10087448
C  C279  1  0.29830000  0.89250000  0.00560000  1.0 -0.0914273312
C  C280  1  0.19940000  0.03070000  0.90759000  1.0 -0.1600371039
C  C281  1  0.46940000  0.86270000  0.01450000  1.0 -0.1976580364
C  C282  1  0.12010000  0.00800000  0.94256000  1.0 -0.205072175
C  C283  1  0.08190000  0.84960000  0.03202000  1.0 -0.130535166
C  C284  1  0.03290000  0.83190000  0.04810000  1.0 -0.1368506829
C  C285  1  0.88370000  0.84820000  0.06095000  1.0 -0.1600371039
C  C286  1  0.21220000  0.00620000  0.92603000  1.0 -0.1097441249
C  C287  1  0.02390000  0.87900000  0.00837000  1.0 -0.1470257021
C  C288  1  0.28390000  0.91520000  0.98852000  1.0 -0.0609428627
C  C289  1  0.38200000  0.92100000  0.97284000  1.0 -0.1674194204
C  C290  1  0.35770000  0.88580000  0.01129000  1.0 -0.1781944592
C  C291  1  0.17120000  0.98410000  0.94280000  1.0 -0.0075031745
C  C292  1  0.18120000  0.95070000  0.96317000  1.0 0.3104250222
C  C293  1  0.32610000  0.92370000  0.97393000  1.0 -0.0914273312
C  C294  1  0.97530000  0.86870000  0.02425000  1.0 -0.1470257021
C  C295  1  0.18960000  0.99080000  0.45129000  1.0 0.5726194861
C  C296  1  0.18710000  0.02920000  0.43087000  1.0 -0.0164069036
C  C297  1  0.81060000  0.93420000  0.16659000  1.0 0.5726194861
C  C298  1  0.10970000  0.75470000  0.34314000  1.0 0.6082456169
C  C299  1  0.85010000  0.98020000  0.18405000  1.0 -0.0609428627
C  C300  1  0.14930000  0.99670000  0.41251000  1.0 -0.0990911951
C  C301  1  0.89670000  0.97250000  0.19356000  1.0 -0.0824889833
C  C302  1  0.21960000  0.09900000  0.43086000  1.0 -0.1097441249
C  C303  1  0.91640000  0.06590000  0.21870000  1.0 0.0785712036
C  C304  1  0.10230000  0.23540000  0.32917000  1.0 0.3104250222
C  C305  1  0.10350000  0.56850000  0.33012000  1.0 0.0581269163
C  C306  1  0.17850000  0.10620000  0.39634000  1.0 0.0694087432
C  C307  1  0.15930000  0.14070000  0.37874000  1.0 0.0694087432
C  C308  1  0.10920000  0.68400000  0.33924000  1.0 -0.0299137836
C  C309  1  0.08580000  0.31190000  0.31657000  1.0 0.2701379838
C  C310  1  0.21670000  0.13600000  0.41437000  1.0 -0.1368506829
C  C311  1  0.12300000  0.20180000  0.34502000  1.0 0.0030702851
C  C312  1  0.93250000  0.01500000  0.21190000  1.0 -0.1781944592
C  C313  1  0.95230000  0.10570000  0.23901000  1.0 0.0581269163
C  C314  1  0.07170000  0.58800000  0.31733000  1.0 -0.1470257021
C  C315  1  0.87160000  0.07190000  0.20655000  1.0 -0.1470257021
C  C316  1  0.14760000  0.66990000  0.35333000  1.0 -0.0824889833
C  C317  1  0.83670000  0.02810000  0.18979000  1.0 -0.0824889833
C  C318  1  0.96660000  0.07750000  0.25662000  1.0 -0.1781944592
C  C319  1  0.07540000  0.64730000  0.32261000  1.0 -0.0914273312
C  C320  1  0.09950000  0.49870000  0.32677000  1.0 0.10087448
C  C321  1  0.10750000  0.40580000  0.33894000  1.0 -0.0914273312
C  C322  1  0.96930000  0.16870000  0.24093000  1.0 -0.1600371039
C  C323  1  0.13730000  0.60670000  0.34784000  1.0 -0.1976580364
C  C324  1  0.99200000  0.11210000  0.27590000  1.0 -0.205072175
C  C325  1  0.15040000  0.23230000  0.36536000  1.0 -0.130535166
C  C326  1  0.16810000  0.20100000  0.38144000  1.0 -0.1368506829
C  C327  1  0.15180000  0.03550000  0.39429000  1.0 -0.1600371039
C  C328  1  0.99380000  0.20600000  0.25937000  1.0 -0.1097441249
C  C329  1  0.12100000  0.14490000  0.34171000  1.0 -0.1470257021
C  C330  1  0.08480000  0.36870000  0.32186000  1.0 -0.0609428627
C  C331  1  0.07900000  0.46100000  0.30618000  1.0 -0.1674194204
C  C332  1  0.11420000  0.47190000  0.34463000  1.0 -0.1781944592
C  C333  1  0.01590000  0.18710000  0.27614000  1.0 -0.0075031745
C  C334  1  0.04930000  0.23050000  0.29651000  1.0 0.3104250222
C  C335  1  0.07630000  0.40240000  0.30727000  1.0 -0.0914273312
C  C336  1  0.13130000  0.10660000  0.35759000  1.0 -0.1470257021
C  C337  1  0.00920000  0.19880000  0.78462000  1.0 0.5726194861
C  C338  1  0.97080000  0.15790000  0.76420000  1.0 -0.0164069036
C  C339  1  0.06580000  0.87640000  0.49992000  1.0 0.5726194861
C  C340  1  0.24530000  0.35500000  0.67647000  1.0 0.6082456169
C  C341  1  0.01980000  0.86990000  0.51738000  1.0 -0.0609428627
C  C342  1  0.00330000  0.15260000  0.74584000  1.0 -0.0990911951
C  C343  1  0.02750000  0.92420000  0.52689000  1.0 -0.0824889833
C  C344  1  0.90100000  0.12060000  0.76419000  1.0 -0.1097441249
C  C345  1  0.93410000  0.85050000  0.55203000  1.0 0.0785712036
C  C346  1  0.76460000  0.86690000  0.66250000  1.0 0.3158481824
C  C347  1  0.43150000  0.53500000  0.66345000  1.0 0.0581269163
C  C348  1  0.89380000  0.07230000  0.72967000  1.0 0.0694087432
C  C349  1  0.85930000  0.01860000  0.71207000  1.0 0.0694087432
C  C350  1  0.31600000  0.42520000  0.67257000  1.0 -0.0299137836
C  C351  1  0.68810000  0.77390000  0.64990000  1.0 0.2701379838
C  C352  1  0.86400000  0.08070000  0.74770000  1.0 -0.1368506829
C  C353  1  0.79820000  0.92120000  0.67835000  1.0 0.0030702851
C  C354  1  0.98500000  0.91750000  0.54523000  1.0 -0.1781944592
C  C355  1  0.89430000  0.84660000  0.57234000  1.0 0.0581269163
C  C356  1  0.41200000  0.48370000  0.65066000  1.0 -0.1470257021
C  C357  1  0.92810000  0.79970000  0.53988000  1.0 -0.1470257021
C  C358  1  0.33010000  0.47770000  0.68666000  1.0 -0.0824889833
C  C359  1  0.97190000  0.80860000  0.52312000  1.0 -0.0824889833
C  C360  1  0.92250000  0.88910000  0.58995000  1.0 -0.1781944592
C  C361  1  0.35270000  0.42810000  0.65594000  1.0 -0.0914273312
C  C362  1  0.50130000  0.60080000  0.66010000  1.0 0.10087448
C  C363  1  0.59420000  0.70170000  0.67227000  1.0 -0.0914273312
C  C364  1  0.83130000  0.80060000  0.57426000  1.0 -0.1600371039
C  C365  1  0.39330000  0.53060000  0.68117000  1.0 -0.1976580364
C  C366  1  0.88790000  0.87990000  0.60923000  1.0 -0.205072175
C  C367  1  0.76770000  0.91810000  0.69869000  1.0 -0.130535166
C  C368  1  0.79900000  0.96710000  0.71477000  1.0 -0.1368506829
C  C369  1  0.96450000  0.11630000  0.72762000  1.0 -0.1600371039
C  C370  1  0.79400000  0.78780000  0.59270000  1.0 -0.1097441249
C  C371  1  0.85510000  0.97610000  0.67504000  1.0 -0.1470257021
C  C372  1  0.63130000  0.71610000  0.65519000  1.0 -0.0609428627
C  C373  1  0.53900000  0.61800000  0.63951000  1.0 -0.1674194204
C  C374  1  0.52810000  0.64230000  0.67796000  1.0 -0.1781944592
C  C375  1  0.81290000  0.82880000  0.60947000  1.0 -0.0075031745
C  C376  1  0.76950000  0.81880000  0.62984000  1.0 0.3104250222
C  C377  1  0.59760000  0.67390000  0.64060000  1.0 -0.0914273312
C  C378  1  0.89340000  0.02470000  0.69092000  1.0 -0.1470257021
C  C379  1  0.19880000  0.18960000  0.61795000  1.0 0.5726194861
C  C380  1  0.15790000  0.18710000  0.59753000  1.0 -0.0164069036
C  C381  1  0.87640000  0.81060000  0.33325000  1.0 0.5726194861
C  C382  1  0.35500000  0.10970000  0.50980000  1.0 0.6082456169
C  C383  1  0.86990000  0.85010000  0.35071000  1.0 -0.0609428627
C  C384  1  0.15260000  0.14930000  0.57917000  1.0 -0.0990911951
C  C385  1  0.92420000  0.89670000  0.36022000  1.0 -0.0824889833
C  C386  1  0.12060000  0.21960000  0.59752000  1.0 -0.1097441249
C  C387  1  0.85050000  0.91640000  0.38536000  1.0 0.0785712036
C  C388  1  0.86690000  0.10230000  0.49583000  1.0 0.3158481824
C  C389  1  0.53500000  0.10350000  0.49678000  1.0 0.0581269163
C  C390  1  0.07230000  0.17850000  0.56300000  1.0 0.0694087432
C  C391  1  0.01860000  0.15930000  0.54540000  1.0 0.0694087432
C  C392  1  0.42520000  0.10920000  0.50590000  1.0 -0.0299137836
C  C393  1  0.77390000  0.08580000  0.48323000  1.0 0.2701379838
C  C394  1  0.08070000  0.21670000  0.58103000  1.0 -0.1368506829
C  C395  1  0.92120000  0.12300000  0.51168000  1.0 0.0030702851
C  C396  1  0.91750000  0.93250000  0.37856000  1.0 -0.1781944592
C  C397  1  0.84660000  0.95230000  0.40567000  1.0 0.0581269163
C  C398  1  0.48370000  0.07170000  0.48399000  1.0 -0.1470257021
C  C399  1  0.79970000  0.87160000  0.37321000  1.0 -0.1470257021
C  C400  1  0.47770000  0.14760000  0.51999000  1.0 -0.0824889833
C  C401  1  0.80860000  0.83670000  0.35645000  1.0 -0.0824889833
C  C402  1  0.88910000  0.96660000  0.42328000  1.0 -0.1781944592
C  C403  1  0.42810000  0.07540000  0.48927000  1.0 -0.0914273312
C  C404  1  0.60080000  0.09950000  0.49343000  1.0 0.10087448
C  C405  1  0.70170000  0.10750000  0.50560000  1.0 -0.0914273312
C  C406  1  0.80060000  0.96930000  0.40759000  1.0 -0.1600371039
C  C407  1  0.53060000  0.13730000  0.51450000  1.0 -0.1976580364
C  C408  1  0.87990000  0.99200000  0.44256000  1.0 -0.205072175
C  C409  1  0.91810000  0.15040000  0.53202000  1.0 -0.130535166
C  C410  1  0.96710000  0.16810000  0.54810000  1.0 -0.1368506829
C  C411  1  0.11630000  0.15180000  0.56095000  1.0 -0.1600371039
C  C412  1  0.78780000  0.99380000  0.42603000  1.0 -0.1097441249
C  C413  1  0.97610000  0.12100000  0.50837000  1.0 -0.1470257021
C  C414  1  0.71610000  0.08480000  0.48852000  1.0 -0.0609428627
C  C415  1  0.61800000  0.07900000  0.47284000  1.0 -0.1674194204
C  C416  1  0.64230000  0.11420000  0.51129000  1.0 -0.1781944592
C  C417  1  0.82880000  0.01590000  0.44280000  1.0 -0.0075031745
C  C418  1  0.81880000  0.04930000  0.46317000  1.0 0.3104250222
C  C419  1  0.67390000  0.07630000  0.47393000  1.0 -0.0914273312
C  C420  1  0.02470000  0.13130000  0.52425000  1.0 -0.1470257021
C  C421  1  0.81040000  0.00920000  0.95129000  1.0 0.5726194861
C  C422  1  0.81290000  0.97080000  0.93087000  1.0 -0.0164069036
C  C423  1  0.18940000  0.06580000  0.66659000  1.0 0.5726194861
C  C424  1  0.89030000  0.24530000  0.84314000  1.0 0.6082456169
C  C425  1  0.14990000  0.01980000  0.68405000  1.0 -0.0609428627
C  C426  1  0.85070000  0.00330000  0.91251000  1.0 -0.0990911951
C  C427  1  0.10330000  0.02750000  0.69356000  1.0 -0.0824889833
C  C428  1  0.78040000  0.90100000  0.93086000  1.0 -0.1097441249
C  C429  1  0.08360000  0.93410000  0.71870000  1.0 0.0785712036
C  C430  1  0.89770000  0.76460000  0.82917000  1.0 0.3158481824
C  C431  1  0.89650000  0.43150000  0.83012000  1.0 0.0581269163
C  C432  1  0.82150000  0.89380000  0.89634000  1.0 0.0694087432
C  C433  1  0.84070000  0.85930000  0.87874000  1.0 0.0694087432
C  C434  1  0.89080000  0.31600000  0.83924000  1.0 -0.0299137836
C  C435  1  0.91420000  0.68810000  0.81657000  1.0 0.2701379838
C  C436  1  0.78330000  0.86400000  0.91437000  1.0 -0.1368506829
C  C437  1  0.87700000  0.79820000  0.84502000  1.0 0.0030702851
C  C438  1  0.06750000  0.98500000  0.71190000  1.0 -0.1781944592
C  C439  1  0.04770000  0.89430000  0.73901000  1.0 0.0581269163
C  C440  1  0.92830000  0.41200000  0.81733000  1.0 -0.1470257021
C  C441  1  0.12840000  0.92810000  0.70655000  1.0 -0.1470257021
C  C442  1  0.85240000  0.33010000  0.85333000  1.0 -0.0824889833
C  C443  1  0.16330000  0.97190000  0.68979000  1.0 -0.0914273312
C  C444  1  0.03340000  0.92250000  0.75662000  1.0 -0.1781944592
C  C445  1  0.92460000  0.35270000  0.82261000  1.0 -0.0914273312
C  C446  1  0.90050000  0.50130000  0.82677000  1.0 0.10087448
C  C447  1  0.89250000  0.59420000  0.83894000  1.0 -0.0914273312
C  C448  1  0.03070000  0.83130000  0.74093000  1.0 -0.1600371039
C  C449  1  0.86270000  0.39330000  0.84784000  1.0 -0.1976580364
C  C450  1  0.00800000  0.88790000  0.77590000  1.0 -0.205072175
C  C451  1  0.84960000  0.76770000  0.86536000  1.0 -0.130535166
C  C452  1  0.83190000  0.79900000  0.88144000  1.0 -0.1368506829
C  C453  1  0.84820000  0.96450000  0.89429000  1.0 -0.1600371039
C  C454  1  0.00620000  0.79400000  0.75937000  1.0 -0.1097441249
C  C455  1  0.87900000  0.85510000  0.84171000  1.0 -0.1470257021
C  C456  1  0.91520000  0.63130000  0.82186000  1.0 -0.0609428627
C  C457  1  0.92100000  0.53900000  0.80618000  1.0 -0.1674194204
C  C458  1  0.88580000  0.52810000  0.84463000  1.0 -0.1781944592
C  C459  1  0.98410000  0.81290000  0.77614000  1.0 -0.0075031745
C  C460  1  0.95070000  0.76950000  0.79651000  1.0 0.3104250222
C  C461  1  0.92370000  0.59760000  0.80727000  1.0 -0.0914273312
C  C462  1  0.86870000  0.89340000  0.85759000  1.0 -0.1470257021
C  C463  1  0.99080000  0.80120000  0.28462000  1.0 0.5726194861
C  C464  1  0.02920000  0.84210000  0.26420000  1.0 -0.0164069036
C  C465  1  0.93420000  0.12360000  0.99992000  1.0 0.5726194861
C  C466  1  0.75470000  0.64500000  0.17647000  1.0 0.6082456169
C  C467  1  0.98020000  0.13010000  0.01738000  1.0 -0.0609428627
C  C468  1  0.99670000  0.84740000  0.24584000  1.0 -0.0990911951
C  C469  1  0.97250000  0.07580000  0.02689000  1.0 -0.0824889833
C  C470  1  0.09900000  0.87940000  0.26419000  1.0 -0.1097441249
C  C471  1  0.06590000  0.14950000  0.05203000  1.0 0.0785712036
C  C472  1  0.23540000  0.13310000  0.16250000  1.0 0.3104250222
C  C473  1  0.56850000  0.46500000  0.16345000  1.0 0.0581269163
C  C474  1  0.10620000  0.92770000  0.22967000  1.0 0.0694087432
C  C475  1  0.14070000  0.98140000  0.21207000  1.0 0.0694087432
C  C476  1  0.68400000  0.57480000  0.17257000  1.0 -0.0299137836
C  C477  1  0.31190000  0.22610000  0.14990000  1.0 0.2701379838
C  C478  1  0.13600000  0.91930000  0.24770000  1.0 -0.1368506829
C  C479  1  0.20180000  0.07880000  0.17835000  1.0 0.0030702851
C  C480  1  0.01500000  0.08250000  0.04523000  1.0 -0.1781944592
C  C481  1  0.10570000  0.15340000  0.07234000  1.0 0.0581269163
C  C482  1  0.58800000  0.51630000  0.15066000  1.0 -0.1470257021
C  C483  1  0.07190000  0.20030000  0.03988000  1.0 -0.1470257021
C  C484  1  0.66990000  0.52230000  0.18666000  1.0 -0.0824889833
C  C485  1  0.02810000  0.19140000  0.02312000  1.0 -0.0824889833
C  C486  1  0.07750000  0.11090000  0.08995000  1.0 -0.1781944592
C  C487  1  0.64730000  0.57190000  0.15594000  1.0 -0.0914273312
C  C488  1  0.49870000  0.39920000  0.16010000  1.0 0.10087448
C  C489  1  0.40580000  0.29830000  0.17227000  1.0 -0.0914273312
C  C490  1  0.16870000  0.19940000  0.07426000  1.0 -0.1600371039
C  C491  1  0.60670000  0.46940000  0.18117000  1.0 -0.1976580364
C  C492  1  0.11210000  0.12010000  0.10923000  1.0 -0.205072175
C  C493  1  0.23230000  0.08190000  0.19869000  1.0 -0.130535166
C  C494  1  0.20100000  0.03290000  0.21477000  1.0 -0.1368506829
C  C495  1  0.03550000  0.88370000  0.22762000  1.0 -0.1600371039
C  C496  1  0.20600000  0.21220000  0.09270000  1.0 -0.1097441249
C  C497  1  0.14490000  0.02390000  0.17504000  1.0 -0.1470257021
C  C498  1  0.36870000  0.28390000  0.15519000  1.0 -0.0609428627
C  C499  1  0.46100000  0.38200000  0.13951000  1.0 -0.1674194204
C  C500  1  0.47190000  0.35770000  0.17796000  1.0 -0.1781944592
C  C501  1  0.18710000  0.17120000  0.10947000  1.0 -0.0075031745
C  C502  1  0.23050000  0.18120000  0.12984000  1.0 0.3104250222
C  C503  1  0.40240000  0.32610000  0.14060000  1.0 -0.0914273312
C  C504  1  0.10660000  0.97530000  0.19092000  1.0 -0.1470257021
N  N1  1  0.19920000  0.07270000  0.02287000  1.0 -0.4232222093
N  N2  1  0.29380000  0.10890000  0.00095000  1.0 -0.340843041
N  N3  1  0.28460000  0.05730000  0.03561000  1.0 -0.340843041
N  N4  1  0.87350000  0.80080000  0.68953000  1.0 -0.4232222093
N  N5  1  0.81510000  0.70620000  0.66761000  1.0 -0.340843041
N  N6  1  0.77270000  0.71540000  0.70227000  1.0 -0.340843041
N  N7  1  0.92730000  0.12650000  0.35620000  1.0 -0.4232222093
N  N8  1  0.89110000  0.18490000  0.33428000  1.0 -0.340843041
N  N9  1  0.94270000  0.22730000  0.36894000  1.0 -0.340843041
N  N10  1  0.80080000  0.92730000  0.52287000  1.0 -0.4232222093
N  N11  1  0.70620000  0.89110000  0.50095000  1.0 -0.340843041
N  N12  1  0.71540000  0.94270000  0.53561000  1.0 -0.340843041
N  N13  1  0.12650000  0.19920000  0.18953000  1.0 -0.4232222093
N  N14  1  0.18490000  0.29380000  0.16761000  1.0 -0.340843041
N  N15  1  0.22730000  0.28460000  0.20227000  1.0 -0.340843041
N  N16  1  0.07270000  0.87350000  0.85620000  1.0 -0.4232222093
N  N17  1  0.10890000  0.81510000  0.83428000  1.0 -0.340843041
N  N18  1  0.05730000  0.77270000  0.86894000  1.0 -0.340843041
N  N19  1  0.12650000  0.92730000  0.97713000  1.0 -0.4255786729
N  N20  1  0.18490000  0.89110000  0.99905000  1.0 -0.340843041
N  N21  1  0.22730000  0.94270000  0.96439000  1.0 -0.340843041
N  N22  1  0.07270000  0.19920000  0.31047000  1.0 -0.4232222093
N  N23  1  0.10890000  0.29380000  0.33239000  1.0 -0.340843041
N  N24  1  0.05730000  0.28460000  0.29773000  1.0 -0.340843041
N  N25  1  0.80080000  0.87350000  0.64380000  1.0 -0.4232222093
N  N26  1  0.70620000  0.81510000  0.66572000  1.0 -0.340843041
N  N27  1  0.71540000  0.77270000  0.63106000  1.0 -0.340843041
N  N28  1  0.87350000  0.07270000  0.47713000  1.0 -0.4232222093
N  N29  1  0.81510000  0.10890000  0.49905000  1.0 -0.340843041
N  N30  1  0.77270000  0.05730000  0.46439000  1.0 -0.340843041
N  N31  1  0.92730000  0.80080000  0.81047000  1.0 -0.4232222093
N  N32  1  0.89110000  0.70620000  0.83239000  1.0 -0.340843041
N  N33  1  0.94270000  0.71540000  0.79773000  1.0 -0.340843041
N  N34  1  0.19920000  0.12650000  0.14380000  1.0 -0.4255786729
N  N35  1  0.29380000  0.18490000  0.16572000  1.0 -0.340843041
N  N36  1  0.28460000  0.22730000  0.13106000  1.0 -0.340843041
O  O1  1  0.92550000  0.15130000  0.88698000  1.0 -0.5983413401
O  O2  1  0.01770000  0.21900000  0.86609000  1.0 -0.45248792
O  O3  1  0.88940000  0.82150000  0.17250000  1.0 -0.5435967041
O  O4  1  0.79050000  0.15110000  0.97389000  1.0 -0.5879567308
O  O5  1  0.94300000  0.76970000  0.17592000  1.0 -0.4735804168
O  O6  1  0.76850000  0.07200000  0.99990000  1.0 -0.5340980631
O  O7  1  0.22580000  0.07450000  0.55364000  1.0 -0.5983413401
O  O8  1  0.20130000  0.98230000  0.53275000  1.0 -0.45248792
O  O9  1  0.93210000  0.11060000  0.83916000  1.0 -0.5435967041
O  O10  1  0.36060000  0.20950000  0.64055000  1.0 -0.5879567308
O  O11  1  0.82670000  0.05700000  0.84258000  1.0 -0.4735804168
O  O12  1  0.30350000  0.23150000  0.66656000  1.0 -0.5340980631
O  O13  1  0.84870000  0.77420000  0.22031000  1.0 -0.5983413401
O  O14  1  0.78100000  0.79870000  0.19942000  1.0 -0.45248792
O  O15  1  0.17850000  0.06790000  0.50583000  1.0 -0.5435967041
O  O16  1  0.84890000  0.63940000  0.30722000  1.0 -0.5879567308
O  O17  1  0.23030000  0.17330000  0.50925000  1.0 -0.4735804168
O  O18  1  0.92800000  0.69650000  0.33323000  1.0 -0.5340980631
O  O19  1  0.07450000  0.84870000  0.38698000  1.0 -0.5983413401
O  O20  1  0.98230000  0.78100000  0.36609000  1.0 -0.45248792
O  O21  1  0.11060000  0.17850000  0.67250000  1.0 -0.5435967041
O  O22  1  0.20950000  0.84890000  0.47389000  1.0 -0.5879567308
O  O23  1  0.05700000  0.23030000  0.67592000  1.0 -0.4735804168
O  O24  1  0.23150000  0.92800000  0.49990000  1.0 -0.5340980631
O  O25  1  0.77420000  0.92550000  0.05364000  1.0 -0.5983413401
O  O26  1  0.79870000  0.01770000  0.03275000  1.0 -0.45248792
O  O27  1  0.06790000  0.88940000  0.33916000  1.0 -0.5435967041
O  O28  1  0.63940000  0.79050000  0.14055000  1.0 -0.5879567308
O  O29  1  0.17330000  0.94300000  0.34258000  1.0 -0.4735804168
O  O30  1  0.69650000  0.76850000  0.16656000  1.0 -0.5340980631
O  O31  1  0.15130000  0.22580000  0.72031000  1.0 -0.5983413401
O  O32  1  0.21900000  0.20130000  0.69942000  1.0 -0.45248792
O  O33  1  0.82150000  0.93210000  0.00583000  1.0 -0.5435967041
O  O34  1  0.15110000  0.36060000  0.80722000  1.0 -0.5879567308
O  O35  1  0.76970000  0.82670000  0.00925000  1.0 -0.4735804168
O  O36  1  0.07200000  0.30350000  0.83323000  1.0 -0.5340980631
O  O37  1  0.77420000  0.84870000  0.11302000  1.0 -0.5983413401
O  O38  1  0.79870000  0.78100000  0.13391000  1.0 -0.45248792
O  O39  1  0.06790000  0.17850000  0.82750000  1.0 -0.5435967041
O  O40  1  0.63940000  0.84890000  0.02611000  1.0 -0.5879567308
O  O41  1  0.17330000  0.23030000  0.82408000  1.0 -0.4735804168
O  O42  1  0.69650000  0.92800000  0.00010000  1.0 -0.5340980631
O  O43  1  0.15130000  0.92550000  0.44636000  1.0 -0.5983413401
O  O44  1  0.21900000  0.01770000  0.46725000  1.0 -0.45248792
O  O45  1  0.82150000  0.88940000  0.16084000  1.0 -0.5435967041
O  O46  1  0.15110000  0.79050000  0.35945000  1.0 -0.5879567308
O  O47  1  0.76970000  0.94300000  0.15742000  1.0 -0.4735804168
O  O48  1  0.07200000  0.76850000  0.33344000  1.0 -0.5340980631
O  O49  1  0.07450000  0.22580000  0.77969000  1.0 -0.5983413401
O  O50  1  0.98230000  0.20130000  0.80058000  1.0 -0.45248792
O  O51  1  0.11060000  0.93210000  0.49417000  1.0 -0.5435967041
O  O52  1  0.20950000  0.36060000  0.69278000  1.0 -0.5879567308
O  O53  1  0.05700000  0.82670000  0.49075000  1.0 -0.4735804168
O  O54  1  0.23150000  0.30350000  0.66677000  1.0 -0.5340980631
O  O55  1  0.22580000  0.15130000  0.61302000  1.0 -0.5983413401
O  O56  1  0.20130000  0.21900000  0.63391000  1.0 -0.45248792
O  O57  1  0.93210000  0.82150000  0.32750000  1.0 -0.5435967041
O  O58  1  0.36060000  0.15110000  0.52611000  1.0 -0.5879567308
O  O59  1  0.82670000  0.76970000  0.32408000  1.0 -0.4735804168
O  O60  1  0.30350000  0.07200000  0.50010000  1.0 -0.5340980631
O  O61  1  0.84870000  0.07450000  0.94636000  1.0 -0.5983413401
O  O62  1  0.78100000  0.98230000  0.96725000  1.0 -0.45248792
O  O63  1  0.17850000  0.11060000  0.66084000  1.0 -0.5435967041
O  O64  1  0.84890000  0.20950000  0.85945000  1.0 -0.5879567308
O  O65  1  0.23030000  0.05700000  0.65742000  1.0 -0.4735804168
O  O66  1  0.92800000  0.23150000  0.83344000  1.0 -0.5340980631
O  O67  1  0.92550000  0.77420000  0.27969000  1.0 -0.5983413401
O  O68  1  0.01770000  0.79870000  0.30058000  1.0 -0.45248792
O  O69  1  0.88940000  0.06790000  0.99417000  1.0 -0.5435967041
O  O70  1  0.79050000  0.63940000  0.19278000  1.0 -0.5879567308
O  O71  1  0.94300000  0.17330000  0.99075000  1.0 -0.4735804168
O  O72  1  0.76850000  0.69650000  0.16677000  1.0 -0.5340980631
