# DDEC6 charges by PACMAN v1.1 (https://github.com/mtap-research/PACMAN-charge/)
data_RITGIM_ASR_pacman
_symmetry_space_group_name_H-M   'P 1'
_cell_length_a   6.90410000
_cell_length_b   18.74250000
_cell_length_c   22.41910000
_cell_angle_alpha   90.00000000
_cell_angle_beta   97.68700000
_cell_angle_gamma   90.00000000
_symmetry_Int_Tables_number   1
_chemical_formula_structural   Ag6H12C22O13F6
_chemical_formula_sum   'Ag24 H48 C88 O52 F24'
_cell_volume   2874.96373081
_cell_formula_units_Z   4
loop_
 _symmetry_equiv_pos_site_id
 _symmetry_equiv_pos_as_xyz
  1  'x, y, z'
loop_
 _atom_site_type_symbol
 _atom_site_label
 _atom_site_symmetry_multiplicity
 _atom_site_fract_x
 _atom_site_fract_y
 _atom_site_fract_z
 _atom_site_occupancy
 _atom_site_charge
Ag  Ag1  1  0.84383000  0.86261000  0.57825000  1.0 0.4796654245
Ag  Ag2  1  0.15617000  0.13739000  0.42175000  1.0 0.4796654245
Ag  Ag3  1  0.65617000  0.36261000  0.92175000  1.0 0.4796654245
Ag  Ag4  1  0.34383000  0.63739000  0.07825000  1.0 0.4796654245
Ag  Ag5  1  0.56933000  0.94756000  0.64514000  1.0 0.4690771213
Ag  Ag6  1  0.43067000  0.05244000  0.35486000  1.0 0.4690771213
Ag  Ag7  1  0.93067000  0.44756000  0.85486000  1.0 0.4690771213
Ag  Ag8  1  0.06933000  0.55244000  0.14514000  1.0 0.4690771213
Ag  Ag9  1  0.46758000  0.92752000  0.50753000  1.0 0.4109562958
Ag  Ag10  1  0.53242000  0.07248000  0.49247000  1.0 0.4109562958
Ag  Ag11  1  0.03243000  0.42752000  0.99248000  1.0 0.4109562958
Ag  Ag12  1  0.96757000  0.57248000  0.00752000  1.0 0.4109562958
Ag  Ag13  1  0.12883000  0.97737000  0.55704000  1.0 0.3796179405
Ag  Ag14  1  0.87117000  0.02263000  0.44296000  1.0 0.3904897548
Ag  Ag15  1  0.37117000  0.47737000  0.94297000  1.0 0.3796179405
Ag  Ag16  1  0.62883000  0.52263000  0.05703000  1.0 0.3796179405
Ag  Ag17  1  0.91303000  0.13006000  0.54539000  1.0 0.4796654245
Ag  Ag18  1  0.08697000  0.86994000  0.45461000  1.0 0.4796654245
Ag  Ag19  1  0.58696000  0.63006000  0.95461000  1.0 0.4796654245
Ag  Ag20  1  0.41304000  0.36994000  0.04539000  1.0 0.4796654245
Ag  Ag21  1  0.90877000  0.03335000  0.66602000  1.0 0.5024380645
Ag  Ag22  1  0.09123000  0.96665000  0.33398000  1.0 0.5024380645
Ag  Ag23  1  0.59123000  0.53335000  0.83398000  1.0 0.5024380645
Ag  Ag24  1  0.40877000  0.46665000  0.16602000  1.0 0.5024380645
H  H1  1  0.53432000  0.87233000  0.26599000  1.0 0.1109667931
H  H2  1  0.46568000  0.12767000  0.73401000  1.0 0.1109667931
H  H3  1  0.96568000  0.37233000  0.23401000  1.0 0.1109667931
H  H4  1  0.03432000  0.62767000  0.76599000  1.0 0.1109667931
H  H5  1  0.30758000  0.66066000  0.29188000  1.0 0.0992156638
H  H6  1  0.69242000  0.33934000  0.70812000  1.0 0.0992156638
H  H7  1  0.19242000  0.16066000  0.20812000  1.0 0.0992156638
H  H8  1  0.80758000  0.83934000  0.79188000  1.0 0.0992156638
H  H9  1  0.37015000  0.67969000  0.40415000  1.0 0.1109667931
H  H10  1  0.62985000  0.32031000  0.59585000  1.0 0.1109667931
H  H11  1  0.12985000  0.17969000  0.09585000  1.0 0.1109667931
H  H12  1  0.87015000  0.82031000  0.90415000  1.0 0.1109667931
H  H13  1  0.52755000  0.79236000  0.44525000  1.0 0.1109667931
H  H14  1  0.47245000  0.20764000  0.55475000  1.0 0.1109667931
H  H15  1  0.97245000  0.29236000  0.05475000  1.0 0.1109667931
H  H16  1  0.02755000  0.70764000  0.94525000  1.0 0.1109667931
H  H17  1  0.34944000  0.68073000  0.55833000  1.0 0.1109667931
H  H18  1  0.65056000  0.31927000  0.44167000  1.0 0.1109667931
H  H19  1  0.15056000  0.18073000  0.94167000  1.0 0.1109667931
H  H20  1  0.84944000  0.81927000  0.05833000  1.0 0.1109667931
H  H21  1  0.36842000  0.57138000  0.62380000  1.0 0.1109667931
H  H22  1  0.63158000  0.42862000  0.37620000  1.0 0.1109667931
H  H23  1  0.13158000  0.07138000  0.87620000  1.0 0.1109667931
H  H24  1  0.86842000  0.92862000  0.12380000  1.0 0.1109667931
H  H25  1  0.40681000  0.58419000  0.73555000  1.0 0.0992156638
H  H26  1  0.59319000  0.41581000  0.26445000  1.0 0.0992156638
H  H27  1  0.09319000  0.08419000  0.76445000  1.0 0.0992156638
H  H28  1  0.90681000  0.91581000  0.23555000  1.0 0.0992156638
H  H29  1  0.38666000  0.81464000  0.71484000  1.0 0.1109667931
H  H30  1  0.61334000  0.18536000  0.28516000  1.0 0.1109667931
H  H31  1  0.11334000  0.31464000  0.78516000  1.0 0.1109667931
H  H32  1  0.88666000  0.68536000  0.21484000  1.0 0.1109667931
H  H33  1  0.33805000  0.85176000  0.18891000  1.0 0.3796179405
H  H34  1  0.66195000  0.14824000  0.81109000  1.0 0.3796179405
H  H35  1  0.16195000  0.35176000  0.31109000  1.0 0.3796179405
H  H36  1  0.83805000  0.64824000  0.68891000  1.0 0.3796179405
H  H37  1  0.32041000  0.80005000  0.79828000  1.0 0.3724708369
H  H38  1  0.67959000  0.19995000  0.20172000  1.0 0.3724708369
H  H39  1  0.17960000  0.30005000  0.70172000  1.0 0.3724708369
H  H40  1  0.82040000  0.69995000  0.29828000  1.0 0.3724708369
H  H41  1  0.02410000  0.93066000  0.76086000  1.0 0.3904897548
H  H42  1  0.97590000  0.06934000  0.23914000  1.0 0.3904897548
H  H43  1  0.47590000  0.43066000  0.73914000  1.0 0.3904897548
H  H44  1  0.52410000  0.56934000  0.26086000  1.0 0.3904897548
H  H45  1  0.09202000  0.90197000  0.70294000  1.0 0.3904897548
H  H46  1  0.90798000  0.09803000  0.29706000  1.0 0.3904897548
H  H47  1  0.40798000  0.40197000  0.79707000  1.0 0.3904897548
H  H48  1  0.59202000  0.59803000  0.20293000  1.0 0.3904897548
C  C1  1  0.74333000  0.96744000  0.57497000  1.0 -0.4385704238
C  C2  1  0.25667000  0.03256000  0.42503000  1.0 -0.4385704238
C  C3  1  0.75668000  0.46744000  0.92503000  1.0 -0.4385704238
C  C4  1  0.24332000  0.53256000  0.07497000  1.0 -0.4385704238
C  C5  1  0.80951000  0.02717000  0.55617000  1.0 -0.4311251754
C  C6  1  0.19049000  0.97283000  0.44383000  1.0 -0.4311251754
C  C7  1  0.69048000  0.52716000  0.94383000  1.0 -0.4311251754
C  C8  1  0.30952000  0.47284000  0.05617000  1.0 -0.4311251754
C  C9  1  0.63210000  0.98194000  0.77570000  1.0 0.4213552824
C  C10  1  0.36790000  0.01806000  0.22430000  1.0 0.4213552824
C  C11  1  0.86789000  0.48194000  0.72430000  1.0 0.4213552824
C  C12  1  0.13211000  0.51806000  0.27570000  1.0 0.4213552824
C  C13  1  0.58478000  0.97961000  0.84217000  1.0 0.5899865638
C  C14  1  0.41522000  0.02039000  0.15783000  1.0 0.5899865638
C  C15  1  0.91522000  0.47961000  0.65783000  1.0 0.5899865638
C  C16  1  0.08478000  0.52039000  0.34217000  1.0 0.5899865638
C  C17  1  0.92186000  0.73023000  0.50200000  1.0 0.4109562958
C  C18  1  0.07814000  0.26977000  0.49800000  1.0 0.4109562958
C  C19  1  0.57814000  0.23024000  0.99800000  1.0 0.4109562958
C  C20  1  0.42186000  0.76976000  0.00200000  1.0 0.4213552824
C  C21  1  0.86896000  0.64942000  0.49220000  1.0 0.5899865638
C  C22  1  0.13104000  0.35058000  0.50780000  1.0 0.5899865638
C  C23  1  0.63104000  0.14942000  0.00780000  1.0 0.5899865638
C  C24  1  0.36896000  0.85058000  0.99220000  1.0 0.5899865638
C  C25  1  0.64026000  0.90507000  0.38066000  1.0 0.5410197338
C  C26  1  0.35974000  0.09493000  0.61934000  1.0 0.5410197338
C  C27  1  0.85974000  0.40507000  0.11934000  1.0 0.5410197338
C  C28  1  0.14026000  0.59493000  0.88066000  1.0 0.5410197338
C  C29  1  0.54146000  0.83808000  0.35726000  1.0 -0.0206129366
C  C30  1  0.45854000  0.16192000  0.64274000  1.0 -0.0206129366
C  C31  1  0.95854000  0.33808000  0.14274000  1.0 -0.0206129366
C  C32  1  0.04146000  0.66192000  0.85726000  1.0 -0.0206129366
C  C33  1  0.49847000  0.82881000  0.29502000  1.0 -0.0996291183
C  C34  1  0.50153000  0.17119000  0.70498000  1.0 -0.0996291183
C  C35  1  0.00153000  0.32881000  0.20498000  1.0 -0.0996291183
C  C36  1  0.99847000  0.67119000  0.79502000  1.0 -0.0996291183
C  C37  1  0.41999000  0.76435000  0.27178000  1.0 -0.0910067877
C  C38  1  0.58001000  0.23565000  0.72822000  1.0 -0.0910067877
C  C39  1  0.08001000  0.26435000  0.22822000  1.0 -0.0910067877
C  C40  1  0.91999000  0.73565000  0.77178000  1.0 -0.0910067877
C  C41  1  0.37575000  0.70988000  0.31106000  1.0 -0.0695628259
C  C42  1  0.62425000  0.29012000  0.68894000  1.0 -0.0695628259
C  C43  1  0.12425000  0.20988000  0.18894000  1.0 -0.0695628259
C  C44  1  0.87575000  0.79012000  0.81106000  1.0 -0.0695628259
C  C45  1  0.41012000  0.72075000  0.37335000  1.0 -0.0695628259
C  C46  1  0.58988000  0.27925000  0.62665000  1.0 -0.0695628259
C  C47  1  0.08988000  0.22075000  0.12665000  1.0 -0.0695628259
C  C48  1  0.91012000  0.77925000  0.87335000  1.0 -0.0695628259
C  C49  1  0.49630000  0.78416000  0.39662000  1.0 -0.0360083638
C  C50  1  0.50370000  0.21584000  0.60338000  1.0 -0.0360083638
C  C51  1  0.00370000  0.28416000  0.10338000  1.0 -0.0360083638
C  C52  1  0.99630000  0.71584000  0.89662000  1.0 -0.0360083638
C  C53  1  0.38931000  0.75065000  0.20591000  1.0 0.5963558963
C  C54  1  0.61069000  0.24935000  0.79409000  1.0 0.5963558963
C  C55  1  0.11069000  0.25065000  0.29409000  1.0 0.5963558963
C  C56  1  0.88931000  0.74935000  0.70591000  1.0 0.5963558963
C  C57  1  0.33895000  0.81759000  0.59406000  1.0 0.5410197338
C  C58  1  0.66105000  0.18241000  0.40594000  1.0 0.5410197338
C  C59  1  0.16105000  0.31759000  0.90594000  1.0 0.5410197338
C  C60  1  0.83895000  0.68241000  0.09406000  1.0 0.5410197338
C  C61  1  0.35642000  0.75294000  0.63342000  1.0 -0.0013524698
C  C62  1  0.64358000  0.24706000  0.36658000  1.0 -0.0013524698
C  C63  1  0.14358000  0.25295000  0.86658000  1.0 -0.0013524698
C  C64  1  0.85642000  0.74705000  0.13342000  1.0 -0.0013524698
C  C65  1  0.35887000  0.68500000  0.60733000  1.0 -0.0360083638
C  C66  1  0.64113000  0.31500000  0.39267000  1.0 -0.0360083638
C  C67  1  0.14113000  0.18500000  0.89267000  1.0 -0.0360083638
C  C68  1  0.85887000  0.81500000  0.10733000  1.0 -0.0360083638
C  C69  1  0.37254000  0.62448000  0.64415000  1.0 -0.0695628259
C  C70  1  0.62746000  0.37552000  0.35585000  1.0 -0.0695628259
C  C71  1  0.12746000  0.12448000  0.85585000  1.0 -0.0695628259
C  C72  1  0.87254000  0.87552000  0.14415000  1.0 -0.0695628259
C  C73  1  0.39427000  0.63160000  0.70670000  1.0 -0.0542044753
C  C74  1  0.60573000  0.36840000  0.29330000  1.0 -0.0542044753
C  C75  1  0.10573000  0.13160000  0.79330000  1.0 -0.0542044753
C  C76  1  0.89427000  0.86840000  0.20670000  1.0 -0.0542044753
C  C77  1  0.40032000  0.70001000  0.73302000  1.0 -0.0996291183
C  C78  1  0.59968000  0.29999000  0.26698000  1.0 -0.0996291183
C  C79  1  0.09968000  0.20001000  0.76699000  1.0 -0.0996291183
C  C80  1  0.90032000  0.79999000  0.23301000  1.0 -0.0996291183
C  C81  1  0.37685000  0.76059000  0.69607000  1.0 -0.1080722159
C  C82  1  0.62315000  0.23941000  0.30393000  1.0 -0.1080722159
C  C83  1  0.12316000  0.26059000  0.80394000  1.0 -0.1080722159
C  C84  1  0.87684000  0.73941000  0.19606000  1.0 -0.1080722159
C  C85  1  0.44028000  0.70622000  0.79955000  1.0 0.5899865638
C  C86  1  0.55972000  0.29378000  0.20045000  1.0 0.5899865638
C  C87  1  0.05973000  0.20622000  0.70046000  1.0 0.5899865638
C  C88  1  0.94027000  0.79378000  0.29954000  1.0 0.5899865638
O  O1  1  0.56866000  0.92805000  0.74468000  1.0 -0.4721498976
O  O2  1  0.43134000  0.07195000  0.25532000  1.0 -0.4721498976
O  O3  1  0.93134000  0.42805000  0.75532000  1.0 -0.4721498976
O  O4  1  0.06866000  0.57195000  0.24468000  1.0 -0.4721498976
O  O5  1  0.72919000  0.03513000  0.76167000  1.0 -0.5469843337
O  O6  1  0.27081000  0.96487000  0.23833000  1.0 -0.5469843337
O  O7  1  0.77081000  0.53513000  0.73833000  1.0 -0.5469843337
O  O8  1  0.22919000  0.46487000  0.26167000  1.0 -0.5469843337
O  O9  1  0.88669000  0.75419000  0.55200000  1.0 -0.4385704238
O  O10  1  0.11331000  0.24581000  0.44800000  1.0 -0.4385704238
O  O11  1  0.61331000  0.25419000  0.94800000  1.0 -0.4385704238
O  O12  1  0.38669000  0.74581000  0.05200000  1.0 -0.4385704238
O  O13  1  0.99506000  0.75983000  0.45950000  1.0 -0.4385704238
O  O14  1  0.00494000  0.24017000  0.54050000  1.0 -0.4385704238
O  O15  1  0.50494000  0.25983000  0.04050000  1.0 -0.4385704238
O  O16  1  0.49506000  0.74017000  0.95950000  1.0 -0.4385704238
O  O17  1  0.66881000  0.95485000  0.34411000  1.0 -0.5144467542
O  O18  1  0.33119000  0.04515000  0.65589000  1.0 -0.5144467542
O  O19  1  0.83119000  0.45485000  0.15589000  1.0 -0.5144467542
O  O20  1  0.16881000  0.54515000  0.84411000  1.0 -0.5144467542
O  O21  1  0.69787000  0.91000000  0.43821000  1.0 -0.5439702758
O  O22  1  0.30213000  0.09000000  0.56179000  1.0 -0.5439702758
O  O23  1  0.80213000  0.41000000  0.06179000  1.0 -0.5439702758
O  O24  1  0.19787000  0.59000000  0.93821000  1.0 -0.5439702758
O  O25  1  0.35447000  0.80638000  0.16801000  1.0 -0.4485167118
O  O26  1  0.64553000  0.19362000  0.83199000  1.0 -0.4485167118
O  O27  1  0.14553000  0.30638000  0.33199000  1.0 -0.4485167118
O  O28  1  0.85447000  0.69362000  0.66801000  1.0 -0.4485167118
O  O29  1  0.39803000  0.68936000  0.18551000  1.0 -0.4989949057
O  O30  1  0.60197000  0.31064000  0.81449000  1.0 -0.4989949057
O  O31  1  0.10197000  0.18936000  0.31449000  1.0 -0.4989949057
O  O32  1  0.89803000  0.81064000  0.68551000  1.0 -0.4989949057
O  O33  1  0.27430000  0.87560000  0.61676000  1.0 -0.5635041335
O  O34  1  0.72570000  0.12440000  0.38324000  1.0 -0.5635041335
O  O35  1  0.22570000  0.37560000  0.88324000  1.0 -0.5635041335
O  O36  1  0.77430000  0.62440000  0.11676000  1.0 -0.5635041335
O  O37  1  0.39124000  0.81257000  0.54195000  1.0 -0.5239153394
O  O38  1  0.60876000  0.18743000  0.45805000  1.0 -0.5239153394
O  O39  1  0.10876000  0.31257000  0.95805000  1.0 -0.5239153394
O  O40  1  0.89124000  0.68743000  0.04195000  1.0 -0.5239153394
O  O41  1  0.38692000  0.76573000  0.82686000  1.0 -0.4311251754
O  O42  1  0.61308000  0.23427000  0.17314000  1.0 -0.4311251754
O  O43  1  0.11308000  0.26574000  0.67314000  1.0 -0.4311251754
O  O44  1  0.88692000  0.73426000  0.32686000  1.0 -0.4311251754
O  O45  1  0.52338000  0.65893000  0.83229000  1.0 -0.4485167118
O  O46  1  0.47662000  0.34107000  0.16771000  1.0 -0.4485167118
O  O47  1  0.97662000  0.15893000  0.66771000  1.0 -0.4485167118
O  O48  1  0.02338000  0.84107000  0.33229000  1.0 -0.4485167118
O  O49  1  0.09934000  0.94430000  0.72890000  1.0 -0.7138543913
O  O50  1  0.90066000  0.05570000  0.27110000  1.0 -0.7138543913
O  O51  1  0.40066000  0.44430000  0.77110000  1.0 -0.7138543913
O  O52  1  0.59934000  0.55570000  0.22890000  1.0 -0.7138543913
F  F1  1  0.63617000  0.04137000  0.87251000  1.0 -0.2008683671
F  F2  1  0.36383000  0.95863000  0.12749000  1.0 -0.2008683671
F  F3  1  0.86383000  0.54136000  0.62749000  1.0 -0.2008683671
F  F4  1  0.13617000  0.45864000  0.37251000  1.0 -0.2008683671
F  F5  1  0.38968000  0.96827000  0.84459000  1.0 -0.2008683671
F  F6  1  0.61032000  0.03173000  0.15541000  1.0 -0.2008683671
F  F7  1  0.11032000  0.46827000  0.65541000  1.0 -0.2008683671
F  F8  1  0.88968000  0.53173000  0.34459000  1.0 -0.2008683671
F  F9  1  0.68692000  0.92486000  0.87354000  1.0 -0.2008683671
F  F10  1  0.31308000  0.07514000  0.12646000  1.0 -0.2054961214
F  F11  1  0.81309000  0.42486000  0.62646000  1.0 -0.2054961214
F  F12  1  0.18691000  0.57514000  0.37354000  1.0 -0.2008683671
F  F13  1  0.73332000  0.62698000  0.52727000  1.0 -0.1900218615
F  F14  1  0.26668000  0.37302000  0.47273000  1.0 -0.1900218615
F  F15  1  0.76669000  0.12698000  0.97273000  1.0 -0.1900218615
F  F16  1  0.23331000  0.87302000  0.02727000  1.0 -0.1900218615
F  F17  1  0.03398000  0.60810000  0.50649000  1.0 -0.2008683671
F  F18  1  0.96602000  0.39190000  0.49351000  1.0 -0.2008683671
F  F19  1  0.46602000  0.10810000  0.99351000  1.0 -0.2008683671
F  F20  1  0.53398000  0.89190000  0.00649000  1.0 -0.2008683671
F  F21  1  0.79493000  0.63600000  0.43350000  1.0 -0.2008683671
F  F22  1  0.20507000  0.36400000  0.56650000  1.0 -0.2008683671
F  F23  1  0.70506000  0.13600000  0.06650000  1.0 -0.2008683671
F  F24  1  0.29494000  0.86400000  0.93350000  1.0 -0.2008683671
