# DDEC6 charges by PACMAN v1.1 (https://github.com/mtap-research/PACMAN-charge/)
data_RITKAK_ASR_pacman
_symmetry_space_group_name_H-M   'P 1'
_cell_length_a   22.65130000
_cell_length_b   22.88500000
_cell_length_c   23.62400000
_cell_angle_alpha   66.09200000
_cell_angle_beta   66.23600000
_cell_angle_gamma   60.92600000
_symmetry_Int_Tables_number   1
_chemical_formula_structural   Co11H174C282(NO7)8
_chemical_formula_sum   'Co11 H174 C282 N8 O56'
_cell_volume   9453.74425597
_cell_formula_units_Z   1
loop_
 _symmetry_equiv_pos_site_id
 _symmetry_equiv_pos_as_xyz
  1  'x, y, z'
loop_
 _atom_site_type_symbol
 _atom_site_label
 _atom_site_symmetry_multiplicity
 _atom_site_fract_x
 _atom_site_fract_y
 _atom_site_fract_z
 _atom_site_occupancy
 _atom_site_charge
Co  Co1  1  0.50310000  0.04613000  0.63440000  1.0 1.0391407786
Co  Co2  1  0.49690000  0.95387000  0.36560000  1.0 1.0391407786
Co  Co3  1  0.67946000  0.96684000  0.74142000  1.0 1.070914763
Co  Co4  1  0.32054000  0.03316000  0.25858000  1.0 1.070914763
Co  Co5  1  0.52331000  0.09272000  0.74232000  1.0 0.8417267976
Co  Co6  1  0.47669000  0.90728000  0.25768000  1.0 0.8417267976
Co  Co7  1  0.53685000  0.18678000  0.58194000  1.0 0.9469452081
Co  Co8  1  0.46315000  0.81322000  0.41806000  1.0 0.9469452081
Co  Co9  1  0.55331000  0.94276000  0.86877000  1.0 0.8042120514
Co  Co10  1  0.44669000  0.05724000  0.13123000  1.0 0.8042120514
Co  Co11  1  0.50000000  0.00000000  0.00000000  1.0 0.1753995297
H  H1  1  0.59925000  0.06842000  0.63940000  1.0 0.3817546544
H  H2  1  0.40075000  0.93158000  0.36060000  1.0 0.3817546544
H  H3  1  0.56201000  0.96807000  0.75451000  1.0 0.3671415029
H  H4  1  0.43799000  0.03193000  0.24549000  1.0 0.3671415029
H  H5  1  0.83347000  0.76429000  0.57270000  1.0 0.1107890327
H  H6  1  0.16653000  0.23571000  0.42730000  1.0 0.1107890327
H  H7  1  0.77349000  0.87217000  0.59078000  1.0 0.129447041
H  H8  1  0.22651000  0.12783000  0.40922000  1.0 0.129447041
H  H9  1  0.88502000  0.64138000  0.61570000  1.0 0.1202952708
H  H10  1  0.11498000  0.35862000  0.38430000  1.0 0.1202952708
H  H11  1  0.10232000  0.43266000  0.59151000  1.0 0.1107890327
H  H12  1  0.89768000  0.56734000  0.40849000  1.0 0.1107890327
H  H13  1  0.16248000  0.87604000  0.97736000  1.0 0.1107890327
H  H14  1  0.83752000  0.12396000  0.02264000  1.0 0.1107890327
H  H15  1  0.10497000  0.28328000  0.54273000  1.0 0.1107890327
H  H16  1  0.89503000  0.71672000  0.45727000  1.0 0.1107890327
H  H17  1  0.71103000  0.65096000  0.59805000  1.0 0.1202952708
H  H18  1  0.28897000  0.34904000  0.40195000  1.0 0.1202952708
H  H19  1  0.88277000  0.45975000  0.47153000  1.0 0.129447041
H  H20  1  0.11723000  0.54025000  0.52847000  1.0 0.129447041
H  H21  1  0.98698000  0.34155000  0.54501000  1.0 0.1396865947
H  H22  1  0.01302000  0.65845000  0.45499000  1.0 0.129447041
H  H23  1  0.59907000  0.83067000  0.68372000  1.0 0.1202952708
H  H24  1  0.40093000  0.16933000  0.31628000  1.0 0.1202952708
H  H25  1  0.94431000  0.88577000  0.96004000  1.0 0.1202952708
H  H26  1  0.05569000  0.11423000  0.03996000  1.0 0.1202952708
H  H27  1  0.81852000  0.40668000  0.46624000  1.0 0.129447041
H  H28  1  0.18148000  0.59332000  0.53376000  1.0 0.129447041
H  H29  1  0.82542000  0.94882000  0.15228000  1.0 0.1202952708
H  H30  1  0.17458000  0.05118000  0.84772000  1.0 0.1202952708
H  H31  1  0.87221000  0.89506000  0.32859000  1.0 0.1202952708
H  H32  1  0.12779000  0.10494000  0.67141000  1.0 0.1202952708
H  H33  1  0.76979000  0.54273000  0.58075000  1.0 0.129447041
H  H34  1  0.23021000  0.45727000  0.41925000  1.0 0.129447041
H  H35  1  0.14676000  0.94297000  0.11675000  1.0 0.090267062
H  H36  1  0.85324000  0.05703000  0.88325000  1.0 0.090267062
H  H37  1  0.94587000  0.86288000  0.23392000  1.0 0.129447041
H  H38  1  0.05413000  0.13712000  0.76608000  1.0 0.129447041
H  H39  1  0.20099000  0.22144000  0.56479000  1.0 0.1107890327
H  H40  1  0.79901000  0.77856000  0.43521000  1.0 0.1107890327
H  H41  1  0.79936000  0.94910000  0.84195000  1.0 0.1107890327
H  H42  1  0.20064000  0.05090000  0.15805000  1.0 0.1107890327
H  H43  1  0.65875000  0.72218000  0.66454000  1.0 0.1107890327
H  H44  1  0.34125000  0.27782000  0.33546000  1.0 0.1107890327
H  H45  1  0.86753000  0.15606000  0.78176000  1.0 0.1107890327
H  H46  1  0.13247000  0.84394000  0.21824000  1.0 0.1107890327
H  H47  1  0.76999000  0.93420000  0.10027000  1.0 0.1107890327
H  H48  1  0.23001000  0.06580000  0.89973000  1.0 0.1107890327
H  H49  1  0.02981000  0.96152000  0.15705000  1.0 0.129447041
H  H50  1  0.97019000  0.03848000  0.84295000  1.0 0.129447041
H  H51  1  0.94565000  0.27723000  0.88280000  1.0 0.1396865947
H  H52  1  0.05435000  0.72277000  0.11720000  1.0 0.1396865947
H  H53  1  0.66787000  0.95959000  0.47846000  1.0 0.1202952708
H  H54  1  0.33213000  0.04041000  0.52154000  1.0 0.1202952708
H  H55  1  0.31589000  0.16012000  0.57054000  1.0 0.1202952708
H  H56  1  0.68411000  0.83988000  0.42946000  1.0 0.1202952708
H  H57  1  0.32367000  0.32751000  0.57556000  1.0 0.129447041
H  H58  1  0.67633000  0.67249000  0.42444000  1.0 0.129447041
H  H59  1  0.80008000  0.09402000  0.22652000  1.0 0.1202952708
H  H60  1  0.19992000  0.90598000  0.77348000  1.0 0.1202952708
H  H61  1  0.69048000  0.32608000  0.79644000  1.0 0.1202952708
H  H62  1  0.30952000  0.67392000  0.20356000  1.0 0.1202952708
H  H63  1  0.83136000  0.39041000  0.66398000  1.0 0.129447041
H  H64  1  0.16864000  0.60959000  0.33602000  1.0 0.129447041
H  H65  1  0.87065000  0.93341000  0.89815000  1.0 0.1107890327
H  H66  1  0.12935000  0.06659000  0.10185000  1.0 0.1107890327
H  H67  1  0.76286000  0.07810000  0.72630000  1.0 0.129447041
H  H68  1  0.23714000  0.92190000  0.27370000  1.0 0.129447041
H  H69  1  0.06677000  0.22455000  0.87523000  1.0 0.1107890327
H  H70  1  0.93323000  0.77545000  0.12477000  1.0 0.1107890327
H  H71  1  0.57954000  0.21384000  0.80218000  1.0 0.1202952708
H  H72  1  0.42046000  0.78616000  0.19782000  1.0 0.1202952708
H  H73  1  0.82116000  0.12633000  0.74251000  1.0 0.1202952708
H  H74  1  0.17884000  0.87367000  0.25749000  1.0 0.1202952708
H  H75  1  0.83799000  0.64391000  0.73819000  1.0 0.1202952708
H  H76  1  0.16201000  0.35609000  0.26181000  1.0 0.1202952708
H  H77  1  0.87716000  0.06161000  0.13343000  1.0 0.129447041
H  H78  1  0.12284000  0.93839000  0.86657000  1.0 0.129447041
H  H79  1  0.21008000  0.39096000  0.56607000  1.0 0.1202952708
H  H80  1  0.78992000  0.60904000  0.43393000  1.0 0.1202952708
H  H81  1  0.78889000  0.75602000  0.74384000  1.0 0.1202952708
H  H82  1  0.21111000  0.24398000  0.25616000  1.0 0.1202952708
H  H83  1  0.68081000  0.14729000  0.41108000  1.0 0.129447041
H  H84  1  0.31919000  0.85271000  0.58892000  1.0 0.129447041
H  H85  1  0.76923000  0.33895000  0.65797000  1.0 0.1107890327
H  H86  1  0.23077000  0.66105000  0.34203000  1.0 0.1107890327
H  H87  1  0.63541000  0.26339000  0.81615000  1.0 0.129447041
H  H88  1  0.36459000  0.73661000  0.18385000  1.0 0.129447041
H  H89  1  0.73064000  0.89406000  0.06338000  1.0 0.1107890327
H  H90  1  0.26936000  0.10594000  0.93662000  1.0 0.1107890327
H  H91  1  0.92637000  0.21118000  0.78773000  1.0 0.1202952708
H  H92  1  0.07363000  0.78882000  0.21227000  1.0 0.1202952708
H  H93  1  0.75672000  0.92527000  0.39180000  1.0 0.1107890327
H  H94  1  0.24328000  0.07473000  0.60820000  1.0 0.1107890327
H  H95  1  0.29953000  0.19285000  0.81426000  1.0 0.090267062
H  H96  1  0.70047000  0.80715000  0.18574000  1.0 0.090267062
H  H97  1  0.65815000  0.90948000  0.00668000  1.0 0.1107890327
H  H98  1  0.34185000  0.09052000  0.99332000  1.0 0.1107890327
H  H99  1  0.77080000  0.11371000  0.32279000  1.0 0.1107890327
H  H100  1  0.22920000  0.88629000  0.67721000  1.0 0.1107890327
H  H101  1  0.88709000  0.53104000  0.78556000  1.0 0.1202952708
H  H102  1  0.11291000  0.46896000  0.21444000  1.0 0.1202952708
H  H103  1  0.98747000  0.31420000  0.69164000  1.0 0.129447041
H  H104  1  0.01253000  0.68580000  0.30836000  1.0 0.129447041
H  H105  1  0.17867000  0.24209000  0.82977000  1.0 0.1003205465
H  H106  1  0.82133000  0.75791000  0.17023000  1.0 0.1003205465
H  H107  1  0.20016000  0.14610000  0.70931000  1.0 0.1003205465
H  H108  1  0.79984000  0.85390000  0.29069000  1.0 0.1003205465
H  H109  1  0.31878000  0.08983000  0.70306000  1.0 0.1202952708
H  H110  1  0.68122000  0.91017000  0.29694000  1.0 0.1202952708
H  H111  1  0.94119000  0.41753000  0.78099000  1.0 0.129447041
H  H112  1  0.05881000  0.58247000  0.21901000  1.0 0.129447041
H  H113  1  0.61569000  0.72760000  0.87274000  1.0 0.129447041
H  H114  1  0.38431000  0.27240000  0.12726000  1.0 0.129447041
H  H115  1  0.10756000  0.25881000  0.68402000  1.0 0.1107890327
H  H116  1  0.89244000  0.74119000  0.31598000  1.0 0.1107890327
H  H117  1  0.70260000  0.53672000  0.79911000  1.0 0.129447041
H  H118  1  0.29740000  0.46328000  0.20089000  1.0 0.129447041
H  H119  1  0.36770000  0.90703000  0.04367000  1.0 0.1003205465
H  H120  1  0.63230000  0.09297000  0.95633000  1.0 0.1003205465
H  H121  1  0.25748000  0.90072000  0.09180000  1.0 0.1003205465
H  H122  1  0.74252000  0.09928000  0.90820000  1.0 0.1003205465
H  H123  1  0.24768000  0.90926000  0.92091000  1.0 0.1003205465
H  H124  1  0.75232000  0.09074000  0.07909000  1.0 0.1003205465
H  H125  1  0.35789000  0.91557000  0.87277000  1.0 0.1003205465
H  H126  1  0.64211000  0.08443000  0.12723000  1.0 0.1003205465
H  H127  1  0.66333000  0.61648000  0.86193000  1.0 0.1202952708
H  H128  1  0.33667000  0.38352000  0.13807000  1.0 0.1202952708
H  H129  1  0.70729000  0.41588000  0.47924000  1.0 0.1003205465
H  H130  1  0.29271000  0.58412000  0.52076000  1.0 0.1003205465
H  H131  1  0.75980000  0.26202000  0.63395000  1.0 0.1202952708
H  H132  1  0.24020000  0.73798000  0.36605000  1.0 0.1202952708
H  H133  1  0.63683000  0.36175000  0.48142000  1.0 0.1107890327
H  H134  1  0.36317000  0.63825000  0.51858000  1.0 0.1107890327
H  H135  1  0.70545000  0.20364000  0.63011000  1.0 0.1107890327
H  H136  1  0.29455000  0.79636000  0.36989000  1.0 0.1107890327
H  H137  1  0.41510000  0.22975000  0.94578000  1.0 0.129447041
H  H138  1  0.58490000  0.77025000  0.05422000  1.0 0.129447041
H  H139  1  0.44173000  0.16315000  0.00198000  1.0 0.129447041
H  H140  1  0.55827000  0.83685000  0.99802000  1.0 0.129447041
H  H141  1  0.49708000  0.18767000  0.94023000  1.0 0.1202952708
H  H142  1  0.50292000  0.81233000  0.05977000  1.0 0.1202952708
H  H143  1  0.34957000  0.17840000  0.91542000  1.0 0.129447041
H  H144  1  0.65043000  0.82160000  0.08458000  1.0 0.129447041
H  H145  1  0.40132000  0.14796000  0.85500000  1.0 0.16096693
H  H146  1  0.59868000  0.85204000  0.14500000  1.0 0.16096693
H  H147  1  0.39594000  0.21879000  0.85859000  1.0 0.206195998
H  H148  1  0.60406000  0.78121000  0.14141000  1.0 0.206195998
H  H149  1  0.51589000  0.05305000  0.95124000  1.0 0.1107890327
H  H150  1  0.48411000  0.94695000  0.04876000  1.0 0.1107890327
H  H151  1  0.80639000  0.28885000  0.49920000  1.0 0.1107890327
H  H152  1  0.19361000  0.71115000  0.50080000  1.0 0.1107890327
H  H153  1  0.13772000  0.27486000  0.87180000  1.0 0.1107890327
H  H154  1  0.86228000  0.72514000  0.12820000  1.0 0.1107890327
H  H155  1  0.25238000  0.23646000  0.87677000  1.0 0.1003205465
H  H156  1  0.74762000  0.76354000  0.12323000  1.0 0.1003205465
H  H157  1  0.32501000  0.14887000  0.73088000  1.0 0.1003205465
H  H158  1  0.67499000  0.85113000  0.26912000  1.0 0.1003205465
H  H159  1  0.21035000  0.18728000  0.72590000  1.0 0.1003205465
H  H160  1  0.78965000  0.81272000  0.27410000  1.0 0.1003205465
H  H161  1  0.67299000  0.34060000  0.65715000  1.0 0.1107890327
H  H162  1  0.32701000  0.65940000  0.34285000  1.0 0.1107890327
H  H163  1  0.59852000  0.29720000  0.65276000  1.0 0.1107890327
H  H164  1  0.40148000  0.70280000  0.34724000  1.0 0.1107890327
H  H165  1  0.74756000  0.23123000  0.50219000  1.0 0.1202952708
H  H166  1  0.25244000  0.76877000  0.49781000  1.0 0.1202952708
H  H167  1  0.24007000  0.90688000  0.11544000  1.0 0.0802003681
H  H168  1  0.75993000  0.09312000  0.88456000  1.0 0.0802003681
H  H169  1  0.35092000  0.91074000  0.08008000  1.0 0.1107890327
H  H170  1  0.64908000  0.08926000  0.91992000  1.0 0.1107890327
H  H171  1  0.36451000  0.92066000  0.90025000  1.0 0.1003205465
H  H172  1  0.63549000  0.07934000  0.09975000  1.0 0.1003205465
H  H173  1  0.25366000  0.91680000  0.93560000  1.0 0.1107890327
H  H174  1  0.74634000  0.08320000  0.06440000  1.0 0.1107890327
C  C1  1  0.92060000  0.92740000  0.08710000  1.0 0.1681975899
C  C2  1  0.07940000  0.07260000  0.91290000  1.0 0.1681975899
C  C3  1  0.89840000  0.55650000  0.59790000  1.0 -0.0813249076
C  C4  1  0.10160000  0.44350000  0.40210000  1.0 -0.0813249076
C  C5  1  0.78550000  0.77750000  0.59530000  1.0 -0.1584852777
C  C6  1  0.21450000  0.22250000  0.40470000  1.0 -0.1584852777
C  C7  1  0.06420000  0.90440000  0.03650000  1.0 -0.0813249076
C  C8  1  0.93580000  0.09560000  0.96350000  1.0 -0.0813249076
C  C9  1  0.75000000  0.84160000  0.60650000  1.0 -0.089631105
C  C10  1  0.25000000  0.15840000  0.39350000  1.0 -0.089631105
C  C11  1  0.68020000  0.86270000  0.64050000  1.0 -0.0276434009
C  C12  1  0.31980000  0.13730000  0.35950000  1.0 -0.0276434009
C  C13  1  0.02500000  0.92830000  0.09070000  1.0 0.1510294972
C  C14  1  0.97500000  0.07170000  0.90930000  1.0 0.1510294972
C  C15  1  0.95840000  0.90420000  0.03040000  1.0 -0.0615789751
C  C16  1  0.04160000  0.09580000  0.96960000  1.0 -0.0615789751
C  C17  1  0.79140000  0.66100000  0.60650000  1.0 0.0501271277
C  C18  1  0.20860000  0.33900000  0.39350000  1.0 0.0501271277
C  C19  1  0.75350000  0.73050000  0.61610000  1.0 0.0721487021
C  C20  1  0.24650000  0.26950000  0.38390000  1.0 0.0721487021
C  C21  1  0.86600000  0.52550000  0.58550000  1.0 0.16096693
C  C22  1  0.13400000  0.47450000  0.41450000  1.0 0.16096693
C  C23  1  0.00860000  0.45360000  0.58240000  1.0 -0.1016250424
C  C24  1  0.99140000  0.54640000  0.41760000  1.0 -0.1016250424
C  C25  1  0.97190000  0.42620000  0.56980000  1.0 0.16096693
C  C26  1  0.02810000  0.57380000  0.43020000  1.0 0.16096693
C  C27  1  0.19170000  0.31210000  0.56690000  1.0 0.0802003681
C  C28  1  0.80830000  0.68790000  0.43310000  1.0 0.0802003681
C  C29  1  0.97240000  0.51950000  0.59840000  1.0 0.3131543575
C  C30  1  0.02760000  0.48050000  0.40160000  1.0 0.3131543575
C  C31  1  0.86150000  0.62180000  0.60770000  1.0 -0.1498662759
C  C32  1  0.13850000  0.37820000  0.39230000  1.0 -0.1498662759
C  C33  1  0.33040000  0.23620000  0.57550000  1.0 -0.0210904921
C  C34  1  0.66960000  0.76380000  0.42450000  1.0 -0.0210904921
C  C35  1  0.86410000  0.42890000  0.56690000  1.0 0.1396865947
C  C36  1  0.13590000  0.57110000  0.43310000  1.0 0.1510294972
C  C37  1  0.03210000  0.89010000  0.00400000  1.0 0.2972786604
C  C38  1  0.96790000  0.10990000  0.99600000  1.0 0.2972786604
C  C39  1  0.07900000  0.41480000  0.58120000  1.0 -0.1689887528
C  C40  1  0.92100000  0.58520000  0.41880000  1.0 -0.1689887528
C  C41  1  0.13500000  0.89450000  0.01350000  1.0 -0.2132394137
C  C42  1  0.86500000  0.10550000  0.98650000  1.0 -0.2132394137
C  C43  1  0.64080000  0.93080000  0.65590000  1.0 0.5807956336
C  C44  1  0.35920000  0.06920000  0.34410000  1.0 0.5807956336
C  C45  1  0.08030000  0.32660000  0.55300000  1.0 -0.1193389817
C  C46  1  0.91970000  0.67340000  0.44700000  1.0 -0.1193389817
C  C47  1  0.75920000  0.62760000  0.59720000  1.0 -0.1095467884
C  C48  1  0.24080000  0.37240000  0.40280000  1.0 -0.1095467884
C  C49  1  0.11690000  0.35220000  0.56590000  1.0 0.0606764965
C  C50  1  0.88310000  0.64780000  0.43410000  1.0 0.0606764965
C  C51  1  0.85970000  0.43500000  0.50970000  1.0 -0.1584852777
C  C52  1  0.14030000  0.56500000  0.49030000  1.0 -0.1584852777
C  C53  1  0.00960000  0.36100000  0.55430000  1.0 -0.2006869847
C  C54  1  0.99040000  0.63900000  0.44570000  1.0 -0.2006869847
C  C55  1  0.16610000  0.91050000  0.04150000  1.0 0.0606764965
C  C56  1  0.83390000  0.08950000  0.95850000  1.0 0.0606764965
C  C57  1  0.64710000  0.81700000  0.66120000  1.0 -0.089631105
C  C58  1  0.35290000  0.18300000  0.33880000  1.0 -0.089631105
C  C59  1  0.85100000  0.91090000  0.02320000  1.0 0.0501271277
C  C60  1  0.14900000  0.08910000  0.97680000  1.0 0.0501271277
C  C61  1  0.92040000  0.89860000  0.99930000  1.0 -0.1498662759
C  C62  1  0.07960000  0.10140000  0.00070000  1.0 -0.1498662759
C  C63  1  0.82030000  0.40410000  0.50670000  1.0 -0.1498662759
C  C64  1  0.17970000  0.59590000  0.49330000  1.0 -0.1498662759
C  C65  1  0.85040000  0.93660000  0.11280000  1.0 -0.2716501327
C  C66  1  0.14960000  0.06340000  0.88720000  1.0 -0.2716501327
C  C67  1  0.87050000  0.92900000  0.28860000  1.0 -0.1384509513
C  C68  1  0.12950000  0.07100000  0.71140000  1.0 -0.1384509513
C  C69  1  0.80770000  0.91230000  0.98690000  1.0 0.0802003681
C  C70  1  0.19230000  0.08770000  0.01310000  1.0 0.0802003681
C  C71  1  0.78430000  0.37040000  0.56230000  1.0 0.0606764965
C  C72  1  0.21570000  0.62960000  0.43770000  1.0 0.0606764965
C  C73  1  0.77390000  0.33910000  0.79430000  1.0 -0.1095467884
C  C74  1  0.22610000  0.66090000  0.20570000  1.0 -0.1095467884
C  C75  1  0.79410000  0.56280000  0.58690000  1.0 -0.1895328561
C  C76  1  0.20590000  0.43720000  0.41310000  1.0 -0.1895328561
C  C77  1  0.91480000  0.95860000  0.17600000  1.0 0.1396865947
C  C78  1  0.08520000  0.04140000  0.82400000  1.0 0.1396865947
C  C79  1  0.82360000  0.99640000  0.28730000  1.0 0.0721487021
C  C80  1  0.17640000  0.00360000  0.71270000  1.0 0.0721487021
C  C81  1  0.12560000  0.93370000  0.09560000  1.0 -0.1895328561
C  C82  1  0.87440000  0.06630000  0.90440000  1.0 -0.1895328561
C  C83  1  0.91530000  0.90990000  0.23250000  1.0 -0.1584852777
C  C84  1  0.08470000  0.09010000  0.76750000  1.0 -0.1584852777
C  C85  1  0.22520000  0.24420000  0.56720000  1.0 -0.1689887528
C  C86  1  0.77480000  0.75580000  0.43280000  1.0 -0.1689887528
C  C87  1  0.78450000  0.93870000  0.88740000  1.0 -0.089631105
C  C88  1  0.21550000  0.06130000  0.11260000  1.0 -0.089631105
C  C89  1  0.68260000  0.75230000  0.64960000  1.0 -0.1498662759
C  C90  1  0.31740000  0.24770000  0.35040000  1.0 -0.1498662759
C  C91  1  0.84310000  0.20250000  0.78490000  1.0 -0.1384509513
C  C92  1  0.15690000  0.79750000  0.21510000  1.0 -0.1384509513
C  C93  1  0.81770000  0.92810000  0.08160000  1.0 -0.2608663561
C  C94  1  0.18230000  0.07190000  0.91840000  1.0 -0.2608663561
C  C95  1  0.60580000  0.08130000  0.50660000  1.0 0.5986705599
C  C96  1  0.39420000  0.91870000  0.49340000  1.0 0.5986705599
C  C97  1  0.66280000  0.05690000  0.45230000  1.0 -0.0396570969
C  C98  1  0.33720000  0.94310000  0.54770000  1.0 -0.0396570969
C  C99  1  0.05640000  0.94400000  0.12030000  1.0 -0.1689887528
C  C100  1  0.94360000  0.05600000  0.87970000  1.0 -0.1689887528
C  C101  1  0.95820000  0.30050000  0.78570000  1.0 0.129447041
C  C102  1  0.04180000  0.69950000  0.21430000  1.0 0.129447041
C  C103  1  0.97900000  0.27400000  0.84260000  1.0 -0.1584852777
C  C104  1  0.02100000  0.72600000  0.15740000  1.0 -0.1584852777
C  C105  1  0.68760000  0.99150000  0.44630000  1.0 -0.0813249076
C  C106  1  0.31240000  0.00850000  0.55370000  1.0 -0.0813249076
C  C107  1  0.29400000  0.20740000  0.57110000  1.0 -0.1095467884
C  C108  1  0.70600000  0.79260000  0.42890000  1.0 -0.1095467884
C  C109  1  0.40310000  0.19560000  0.58380000  1.0 0.5919461129
C  C110  1  0.59690000  0.80440000  0.41620000  1.0 0.5919461129
C  C111  1  0.29860000  0.30540000  0.57350000  1.0 -0.1095467884
C  C112  1  0.70140000  0.69460000  0.42650000  1.0 -0.1095467884
C  C113  1  0.82850000  0.04650000  0.22830000  1.0 -0.1281014141
C  C114  1  0.17150000  0.95350000  0.77170000  1.0 -0.1281014141
C  C115  1  0.73930000  0.30290000  0.79290000  1.0 -0.1584852777
C  C116  1  0.26070000  0.69710000  0.20710000  1.0 -0.1584852777
C  C117  1  0.66420000  0.14320000  0.76080000  1.0 -0.0113776132
C  C118  1  0.33580000  0.85680000  0.23920000  1.0 -0.0113776132
C  C119  1  0.82900000  0.39370000  0.62350000  1.0 -0.1584852777
C  C120  1  0.17100000  0.60630000  0.37650000  1.0 -0.1584852777
C  C121  1  0.82700000  0.92880000  0.92080000  1.0 -0.1281014141
C  C122  1  0.17300000  0.07120000  0.07920000  1.0 -0.1281014141
C  C123  1  0.73700000  0.11670000  0.74420000  1.0 -0.1193389817
C  C124  1  0.26300000  0.88330000  0.25580000  1.0 -0.1193389817
C  C125  1  0.73520000  0.20340000  0.77870000  1.0 0.0501271277
C  C126  1  0.26480000  0.79660000  0.22130000  1.0 0.0501271277
C  C127  1  0.05070000  0.24250000  0.83780000  1.0 -0.1895328561
C  C128  1  0.94930000  0.75750000  0.16220000  1.0 -0.1895328561
C  C129  1  0.62910000  0.19670000  0.78850000  1.0 -0.1193389817
C  C130  1  0.37090000  0.80330000  0.21150000  1.0 -0.1193389817
C  C131  1  0.77150000  0.14560000  0.75340000  1.0 -0.1895328561
C  C132  1  0.22850000  0.85440000  0.24660000  1.0 -0.1895328561
C  C133  1  0.79220000  0.66070000  0.76480000  1.0 -0.1498662759
C  C134  1  0.20780000  0.33930000  0.23520000  1.0 -0.1498662759
C  C135  1  0.87400000  0.02750000  0.17320000  1.0 -0.1689887528
C  C136  1  0.12600000  0.97250000  0.82680000  1.0 -0.1689887528
C  C137  1  0.77140000  0.23620000  0.78670000  1.0 0.0501271277
C  C138  1  0.22860000  0.76380000  0.21330000  1.0 0.0501271277
C  C139  1  0.23070000  0.34290000  0.56850000  1.0 -0.1584852777
C  C140  1  0.76930000  0.65710000  0.43150000  1.0 -0.1584852777
C  C141  1  0.76350000  0.72690000  0.76870000  1.0 -0.089631105
C  C142  1  0.23650000  0.27310000  0.23130000  1.0 -0.089631105
C  C143  1  0.69580000  0.75340000  0.80970000  1.0 -0.0276434009
C  C144  1  0.30420000  0.24660000  0.19030000  1.0 -0.0276434009
C  C145  1  0.77060000  0.01690000  0.34620000  1.0 0.0802003681
C  C146  1  0.22940000  0.98310000  0.65380000  1.0 0.0802003681
C  C147  1  0.69560000  0.10270000  0.40600000  1.0 -0.0813249076
C  C148  1  0.30440000  0.89730000  0.59400000  1.0 -0.0813249076
C  C149  1  0.74100000  0.33950000  0.56060000  1.0 0.0389824947
C  C150  1  0.25900000  0.66050000  0.43940000  1.0 0.0389824947
C  C151  1  0.79140000  0.36440000  0.61960000  1.0 -0.1384509513
C  C152  1  0.20860000  0.63560000  0.38040000  1.0 -0.1384509513
C  C153  1  0.71900000  0.93360000  0.91910000  1.0 -0.0210904921
C  C154  1  0.28100000  0.06640000  0.08090000  1.0 -0.0210904921
C  C155  1  0.66540000  0.82660000  0.81270000  1.0 0.5807956336
C  C156  1  0.33460000  0.17340000  0.18730000  1.0 0.5807956336
C  C157  1  0.66230000  0.22580000  0.79690000  1.0 -0.1689887528
C  C158  1  0.33770000  0.77420000  0.20310000  1.0 -0.1689887528
C  C159  1  0.73750000  0.40930000  0.79750000  1.0 0.3293342767
C  C160  1  0.26250000  0.59070000  0.20250000  1.0 0.3293342767
C  C161  1  0.74490000  0.90560000  0.01790000  1.0 -0.2960928054
C  C162  1  0.25510000  0.09440000  0.98210000  1.0 -0.2960928054
C  C163  1  0.87840000  0.23590000  0.78770000  1.0 -0.1895328561
C  C164  1  0.12160000  0.76410000  0.21230000  1.0 -0.1895328561
C  C165  1  0.09920000  0.23730000  0.77820000  1.0 0.0802003681
C  C166  1  0.90080000  0.76270000  0.22180000  1.0 0.0802003681
C  C167  1  0.17660000  0.19970000  0.77120000  1.0 0.0021020725
C  C168  1  0.82340000  0.80030000  0.22880000  1.0 0.0021020725
C  C169  1  0.74030000  0.97110000  0.39480000  1.0 -0.1584852777
C  C170  1  0.25970000  0.02890000  0.60520000  1.0 -0.1584852777
C  C171  1  0.31950000  0.13600000  0.75760000  1.0 -0.0674181869
C  C172  1  0.68050000  0.86400000  0.24240000  1.0 -0.0674181869
C  C173  1  0.67270000  0.94690000  0.88210000  1.0 0.5704147098
C  C174  1  0.32730000  0.05310000  0.11790000  1.0 0.5704147098
C  C175  1  0.84690000  0.30290000  0.79050000  1.0 0.16096693
C  C176  1  0.15310000  0.69710000  0.20950000  1.0 0.16096693
C  C177  1  0.27880000  0.18170000  0.79420000  1.0 -0.0276434009
C  C178  1  0.72120000  0.81830000  0.20580000  1.0 -0.0210904921
C  C179  1  0.70110000  0.91550000  0.98390000  1.0 -0.2164213481
C  C180  1  0.29890000  0.08450000  0.01610000  1.0 -0.2164213481
C  C181  1  0.74900000  0.08290000  0.35360000  1.0 -0.1584852777
C  C182  1  0.25100000  0.91710000  0.64640000  1.0 -0.1584852777
C  C183  1  0.62730000  0.11250000  0.74600000  1.0 0.5704147098
C  C184  1  0.37270000  0.88750000  0.25400000  1.0 0.5704147098
C  C185  1  0.85990000  0.50830000  0.78840000  1.0 -0.1193389817
C  C186  1  0.14010000  0.49170000  0.21160000  1.0 -0.1193389817
C  C187  1  0.78050000  0.44420000  0.79490000  1.0 -0.0615789751
C  C188  1  0.21950000  0.55580000  0.20510000  1.0 -0.0615789751
C  C189  1  0.75720000  0.61760000  0.79800000  1.0 0.0721487021
C  C190  1  0.24280000  0.38240000  0.20200000  1.0 0.0721487021
C  C191  1  0.00370000  0.29560000  0.72910000  1.0 -0.1584852777
C  C192  1  0.99630000  0.70440000  0.27090000  1.0 -0.1584852777
C  C193  1  0.78820000  0.54490000  0.79490000  1.0 0.0606764965
C  C194  1  0.21180000  0.45510000  0.20510000  1.0 0.0606764965
C  C195  1  0.20710000  0.21210000  0.80220000  1.0 -0.0113776132
C  C196  1  0.79290000  0.78790000  0.19780000  1.0 -0.0113776132
C  C197  1  0.21950000  0.15480000  0.73270000  1.0 -0.1584852777
C  C198  1  0.78050000  0.84520000  0.26730000  1.0 -0.1584852777
C  C199  1  0.29020000  0.12250000  0.72800000  1.0 -0.1095467884
C  C200  1  0.70980000  0.87750000  0.27200000  1.0 -0.1095467884
C  C201  1  0.85230000  0.40500000  0.79150000  1.0 0.1510294972
C  C202  1  0.14770000  0.59500000  0.20850000  1.0 0.1510294972
C  C203  1  0.89210000  0.44080000  0.78610000  1.0 -0.1895328561
C  C204  1  0.10790000  0.55920000  0.21390000  1.0 -0.1895328561
C  C205  1  0.66040000  0.71140000  0.84430000  1.0 -0.089631105
C  C206  1  0.33960000  0.28860000  0.15570000  1.0 -0.089631105
C  C207  1  0.07520000  0.26310000  0.72450000  1.0 -0.2006869847
C  C208  1  0.92480000  0.73690000  0.27550000  1.0 -0.2006869847
C  C209  1  0.75110000  0.51180000  0.79660000  1.0 -0.1498662759
C  C210  1  0.24890000  0.48820000  0.20340000  1.0 -0.1498662759
C  C211  1  0.44160000  0.92270000  0.91780000  1.0 0.2578719137
C  C212  1  0.55840000  0.07730000  0.08220000  1.0 0.2578719137
C  C213  1  0.61250000  0.24140000  0.56790000  1.0 0.4733882723
C  C214  1  0.38750000  0.75860000  0.43210000  1.0 0.4733882723
C  C215  1  0.37320000  0.91190000  0.95370000  1.0 -0.0498781549
C  C216  1  0.62680000  0.08810000  0.04630000  1.0 -0.0396570969
C  C217  1  0.34330000  0.90750000  0.01870000  1.0 -0.0113776132
C  C218  1  0.65670000  0.09250000  0.98130000  1.0 -0.0113776132
C  C219  1  0.27790000  0.90370000  0.04730000  1.0 -0.0396570969
C  C220  1  0.72210000  0.09630000  0.95270000  1.0 -0.0396570969
C  C221  1  0.24220000  0.90440000  0.01090000  1.0 0.0194882306
C  C222  1  0.75780000  0.09560000  0.98910000  1.0 0.0194882306
C  C223  1  0.27200000  0.90880000  0.94580000  1.0 -0.0396570969
C  C224  1  0.72800000  0.09120000  0.05420000  1.0 -0.0396570969
C  C225  1  0.33750000  0.91260000  0.91720000  1.0 -0.089631105
C  C226  1  0.66250000  0.08740000  0.08280000  1.0 -0.089631105
C  C227  1  0.39980000  0.10270000  0.74720000  1.0 0.272862914
C  C228  1  0.60020000  0.89730000  0.25280000  1.0 0.272862914
C  C229  1  0.68940000  0.64510000  0.83830000  1.0 -0.1498662759
C  C230  1  0.31060000  0.35490000  0.16170000  1.0 -0.1498662759
C  C231  1  0.66090000  0.27580000  0.56400000  1.0 0.0099569748
C  C232  1  0.33910000  0.72420000  0.43600000  1.0 0.0099569748
C  C233  1  0.70420000  0.37460000  0.51060000  1.0 -0.1281014141
C  C234  1  0.29580000  0.62540000  0.48940000  1.0 -0.1281014141
C  C235  1  0.73610000  0.28220000  0.60120000  1.0 -0.0615789751
C  C236  1  0.26390000  0.71780000  0.39880000  1.0 -0.0615789751
C  C237  1  0.66280000  0.34210000  0.51230000  1.0 -0.1384509513
C  C238  1  0.33720000  0.65790000  0.48770000  1.0 -0.1384509513
C  C239  1  0.70070000  0.24830000  0.60160000  1.0 -0.0276434009
C  C240  1  0.29930000  0.75170000  0.39840000  1.0 -0.0276434009
C  C241  1  0.45170000  0.18370000  0.95550000  1.0 -0.5128358873
C  C242  1  0.54830000  0.81630000  0.04450000  1.0 -0.5128358873
C  C243  1  0.39480000  0.17300000  0.88370000  1.0 0.0099569748
C  C244  1  0.60520000  0.82700000  0.11630000  1.0 0.0099569748
C  C245  1  0.48850000  0.08000000  0.92100000  1.0 0.0328420997
C  C246  1  0.51150000  0.92000000  0.07900000  1.0 0.0328420997
C  C247  1  0.76090000  0.29730000  0.52750000  1.0 -0.0498781549
C  C248  1  0.23910000  0.70270000  0.47250000  1.0 -0.0498781549
C  C249  1  0.16330000  0.23470000  0.79840000  1.0 0.0099569748
C  C250  1  0.83670000  0.76530000  0.20160000  1.0 0.0099569748
C  C251  1  0.17570000  0.24930000  0.84320000  1.0 -0.1016250424
C  C252  1  0.82430000  0.75070000  0.15680000  1.0 -0.1016250424
C  C253  1  0.24380000  0.22650000  0.84610000  1.0 -0.1281014141
C  C254  1  0.75620000  0.77350000  0.15390000  1.0 -0.1281014141
C  C255  1  0.29950000  0.18910000  0.80430000  1.0 0.0194882306
C  C256  1  0.70050000  0.81090000  0.19570000  1.0 0.0194882306
C  C257  1  0.28700000  0.17440000  0.75950000  1.0 -0.0033082383
C  C258  1  0.71300000  0.82560000  0.24050000  1.0 -0.0033082383
C  C259  1  0.21890000  0.19730000  0.75650000  1.0 -0.0113776132
C  C260  1  0.78110000  0.80270000  0.24350000  1.0 -0.0113776132
C  C261  1  0.68120000  0.32830000  0.62000000  1.0 -0.1016250424
C  C262  1  0.31880000  0.67170000  0.38000000  1.0 -0.1016250424
C  C263  1  0.63890000  0.30010000  0.61910000  1.0 -0.1193389817
C  C264  1  0.36110000  0.69990000  0.38090000  1.0 -0.1193389817
C  C265  1  0.72610000  0.26320000  0.52750000  1.0 -0.0674181869
C  C266  1  0.27390000  0.73680000  0.47250000  1.0 -0.0674181869
C  C267  1  0.37530000  0.15610000  0.81480000  1.0 0.0328420997
C  C268  1  0.62470000  0.84390000  0.18520000  1.0 0.0328420997
C  C269  1  0.23640000  0.91100000  0.02880000  1.0 0.0194882306
C  C270  1  0.76360000  0.08900000  0.97120000  1.0 0.0194882306
C  C271  1  0.26530000  0.91000000  0.07180000  1.0 -0.0210904921
C  C272  1  0.73470000  0.09000000  0.92820000  1.0 -0.0210904921
C  C273  1  0.33120000  0.91200000  0.05080000  1.0 -0.089631105
C  C274  1  0.66880000  0.08800000  0.94920000  1.0 -0.089631105
C  C275  1  0.36810000  0.91610000  0.98680000  1.0 -0.0396570969
C  C276  1  0.63190000  0.08390000  0.01320000  1.0 -0.0396570969
C  C277  1  0.33930000  0.91800000  0.94390000  1.0 -0.0276434009
C  C278  1  0.66070000  0.08200000  0.05610000  1.0 -0.0276434009
C  C279  1  0.27340000  0.91600000  0.96490000  1.0 -0.0210904921
C  C280  1  0.72660000  0.08400000  0.03510000  1.0 -0.0210904921
C  C281  1  0.43640000  0.92600000  0.96300000  1.0 0.2578719137
C  C282  1  0.56360000  0.07400000  0.03700000  1.0 0.2578719137
N  N1  1  0.90189000  0.46169000  0.57276000  1.0 -0.1095467884
N  N2  1  0.09811000  0.53831000  0.42724000  1.0 -0.1095467884
N  N3  1  0.95515000  0.93670000  0.11651000  1.0 -0.1193389817
N  N4  1  0.04485000  0.06330000  0.88349000  1.0 -0.1193389817
N  N5  1  0.88350000  0.33650000  0.78970000  1.0 -0.1193389817
N  N6  1  0.11650000  0.66350000  0.21030000  1.0 -0.1193389817
N  N7  1  0.45390000  0.13190000  0.91820000  1.0 -0.0396570969
N  N8  1  0.54610000  0.86810000  0.08180000  1.0 -0.0396570969
O  O1  1  0.57435000  0.94933000  0.67789000  1.0 -0.5673064785
O  O2  1  0.42565000  0.05067000  0.32211000  1.0 -0.5673064785
O  O3  1  0.67206000  0.96519000  0.65108000  1.0 -0.542203369
O  O4  1  0.32794000  0.03481000  0.34892000  1.0 -0.542203369
O  O5  1  0.54794000  0.09693000  0.65000000  1.0 -0.9078959944
O  O6  1  0.45206000  0.90307000  0.35000000  1.0 -0.9078959944
O  O7  1  0.57838000  0.03816000  0.54772000  1.0 -0.5766683044
O  O8  1  0.42162000  0.96184000  0.45228000  1.0 -0.5766683044
O  O9  1  0.57261000  0.99076000  0.77553000  1.0 -0.8690291466
O  O10  1  0.42739000  0.00924000  0.22447000  1.0 -0.8690291466
O  O11  1  0.00278000  0.54305000  0.61180000  1.0 -0.4135884019
O  O12  1  0.99722000  0.45695000  0.38820000  1.0 -0.4135884019
O  O13  1  0.06618000  0.86690000  0.95578000  1.0 -0.3893557114
O  O14  1  0.93382000  0.13310000  0.04422000  1.0 -0.3893557114
O  O15  1  0.43819000  0.22889000  0.57785000  1.0 -0.5585121932
O  O16  1  0.56181000  0.77111000  0.42215000  1.0 -0.5585121932
O  O17  1  0.69796000  0.86339000  0.77327000  1.0 -0.5585121932
O  O18  1  0.30204000  0.13661000  0.22673000  1.0 -0.5585121932
O  O19  1  0.58670000  0.14190000  0.50809000  1.0 -0.542203369
O  O20  1  0.41330000  0.85810000  0.49191000  1.0 -0.542203369
O  O21  1  0.42478000  0.13140000  0.59853000  1.0 -0.5673064785
O  O22  1  0.57522000  0.86860000  0.40147000  1.0 -0.5673064785
O  O23  1  0.66028000  0.07280000  0.71007000  1.0 -0.542203369
O  O24  1  0.33972000  0.92720000  0.28993000  1.0 -0.542203369
O  O25  1  0.43329000  0.04920000  0.72680000  1.0 -0.5209413888
O  O26  1  0.56671000  0.95080000  0.27320000  1.0 -0.5209413888
O  O27  1  0.61700000  0.93610000  0.91300000  1.0 -0.5254180851
O  O28  1  0.38300000  0.06390000  0.08700000  1.0 -0.5254180851
O  O29  1  0.69170000  0.96810000  0.82270000  1.0 -0.5673064785
O  O30  1  0.30830000  0.03190000  0.17730000  1.0 -0.5673064785
O  O31  1  0.61050000  0.84510000  0.85520000  1.0 -0.5508096041
O  O32  1  0.38950000  0.15490000  0.14480000  1.0 -0.5508096041
O  O33  1  0.56179000  0.13400000  0.76990000  1.0 -0.5128358873
O  O34  1  0.43821000  0.86600000  0.23010000  1.0 -0.5128358873
O  O35  1  0.42120000  0.13440000  0.76320000  1.0 -0.0813249076
O  O36  1  0.57880000  0.86560000  0.23680000  1.0 -0.0813249076
O  O37  1  0.67529000  0.44140000  0.80090000  1.0 -0.3893557114
O  O38  1  0.32471000  0.55860000  0.19910000  1.0 -0.3893557114
O  O39  1  0.46100000  0.93580000  0.86250000  1.0 -0.1895328561
O  O40  1  0.53900000  0.06420000  0.13750000  1.0 -0.1844978156
O  O41  1  0.47480000  0.91990000  0.95400000  1.0 0.0389824947
O  O42  1  0.52520000  0.08010000  0.04600000  1.0 0.0389824947
O  O43  1  0.56720000  0.27320000  0.54850000  1.0 -0.3281940045
O  O44  1  0.43280000  0.72680000  0.45150000  1.0 -0.3281940045
O  O45  1  0.63890000  0.18030000  0.58040000  1.0 -0.3893557114
O  O46  1  0.36110000  0.81970000  0.41960000  1.0 -0.3893557114
O  O47  1  0.48980000  0.05400000  0.87320000  1.0 -0.5673064785
O  O48  1  0.51020000  0.94600000  0.12680000  1.0 -0.5673064785
O  O49  1  0.37560000  0.18760000  0.84490000  1.0 -0.1689887528
O  O50  1  0.62440000  0.81240000  0.15510000  1.0 -0.1689887528
O  O51  1  0.43400000  0.10760000  0.78900000  1.0 -0.0498781549
O  O52  1  0.56600000  0.89240000  0.21100000  1.0 -0.0498781549
O  O53  1  0.45240000  0.94480000  0.00530000  1.0 -0.376328704
O  O54  1  0.54760000  0.05520000  0.99470000  1.0 -0.376328704
O  O55  1  0.46740000  0.93160000  0.91100000  1.0 0.0802003681
O  O56  1  0.53260000  0.06840000  0.08900000  1.0 0.090267062
